MODEL 1
REMARK VINA RESULT:      -6.3      0.000      0.000
REMARK  Name = ZINC95486265
REMARK  5 active torsions:
REMARK  status: ('A' for Active; 'I' for Inactive)
REMARK    1  A    between atoms: C3_3  and  O5_21
REMARK    2  A    between atoms: C4_4  and  O4_20
REMARK    3  A    between atoms: C6_6  and  C7_7
REMARK    4  A    between atoms: C13_14  and  O3_18
REMARK    5  A    between atoms: C15_16  and  O2_17
REMARK                            x       y       z     vdW  Elec       q    Type
REMARK                         _______ _______ _______ _____ _____    ______ ____
ROOT
ATOM     11  C   UNL     1      44.930  18.643  19.312  0.00  0.00    -0.006 C 
ATOM     12  C   UNL     1      44.414  17.908  20.313  0.00  0.00    -0.053 C 
ATOM     13  C   UNL     1      43.161  18.322  20.951  0.00  0.00    +0.427 C 
ATOM     14  C   UNL     1      42.321  19.308  20.242  0.00  0.00    -0.202 A 
ATOM     15  C   UNL     1      42.873  20.058  19.201  0.00  0.00    -0.004 A 
ATOM     16  C   UNL     1      42.081  20.968  18.532  0.00  0.00    -0.026 A 
ATOM     17  C   UNL     1      40.749  21.144  18.895  0.00  0.00    +0.162 A 
ATOM     20  C   UNL     1      40.200  20.407  19.934  0.00  0.00    -0.046 A 
ATOM     21  C   UNL     1      40.982  19.488  20.613  0.00  0.00    +0.190 A 
ATOM     24  O   UNL     1      42.824  17.867  22.030  0.00  0.00    -0.437 OA
ATOM     25  C   UNL     1      44.314  19.906  18.807  0.00  0.00    +0.169 C 
ENDROOT
BRANCH  11  10
ATOM      1  C   UNL     1      47.395  18.776  19.019  0.00  0.00    +0.044 A 
ATOM      2  C   UNL     1      48.561  18.339  18.429  0.00  0.00    +0.011 A 
ATOM      3  C   UNL     1      48.528  17.306  17.502  0.00  0.00    +0.090 A 
ATOM      6  C   UNL     1      47.316  16.705  17.163  0.00  0.00    +0.084 A 
ATOM      9  C   UNL     1      46.143  17.137  17.748  0.00  0.00    +0.027 A 
ATOM     10  C   UNL     1      46.174  18.179  18.684  0.00  0.00    -0.064 A 
BRANCH   3   4
ATOM      4  O   UNL     1      49.680  16.879  16.923  0.00  0.00    -0.486 OA
ATOM      5  H   UNL     1      49.745  17.081  15.979  0.00  0.00    +0.390 HD
ENDBRANCH   3   4
BRANCH   6   7
ATOM      7  O   UNL     1      47.289  15.694  16.253  0.00  0.00    -0.486 OA
ATOM      8  H   UNL     1      48.143  15.259  16.124  0.00  0.00    +0.390 HD
ENDBRANCH   6   7
ENDBRANCH  11  10
BRANCH  17  18
ATOM     18  O   UNL     1      39.982  22.043  18.227  0.00  0.00    -0.495 OA
ATOM     19  H   UNL     1      40.399  22.907  18.113  0.00  0.00    +0.400 HD
ENDBRANCH  17  18
BRANCH  21  22
ATOM     22  O   UNL     1      40.452  18.764  21.631  0.00  0.00    -0.481 OA
ATOM     23  H   UNL     1      40.511  19.196  22.494  0.00  0.00    +0.403 HD
ENDBRANCH  21  22
TORSDOF 5
ENDMDL
MODEL 2
REMARK VINA RESULT:      -6.2      3.653      8.069
REMARK  Name = ZINC95486265
REMARK  5 active torsions:
REMARK  status: ('A' for Active; 'I' for Inactive)
REMARK    1  A    between atoms: C3_3  and  O5_21
REMARK    2  A    between atoms: C4_4  and  O4_20
REMARK    3  A    between atoms: C6_6  and  C7_7
REMARK    4  A    between atoms: C13_14  and  O3_18
REMARK    5  A    between atoms: C15_16  and  O2_17
REMARK                            x       y       z     vdW  Elec       q    Type
REMARK                         _______ _______ _______ _____ _____    ______ ____
ROOT
ATOM     11  C   UNL     1      47.343  20.734  19.935  0.00  0.00    -0.006 C 
ATOM     12  C   UNL     1      47.851  20.871  21.173  0.00  0.00    -0.053 C 
ATOM     13  C   UNL     1      49.294  20.731  21.388  0.00  0.00    +0.427 C 
ATOM     14  C   UNL     1      50.177  20.814  20.209  0.00  0.00    -0.202 A 
ATOM     15  C   UNL     1      49.631  20.676  18.931  0.00  0.00    -0.004 A 
ATOM     16  C   UNL     1      50.458  20.768  17.830  0.00  0.00    -0.026 A 
ATOM     17  C   UNL     1      51.823  20.989  17.991  0.00  0.00    +0.162 A 
ATOM     20  C   UNL     1      52.370  21.118  19.259  0.00  0.00    -0.046 A 
ATOM     21  C   UNL     1      51.552  21.030  20.373  0.00  0.00    +0.190 A 
ATOM     24  O   UNL     1      49.748  20.553  22.505  0.00  0.00    -0.437 OA
ATOM     25  C   UNL     1      48.166  20.411  18.731  0.00  0.00    +0.169 C 
ENDROOT
BRANCH  11  10
ATOM      1  C   UNL     1      45.127  19.872  19.210  0.00  0.00    +0.044 A 
ATOM      2  C   UNL     1      43.769  20.035  19.046  0.00  0.00    +0.011 A 
ATOM      3  C   UNL     1      43.159  21.224  19.424  0.00  0.00    +0.090 A 
ATOM      6  C   UNL     1      43.916  22.258  19.973  0.00  0.00    +0.084 A 
ATOM      9  C   UNL     1      45.278  22.104  20.140  0.00  0.00    +0.027 A 
ATOM     10  C   UNL     1      45.895  20.905  19.759  0.00  0.00    -0.064 A 
BRANCH   3   4
ATOM      4  O   UNL     1      41.820  21.379  19.260  0.00  0.00    -0.486 OA
ATOM      5  H   UNL     1      41.289  21.011  19.980  0.00  0.00    +0.390 HD
ENDBRANCH   3   4
BRANCH   6   7
ATOM      7  O   UNL     1      43.314  23.421  20.341  0.00  0.00    -0.486 OA
ATOM      8  H   UNL     1      43.806  23.924  21.004  0.00  0.00    +0.390 HD
ENDBRANCH   6   7
ENDBRANCH  11  10
BRANCH  17  18
ATOM     18  O   UNL     1      52.623  21.078  16.898  0.00  0.00    -0.495 OA
ATOM     19  H   UNL     1      53.487  20.660  17.009  0.00  0.00    +0.400 HD
ENDBRANCH  17  18
BRANCH  21  22
ATOM     22  O   UNL     1      52.080  21.155  21.616  0.00  0.00    -0.481 OA
ATOM     23  H   UNL     1      52.893  20.650  21.751  0.00  0.00    +0.403 HD
ENDBRANCH  21  22
TORSDOF 5
ENDMDL
MODEL 3
REMARK VINA RESULT:      -6.2      2.778      8.026
REMARK  Name = ZINC95486265
REMARK  5 active torsions:
REMARK  status: ('A' for Active; 'I' for Inactive)
REMARK    1  A    between atoms: C3_3  and  O5_21
REMARK    2  A    between atoms: C4_4  and  O4_20
REMARK    3  A    between atoms: C6_6  and  C7_7
REMARK    4  A    between atoms: C13_14  and  O3_18
REMARK    5  A    between atoms: C15_16  and  O2_17
REMARK                            x       y       z     vdW  Elec       q    Type
REMARK                         _______ _______ _______ _____ _____    ______ ____
ROOT
ATOM     11  C   UNL     1      47.717  19.405  18.896  0.00  0.00    -0.006 C 
ATOM     12  C   UNL     1      48.048  18.223  18.346  0.00  0.00    -0.053 C 
ATOM     13  C   UNL     1      49.386  18.032  17.780  0.00  0.00    +0.427 C 
ATOM     14  C   UNL     1      50.437  18.999  18.155  0.00  0.00    -0.202 A 
ATOM     15  C   UNL     1      50.074  20.218  18.731  0.00  0.00    -0.004 A 
ATOM     16  C   UNL     1      51.060  21.113  19.094  0.00  0.00    -0.026 A 
ATOM     17  C   UNL     1      52.400  20.808  18.882  0.00  0.00    +0.162 A 
ATOM     20  C   UNL     1      52.764  19.601  18.302  0.00  0.00    -0.046 A 
ATOM     21  C   UNL     1      51.786  18.692  17.935  0.00  0.00    +0.190 A 
ATOM     24  O   UNL     1      49.622  17.106  17.024  0.00  0.00    -0.437 OA
ATOM     25  C   UNL     1      48.633  20.583  18.947  0.00  0.00    +0.169 C 
ENDROOT
BRANCH  11  10
ATOM      1  C   UNL     1      46.174  19.340  20.845  0.00  0.00    +0.044 A 
ATOM      2  C   UNL     1      44.914  19.473  21.385  0.00  0.00    +0.011 A 
ATOM      3  C   UNL     1      43.840  19.811  20.574  0.00  0.00    +0.090 A 
ATOM      6  C   UNL     1      44.029  20.019  19.208  0.00  0.00    +0.084 A 
ATOM      9  C   UNL     1      45.288  19.887  18.657  0.00  0.00    +0.027 A 
ATOM     10  C   UNL     1      46.373  19.545  19.475  0.00  0.00    -0.064 A 
BRANCH   3   4
ATOM      4  O   UNL     1      42.599  19.941  21.112  0.00  0.00    -0.486 OA
ATOM      5  H   UNL     1      42.491  19.496  21.964  0.00  0.00    +0.390 HD
ENDBRANCH   3   4
BRANCH   6   7
ATOM      7  O   UNL     1      42.973  20.349  18.416  0.00  0.00    -0.486 OA
ATOM      8  H   UNL     1      42.122  20.338  18.874  0.00  0.00    +0.390 HD
ENDBRANCH   6   7
ENDBRANCH  11  10
BRANCH  17  18
ATOM     18  O   UNL     1      53.359  21.698  19.245  0.00  0.00    -0.495 OA
ATOM     19  H   UNL     1      53.081  22.314  19.936  0.00  0.00    +0.400 HD
ENDBRANCH  17  18
BRANCH  21  22
ATOM     22  O   UNL     1      52.134  17.510  17.367  0.00  0.00    -0.481 OA
ATOM     23  H   UNL     1      52.811  17.587  16.682  0.00  0.00    +0.403 HD
ENDBRANCH  21  22
TORSDOF 5
ENDMDL
MODEL 4
REMARK VINA RESULT:      -6.1      3.425      8.313
REMARK  Name = ZINC95486265
REMARK  5 active torsions:
REMARK  status: ('A' for Active; 'I' for Inactive)
REMARK    1  A    between atoms: C3_3  and  O5_21
REMARK    2  A    between atoms: C4_4  and  O4_20
REMARK    3  A    between atoms: C6_6  and  C7_7
REMARK    4  A    between atoms: C13_14  and  O3_18
REMARK    5  A    between atoms: C15_16  and  O2_17
REMARK                            x       y       z     vdW  Elec       q    Type
REMARK                         _______ _______ _______ _____ _____    ______ ____
ROOT
ATOM     11  C   UNL     1      48.478  20.350  19.264  0.00  0.00    -0.006 C 
ATOM     12  C   UNL     1      49.497  21.073  18.767  0.00  0.00    -0.053 C 
ATOM     13  C   UNL     1      50.664  20.391  18.199  0.00  0.00    +0.427 C 
ATOM     14  C   UNL     1      50.528  18.963  17.855  0.00  0.00    -0.202 A 
ATOM     15  C   UNL     1      49.459  18.230  18.375  0.00  0.00    -0.004 A 
ATOM     16  C   UNL     1      49.326  16.898  18.040  0.00  0.00    -0.026 A 
ATOM     17  C   UNL     1      50.251  16.288  17.198  0.00  0.00    +0.162 A 
ATOM     20  C   UNL     1      51.319  17.011  16.686  0.00  0.00    -0.046 A 
ATOM     21  C   UNL     1      51.463  18.349  17.011  0.00  0.00    +0.190 A 
ATOM     24  O   UNL     1      51.712  20.986  18.017  0.00  0.00    -0.437 OA
ATOM     25  C   UNL     1      48.461  18.857  19.307  0.00  0.00    +0.169 C 
ENDROOT
BRANCH  11  10
ATOM      1  C   UNL     1      47.422  21.771  21.009  0.00  0.00    +0.044 A 
ATOM      2  C   UNL     1      46.332  22.448  21.511  0.00  0.00    +0.011 A 
ATOM      3  C   UNL     1      45.127  22.438  20.821  0.00  0.00    +0.090 A 
ATOM      6  C   UNL     1      45.013  21.745  19.617  0.00  0.00    +0.084 A 
ATOM      9  C   UNL     1      46.100  21.063  19.106  0.00  0.00    +0.027 A 
ATOM     10  C   UNL     1      47.317  21.072  19.802  0.00  0.00    -0.064 A 
BRANCH   3   4
ATOM      4  O   UNL     1      44.056  23.107  21.320  0.00  0.00    -0.486 OA
ATOM      5  H   UNL     1      43.238  22.968  20.822  0.00  0.00    +0.390 HD
ENDBRANCH   3   4
BRANCH   6   7
ATOM      7  O   UNL     1      43.831  21.737  18.944  0.00  0.00    -0.486 OA
ATOM      8  H   UNL     1      43.605  20.880  18.558  0.00  0.00    +0.390 HD
ENDBRANCH   6   7
ENDBRANCH  11  10
BRANCH  17  18
ATOM     18  O   UNL     1      50.106  14.978  16.877  0.00  0.00    -0.495 OA
ATOM     19  H   UNL     1      49.642  14.826  16.043  0.00  0.00    +0.400 HD
ENDBRANCH  17  18
BRANCH  21  22
ATOM     22  O   UNL     1      52.505  19.062  16.515  0.00  0.00    -0.481 OA
ATOM     23  H   UNL     1      53.303  18.538  16.363  0.00  0.00    +0.403 HD
ENDBRANCH  21  22
TORSDOF 5
ENDMDL
MODEL 5
REMARK VINA RESULT:      -6.1      3.213      8.241
REMARK  Name = ZINC95486265
REMARK  5 active torsions:
REMARK  status: ('A' for Active; 'I' for Inactive)
REMARK    1  A    between atoms: C3_3  and  O5_21
REMARK    2  A    between atoms: C4_4  and  O4_20
REMARK    3  A    between atoms: C6_6  and  C7_7
REMARK    4  A    between atoms: C13_14  and  O3_18
REMARK    5  A    between atoms: C15_16  and  O2_17
REMARK                            x       y       z     vdW  Elec       q    Type
REMARK                         _______ _______ _______ _____ _____    ______ ____
ROOT
ATOM     11  C   UNL     1      47.729  20.335  19.600  0.00  0.00    -0.006 C 
ATOM     12  C   UNL     1      48.503  21.045  20.439  0.00  0.00    -0.053 C 
ATOM     13  C   UNL     1      49.946  20.793  20.488  0.00  0.00    +0.427 C 
ATOM     14  C   UNL     1      50.553  20.044  19.371  0.00  0.00    -0.202 A 
ATOM     15  C   UNL     1      49.732  19.318  18.505  0.00  0.00    -0.004 A 
ATOM     16  C   UNL     1      50.302  18.630  17.453  0.00  0.00    -0.026 A 
ATOM     17  C   UNL     1      51.679  18.653  17.260  0.00  0.00    +0.162 A 
ATOM     20  C   UNL     1      52.498  19.367  18.123  0.00  0.00    -0.046 A 
ATOM     21  C   UNL     1      51.941  20.064  19.181  0.00  0.00    +0.190 A 
ATOM     24  O   UNL     1      50.622  21.190  21.422  0.00  0.00    -0.437 OA
ATOM     25  C   UNL     1      48.245  19.255  18.707  0.00  0.00    +0.169 C 
ENDROOT
BRANCH  11  10
ATOM      1  C   UNL     1      45.425  19.833  18.814  0.00  0.00    +0.044 A 
ATOM      2  C   UNL     1      44.077  20.117  18.783  0.00  0.00    +0.011 A 
ATOM      3  C   UNL     1      43.575  21.199  19.493  0.00  0.00    +0.090 A 
ATOM      6  C   UNL     1      44.432  22.004  20.244  0.00  0.00    +0.084 A 
ATOM      9  C   UNL     1      45.784  21.728  20.281  0.00  0.00    +0.027 A 
ATOM     10  C   UNL     1      46.291  20.636  19.564  0.00  0.00    -0.064 A 
BRANCH   3   4
ATOM      4  O   UNL     1      42.246  21.475  19.458  0.00  0.00    -0.486 OA
ATOM      5  H   UNL     1      41.803  21.176  18.652  0.00  0.00    +0.390 HD
ENDBRANCH   3   4
BRANCH   6   7
ATOM      7  O   UNL     1      43.936  23.063  20.938  0.00  0.00    -0.486 OA
ATOM      8  H   UNL     1      44.137  23.922  20.541  0.00  0.00    +0.390 HD
ENDBRANCH   6   7
ENDBRANCH  11  10
BRANCH  17  18
ATOM     18  O   UNL     1      52.224  17.973  16.220  0.00  0.00    -0.495 OA
ATOM     19  H   UNL     1      52.987  18.411  15.820  0.00  0.00    +0.400 HD
ENDBRANCH  17  18
BRANCH  21  22
ATOM     22  O   UNL     1      52.736  20.764  20.029  0.00  0.00    -0.481 OA
ATOM     23  H   UNL     1      52.584  21.718  20.014  0.00  0.00    +0.403 HD
ENDBRANCH  21  22
TORSDOF 5
ENDMDL
MODEL 6
REMARK VINA RESULT:      -5.9      2.565      3.649
REMARK  Name = ZINC95486265
REMARK  5 active torsions:
REMARK  status: ('A' for Active; 'I' for Inactive)
REMARK    1  A    between atoms: C3_3  and  O5_21
REMARK    2  A    between atoms: C4_4  and  O4_20
REMARK    3  A    between atoms: C6_6  and  C7_7
REMARK    4  A    between atoms: C13_14  and  O3_18
REMARK    5  A    between atoms: C15_16  and  O2_17
REMARK                            x       y       z     vdW  Elec       q    Type
REMARK                         _______ _______ _______ _____ _____    ______ ____
ROOT
ATOM     11  C   UNL     1      47.467  19.709  19.167  0.00  0.00    -0.006 C 
ATOM     12  C   UNL     1      46.671  18.627  19.120  0.00  0.00    -0.053 C 
ATOM     13  C   UNL     1      45.250  18.752  19.456  0.00  0.00    +0.427 C 
ATOM     14  C   UNL     1      44.663  20.107  19.473  0.00  0.00    -0.202 A 
ATOM     15  C   UNL     1      45.506  21.219  19.515  0.00  0.00    -0.004 A 
ATOM     16  C   UNL     1      44.955  22.484  19.516  0.00  0.00    -0.026 A 
ATOM     17  C   UNL     1      43.574  22.651  19.484  0.00  0.00    +0.162 A 
ATOM     20  C   UNL     1      42.734  21.548  19.450  0.00  0.00    -0.046 A 
ATOM     21  C   UNL     1      43.272  20.273  19.446  0.00  0.00    +0.190 A 
ATOM     24  O   UNL     1      44.574  17.770  19.712  0.00  0.00    -0.437 OA
ATOM     25  C   UNL     1      47.000  21.067  19.577  0.00  0.00    +0.169 C 
ENDROOT
BRANCH  11  10
ATOM      1  C   UNL     1      49.361  18.291  18.406  0.00  0.00    +0.044 A 
ATOM      2  C   UNL     1      50.686  18.138  18.062  0.00  0.00    +0.011 A 
ATOM      3  C   UNL     1      51.547  19.227  18.104  0.00  0.00    +0.090 A 
ATOM      6  C   UNL     1      51.076  20.480  18.494  0.00  0.00    +0.084 A 
ATOM      9  C   UNL     1      49.750  20.642  18.842  0.00  0.00    +0.027 A 
ATOM     10  C   UNL     1      48.880  19.544  18.800  0.00  0.00    -0.064 A 
BRANCH   3   4
ATOM      4  O   UNL     1      52.853  19.071  17.763  0.00  0.00    -0.486 OA
ATOM      5  H   UNL     1      53.040  18.250  17.288  0.00  0.00    +0.390 HD
ENDBRANCH   3   4
BRANCH   6   7
ATOM      7  O   UNL     1      51.923  21.544  18.534  0.00  0.00    -0.486 OA
ATOM      8  H   UNL     1      52.648  21.445  19.166  0.00  0.00    +0.390 HD
ENDBRANCH   6   7
ENDBRANCH  11  10
BRANCH  17  18
ATOM     18  O   UNL     1      43.047  23.902  19.484  0.00  0.00    -0.495 OA
ATOM     19  H   UNL     1      42.683  24.174  20.337  0.00  0.00    +0.400 HD
ENDBRANCH  17  18
BRANCH  21  22
ATOM     22  O   UNL     1      42.456  19.189  19.414  0.00  0.00    -0.481 OA
ATOM     23  H   UNL     1      42.227  18.843  20.287  0.00  0.00    +0.403 HD
ENDBRANCH  21  22
TORSDOF 5
ENDMDL
MODEL 7
REMARK VINA RESULT:      -5.9      1.391      2.071
REMARK  Name = ZINC95486265
REMARK  5 active torsions:
REMARK  status: ('A' for Active; 'I' for Inactive)
REMARK    1  A    between atoms: C3_3  and  O5_21
REMARK    2  A    between atoms: C4_4  and  O4_20
REMARK    3  A    between atoms: C6_6  and  C7_7
REMARK    4  A    between atoms: C13_14  and  O3_18
REMARK    5  A    between atoms: C15_16  and  O2_17
REMARK                            x       y       z     vdW  Elec       q    Type
REMARK                         _______ _______ _______ _____ _____    ______ ____
ROOT
ATOM     11  C   UNL     1      45.367  19.359  19.734  0.00  0.00    -0.006 C 
ATOM     12  C   UNL     1      44.852  18.417  20.544  0.00  0.00    -0.053 C 
ATOM     13  C   UNL     1      43.471  18.541  21.020  0.00  0.00    +0.427 C 
ATOM     14  C   UNL     1      42.580  19.481  20.311  0.00  0.00    -0.202 A 
ATOM     15  C   UNL     1      43.133  20.448  19.469  0.00  0.00    -0.004 A 
ATOM     16  C   UNL     1      42.296  21.315  18.797  0.00  0.00    -0.026 A 
ATOM     17  C   UNL     1      40.917  21.234  18.962  0.00  0.00    +0.162 A 
ATOM     20  C   UNL     1      40.365  20.280  19.804  0.00  0.00    -0.046 A 
ATOM     21  C   UNL     1      41.192  19.401  20.483  0.00  0.00    +0.190 A 
ATOM     24  O   UNL     1      43.072  17.889  21.969  0.00  0.00    -0.437 OA
ATOM     25  C   UNL     1      44.620  20.575  19.293  0.00  0.00    +0.169 C 
ENDROOT
BRANCH  11  10
ATOM      1  C   UNL     1      47.152  17.961  18.715  0.00  0.00    +0.044 A 
ATOM      2  C   UNL     1      48.446  17.800  18.271  0.00  0.00    +0.011 A 
ATOM      3  C   UNL     1      49.351  18.849  18.364  0.00  0.00    +0.090 A 
ATOM      6  C   UNL     1      48.955  20.071  18.906  0.00  0.00    +0.084 A 
ATOM      9  C   UNL     1      47.661  20.242  19.354  0.00  0.00    +0.027 A 
ATOM     10  C   UNL     1      46.747  19.184  19.261  0.00  0.00    -0.064 A 
BRANCH   3   4
ATOM      4  O   UNL     1      50.626  18.684  17.925  0.00  0.00    -0.486 OA
ATOM      5  H   UNL     1      51.279  19.209  18.408  0.00  0.00    +0.390 HD
ENDBRANCH   3   4
BRANCH   6   7
ATOM      7  O   UNL     1      49.845  21.096  18.995  0.00  0.00    -0.486 OA
ATOM      8  H   UNL     1      49.587  21.885  18.500  0.00  0.00    +0.390 HD
ENDBRANCH   6   7
ENDBRANCH  11  10
BRANCH  17  18
ATOM     18  O   UNL     1      40.107  22.094  18.293  0.00  0.00    -0.495 OA
ATOM     19  H   UNL     1      39.488  21.662  17.690  0.00  0.00    +0.400 HD
ENDBRANCH  17  18
BRANCH  21  22
ATOM     22  O   UNL     1      40.659  18.465  21.309  0.00  0.00    -0.481 OA
ATOM     23  H   UNL     1      40.042  17.862  20.875  0.00  0.00    +0.403 HD
ENDBRANCH  21  22
TORSDOF 5
ENDMDL
MODEL 8
REMARK VINA RESULT:      -5.6      1.601      2.050
REMARK  Name = ZINC95486265
REMARK  5 active torsions:
REMARK  status: ('A' for Active; 'I' for Inactive)
REMARK    1  A    between atoms: C3_3  and  O5_21
REMARK    2  A    between atoms: C4_4  and  O4_20
REMARK    3  A    between atoms: C6_6  and  C7_7
REMARK    4  A    between atoms: C13_14  and  O3_18
REMARK    5  A    between atoms: C15_16  and  O2_17
REMARK                            x       y       z     vdW  Elec       q    Type
REMARK                         _______ _______ _______ _____ _____    ______ ____
ROOT
ATOM     11  C   UNL     1      45.748  16.905  19.254  0.00  0.00    -0.006 C 
ATOM     12  C   UNL     1      45.109  16.330  20.288  0.00  0.00    -0.053 C 
ATOM     13  C   UNL     1      44.082  17.078  21.017  0.00  0.00    +0.427 C 
ATOM     14  C   UNL     1      43.522  18.283  20.375  0.00  0.00    -0.202 A 
ATOM     15  C   UNL     1      44.196  18.863  19.299  0.00  0.00    -0.004 A 
ATOM     16  C   UNL     1      43.662  19.982  18.692  0.00  0.00    -0.026 A 
ATOM     17  C   UNL     1      42.470  20.532  19.152  0.00  0.00    +0.162 A 
ATOM     20  C   UNL     1      41.802  19.963  20.227  0.00  0.00    -0.046 A 
ATOM     21  C   UNL     1      42.324  18.839  20.844  0.00  0.00    +0.190 A 
ATOM     24  O   UNL     1      43.701  16.715  22.117  0.00  0.00    -0.437 OA
ATOM     25  C   UNL     1      45.498  18.306  18.799  0.00  0.00    +0.169 C 
ENDROOT
BRANCH  11  10
ATOM      1  C   UNL     1      48.033  15.945  19.076  0.00  0.00    +0.044 A 
ATOM      2  C   UNL     1      48.975  15.200  18.399  0.00  0.00    +0.011 A 
ATOM      3  C   UNL     1      48.658  14.615  17.181  0.00  0.00    +0.090 A 
ATOM      6  C   UNL     1      47.385  14.776  16.635  0.00  0.00    +0.084 A 
ATOM      9  C   UNL     1      46.435  15.521  17.305  0.00  0.00    +0.027 A 
ATOM     10  C   UNL     1      46.754  16.112  18.534  0.00  0.00    -0.064 A 
BRANCH   3   4
ATOM      4  O   UNL     1      49.590  13.882  16.519  0.00  0.00    -0.486 OA
ATOM      5  H   UNL     1      49.402  12.933  16.497  0.00  0.00    +0.390 HD
ENDBRANCH   3   4
BRANCH   6   7
ATOM      7  O   UNL     1      47.078  14.201  15.441  0.00  0.00    -0.486 OA
ATOM      8  H   UNL     1      47.838  13.816  14.984  0.00  0.00    +0.390 HD
ENDBRANCH   6   7
ENDBRANCH  11  10
BRANCH  17  18
ATOM     18  O   UNL     1      41.957  21.632  18.545  0.00  0.00    -0.495 OA
ATOM     19  H   UNL     1      41.672  22.323  19.158  0.00  0.00    +0.400 HD
ENDBRANCH  17  18
BRANCH  21  22
ATOM     22  O   UNL     1      41.677  18.278  21.896  0.00  0.00    -0.481 OA
ATOM     23  H   UNL     1      42.160  18.335  22.731  0.00  0.00    +0.403 HD
ENDBRANCH  21  22
TORSDOF 5
ENDMDL
MODEL 9
REMARK VINA RESULT:      -5.6      6.344      7.898
REMARK  Name = ZINC95486265
REMARK  5 active torsions:
REMARK  status: ('A' for Active; 'I' for Inactive)
REMARK    1  A    between atoms: C3_3  and  O5_21
REMARK    2  A    between atoms: C4_4  and  O4_20
REMARK    3  A    between atoms: C6_6  and  C7_7
REMARK    4  A    between atoms: C13_14  and  O3_18
REMARK    5  A    between atoms: C15_16  and  O2_17
REMARK                            x       y       z     vdW  Elec       q    Type
REMARK                         _______ _______ _______ _____ _____    ______ ____
ROOT
ATOM     11  C   UNL     1      48.430  12.844  16.040  0.00  0.00    -0.006 C 
ATOM     12  C   UNL     1      47.181  12.465  15.717  0.00  0.00    -0.053 C 
ATOM     13  C   UNL     1      46.170  12.316  16.767  0.00  0.00    +0.427 C 
ATOM     14  C   UNL     1      46.443  12.935  18.079  0.00  0.00    -0.202 A 
ATOM     15  C   UNL     1      47.746  13.329  18.394  0.00  0.00    -0.004 A 
ATOM     16  C   UNL     1      47.995  13.920  19.615  0.00  0.00    -0.026 A 
ATOM     17  C   UNL     1      46.962  14.116  20.527  0.00  0.00    +0.162 A 
ATOM     20  C   UNL     1      45.669  13.718  20.221  0.00  0.00    -0.046 A 
ATOM     21  C   UNL     1      45.403  13.126  18.998  0.00  0.00    +0.190 A 
ATOM     24  O   UNL     1      45.137  11.701  16.564  0.00  0.00    -0.437 OA
ATOM     25  C   UNL     1      48.883  13.105  17.438  0.00  0.00    +0.169 C 
ENDROOT
BRANCH  11  10
ATOM      1  C   UNL     1      50.748  13.268  15.249  0.00  0.00    +0.044 A 
ATOM      2  C   UNL     1      51.662  13.418  14.229  0.00  0.00    +0.011 A 
ATOM      3  C   UNL     1      51.254  13.310  12.906  0.00  0.00    +0.090 A 
ATOM      6  C   UNL     1      49.919  13.048  12.603  0.00  0.00    +0.084 A 
ATOM      9  C   UNL     1      48.996  12.897  13.618  0.00  0.00    +0.027 A 
ATOM     10  C   UNL     1      49.406  13.006  14.953  0.00  0.00    -0.064 A 
BRANCH   3   4
ATOM      4  O   UNL     1      52.159  13.460  11.905  0.00  0.00    -0.486 OA
ATOM      5  H   UNL     1      52.100  12.783  11.216  0.00  0.00    +0.390 HD
ENDBRANCH   3   4
BRANCH   6   7
ATOM      7  O   UNL     1      49.523  12.944  11.305  0.00  0.00    -0.486 OA
ATOM      8  H   UNL     1      50.038  13.487  10.693  0.00  0.00    +0.390 HD
ENDBRANCH   6   7
ENDBRANCH  11  10
BRANCH  17  18
ATOM     18  O   UNL     1      47.223  14.700  21.724  0.00  0.00    -0.495 OA
ATOM     19  H   UNL     1      47.884  15.404  21.682  0.00  0.00    +0.400 HD
ENDBRANCH  17  18
BRANCH  21  22
ATOM     22  O   UNL     1      44.141  12.734  18.692  0.00  0.00    -0.481 OA
ATOM     23  H   UNL     1      43.922  12.809  17.753  0.00  0.00    +0.403 HD
ENDBRANCH  21  22
TORSDOF 5
ENDMDL
