MODEL 1
REMARK VINA RESULT:      -5.6      0.000      0.000
REMARK  Name = ZINC13282986
REMARK  2 active torsions:
REMARK  status: ('A' for Active; 'I' for Inactive)
REMARK    1  A    between atoms: C1_1  and  O1_2
REMARK    2  A    between atoms: O1_2  and  C2_3
REMARK                            x       y       z     vdW  Elec       q    Type
REMARK                         _______ _______ _______ _____ _____    ______ ____
ROOT
ATOM      3  C   UNL     1      41.787  21.282  19.028  0.00  0.00    +0.069 A 
ATOM      4  C   UNL     1      41.776  19.949  19.308  0.00  0.00    +0.024 A 
ATOM      5  C   UNL     1      42.878  19.420  20.118  0.00  0.00    +0.148 A 
ATOM      6  C   UNL     1      43.847  20.323  20.538  0.00  0.00    +0.040 A 
ATOM      7  C   UNL     1      44.941  19.940  21.312  0.00  0.00    -0.025 A 
ATOM      8  C   UNL     1      45.700  21.182  21.528  0.00  0.00    -0.084 A 
ATOM      9  C   UNL     1      46.876  21.483  22.210  0.00  0.00    +0.078 A 
ATOM     10  C   UNL     1      47.350  22.778  22.228  0.00  0.00    +0.013 A 
ATOM     11  C   UNL     1      46.655  23.784  21.578  0.00  0.00    +0.061 A 
ATOM     12  C   UNL     1      45.489  23.502  20.898  0.00  0.00    +0.029 A 
ATOM     13  C   UNL     1      44.995  22.205  20.863  0.00  0.00    +0.134 A 
ATOM     14  C   UNL     1      45.021  18.594  21.650  0.00  0.00    +0.049 A 
ATOM     15  C   UNL     1      44.024  17.737  21.202  0.00  0.00    +0.262 A 
ATOM     16  N   UNL     1      43.865  21.653  20.264  0.00  0.00    -0.436 N 
ATOM     17  N   UNL     1      43.002  18.143  20.469  0.00  0.00    -0.433 NA
ATOM     18  C   UNL     1      42.858  22.156  19.517  0.00  0.00    +0.562 A 
ATOM     19  O   UNL     1      42.840  23.344  19.248  0.00  0.00    -0.469 OA
ENDROOT
BRANCH   3   2
ATOM      1  C   UNL     1      39.447  21.491  18.666  0.00  0.00    +0.263 C 
ATOM      2  O   UNL     1      40.785  21.814  18.280  0.00  0.00    -0.285 OA
ENDBRANCH   3   2
TORSDOF 1
ENDMDL
MODEL 2
REMARK VINA RESULT:      -5.4      1.544      3.781
REMARK  Name = ZINC13282986
REMARK  2 active torsions:
REMARK  status: ('A' for Active; 'I' for Inactive)
REMARK    1  A    between atoms: C1_1  and  O1_2
REMARK    2  A    between atoms: O1_2  and  C2_3
REMARK                            x       y       z     vdW  Elec       q    Type
REMARK                         _______ _______ _______ _____ _____    ______ ____
ROOT
ATOM      3  C   UNL     1      41.126  21.099  18.765  0.00  0.00    +0.069 A 
ATOM      4  C   UNL     1      41.823  22.269  18.730  0.00  0.00    +0.024 A 
ATOM      5  C   UNL     1      43.098  22.320  19.454  0.00  0.00    +0.148 A 
ATOM      6  C   UNL     1      43.495  21.166  20.119  0.00  0.00    +0.040 A 
ATOM      7  C   UNL     1      44.684  21.091  20.840  0.00  0.00    -0.025 A 
ATOM      8  C   UNL     1      44.715  19.719  21.372  0.00  0.00    -0.084 A 
ATOM      9  C   UNL     1      45.619  19.013  22.161  0.00  0.00    +0.078 A 
ATOM     10  C   UNL     1      45.358  17.704  22.505  0.00  0.00    +0.013 A 
ATOM     11  C   UNL     1      44.203  17.082  22.061  0.00  0.00    +0.061 A 
ATOM     12  C   UNL     1      43.297  17.768  21.278  0.00  0.00    +0.029 A 
ATOM     13  C   UNL     1      43.537  19.088  20.923  0.00  0.00    +0.134 A 
ATOM     14  C   UNL     1      45.468  22.238  20.866  0.00  0.00    +0.049 A 
ATOM     15  C   UNL     1      45.020  23.362  20.183  0.00  0.00    +0.262 A 
ATOM     16  N   UNL     1      42.806  19.995  20.158  0.00  0.00    -0.436 N 
ATOM     17  N   UNL     1      43.884  23.391  19.511  0.00  0.00    -0.433 NA
ATOM     18  C   UNL     1      41.630  19.933  19.498  0.00  0.00    +0.562 A 
ATOM     19  O   UNL     1      40.982  18.902  19.511  0.00  0.00    -0.469 OA
ENDROOT
BRANCH   3   2
ATOM      1  C   UNL     1      38.796  21.570  18.754  0.00  0.00    +0.263 C 
ATOM      2  O   UNL     1      39.941  21.010  18.107  0.00  0.00    -0.285 OA
ENDBRANCH   3   2
TORSDOF 1
ENDMDL
MODEL 3
REMARK VINA RESULT:      -5.4     21.306     22.731
REMARK  Name = ZINC13282986
REMARK  2 active torsions:
REMARK  status: ('A' for Active; 'I' for Inactive)
REMARK    1  A    between atoms: C1_1  and  O1_2
REMARK    2  A    between atoms: O1_2  and  C2_3
REMARK                            x       y       z     vdW  Elec       q    Type
REMARK                         _______ _______ _______ _____ _____    ______ ____
ROOT
ATOM      3  C   UNL     1      51.800  32.243   2.136  0.00  0.00    +0.069 A 
ATOM      4  C   UNL     1      51.040  32.733   3.154  0.00  0.00    +0.024 A 
ATOM      5  C   UNL     1      51.736  33.159   4.374  0.00  0.00    +0.148 A 
ATOM      6  C   UNL     1      53.119  33.030   4.391  0.00  0.00    +0.040 A 
ATOM      7  C   UNL     1      53.890  33.401   5.491  0.00  0.00    -0.025 A 
ATOM      8  C   UNL     1      55.276  33.104   5.094  0.00  0.00    -0.084 A 
ATOM      9  C   UNL     1      56.508  33.243   5.728  0.00  0.00    +0.078 A 
ATOM     10  C   UNL     1      57.664  32.861   5.079  0.00  0.00    +0.013 A 
ATOM     11  C   UNL     1      57.605  32.349   3.794  0.00  0.00    +0.061 A 
ATOM     12  C   UNL     1      56.393  32.206   3.152  0.00  0.00    +0.029 A 
ATOM     13  C   UNL     1      55.216  32.579   3.788  0.00  0.00    +0.134 A 
ATOM     14  C   UNL     1      53.205  33.913   6.586  0.00  0.00    +0.049 A 
ATOM     15  C   UNL     1      51.822  34.019   6.512  0.00  0.00    +0.262 A 
ATOM     16  N   UNL     1      53.885  32.543   3.380  0.00  0.00    -0.436 N 
ATOM     17  N   UNL     1      51.128  33.655   5.448  0.00  0.00    -0.433 NA
ATOM     18  C   UNL     1      53.258  32.145   2.251  0.00  0.00    +0.562 A 
ATOM     19  O   UNL     1      53.910  31.701   1.323  0.00  0.00    -0.469 OA
ENDROOT
BRANCH   3   2
ATOM      1  C   UNL     1      50.715  32.859   0.113  0.00  0.00    +0.263 C 
ATOM      2  O   UNL     1      51.195  31.838   0.989  0.00  0.00    -0.285 OA
ENDBRANCH   3   2
TORSDOF 1
ENDMDL
MODEL 4
REMARK VINA RESULT:      -5.3      6.342      7.419
REMARK  Name = ZINC13282986
REMARK  2 active torsions:
REMARK  status: ('A' for Active; 'I' for Inactive)
REMARK    1  A    between atoms: C1_1  and  O1_2
REMARK    2  A    between atoms: O1_2  and  C2_3
REMARK                            x       y       z     vdW  Elec       q    Type
REMARK                         _______ _______ _______ _____ _____    ______ ____
ROOT
ATOM      3  C   UNL     1      48.160  16.041  18.610  0.00  0.00    +0.069 A 
ATOM      4  C   UNL     1      47.526  16.762  19.577  0.00  0.00    +0.024 A 
ATOM      5  C   UNL     1      47.921  18.165  19.742  0.00  0.00    +0.148 A 
ATOM      6  C   UNL     1      48.912  18.648  18.895  0.00  0.00    +0.040 A 
ATOM      7  C   UNL     1      49.371  19.962  18.955  0.00  0.00    -0.025 A 
ATOM      8  C   UNL     1      50.397  20.050  17.904  0.00  0.00    -0.084 A 
ATOM      9  C   UNL     1      51.224  21.073  17.451  0.00  0.00    +0.078 A 
ATOM     10  C   UNL     1      52.112  20.838  16.421  0.00  0.00    +0.013 A 
ATOM     11  C   UNL     1      52.176  19.589  15.828  0.00  0.00    +0.061 A 
ATOM     12  C   UNL     1      51.363  18.564  16.266  0.00  0.00    +0.029 A 
ATOM     13  C   UNL     1      50.466  18.776  17.303  0.00  0.00    +0.134 A 
ATOM     14  C   UNL     1      48.786  20.781  19.913  0.00  0.00    +0.049 A 
ATOM     15  C   UNL     1      47.801  20.244  20.732  0.00  0.00    +0.262 A 
ATOM     16  N   UNL     1      49.547  17.936  17.929  0.00  0.00    -0.436 N 
ATOM     17  N   UNL     1      47.395  18.990  20.642  0.00  0.00    -0.433 NA
ATOM     18  C   UNL     1      49.196  16.642  17.765  0.00  0.00    +0.562 A 
ATOM     19  O   UNL     1      49.744  15.970  16.911  0.00  0.00    -0.469 OA
ENDROOT
BRANCH   3   2
ATOM      1  C   UNL     1      46.611  14.476  17.714  0.00  0.00    +0.263 C 
ATOM      2  O   UNL     1      47.823  14.738  18.424  0.00  0.00    -0.285 OA
ENDBRANCH   3   2
TORSDOF 1
ENDMDL
MODEL 5
REMARK VINA RESULT:      -5.0      3.778      5.243
REMARK  Name = ZINC13282986
REMARK  2 active torsions:
REMARK  status: ('A' for Active; 'I' for Inactive)
REMARK    1  A    between atoms: C1_1  and  O1_2
REMARK    2  A    between atoms: O1_2  and  C2_3
REMARK                            x       y       z     vdW  Elec       q    Type
REMARK                         _______ _______ _______ _____ _____    ______ ____
ROOT
ATOM      3  C   UNL     1      46.204  15.530  18.605  0.00  0.00    +0.069 A 
ATOM      4  C   UNL     1      45.580  14.982  19.685  0.00  0.00    +0.024 A 
ATOM      5  C   UNL     1      44.912  15.898  20.616  0.00  0.00    +0.148 A 
ATOM      6  C   UNL     1      44.968  17.255  20.320  0.00  0.00    +0.040 A 
ATOM      7  C   UNL     1      44.372  18.221  21.128  0.00  0.00    -0.025 A 
ATOM      8  C   UNL     1      44.665  19.500  20.461  0.00  0.00    -0.084 A 
ATOM      9  C   UNL     1      44.357  20.826  20.749  0.00  0.00    +0.078 A 
ATOM     10  C   UNL     1      44.790  21.832  19.910  0.00  0.00    +0.013 A 
ATOM     11  C   UNL     1      45.521  21.527  18.775  0.00  0.00    +0.061 A 
ATOM     12  C   UNL     1      45.835  20.217  18.476  0.00  0.00    +0.029 A 
ATOM     13  C   UNL     1      45.414  19.189  19.308  0.00  0.00    +0.134 A 
ATOM     14  C   UNL     1      43.710  17.761  22.260  0.00  0.00    +0.049 A 
ATOM     15  C   UNL     1      43.687  16.394  22.505  0.00  0.00    +0.262 A 
ATOM     16  N   UNL     1      45.587  17.808  19.245  0.00  0.00    -0.436 N 
ATOM     17  N   UNL     1      44.266  15.511  21.712  0.00  0.00    -0.433 NA
ATOM     18  C   UNL     1      46.208  16.978  18.379  0.00  0.00    +0.562 A 
ATOM     19  O   UNL     1      46.776  17.437  17.404  0.00  0.00    -0.469 OA
ENDROOT
BRANCH   3   2
ATOM      1  C   UNL     1      46.335  13.383  17.591  0.00  0.00    +0.263 C 
ATOM      2  O   UNL     1      46.834  14.717  17.717  0.00  0.00    -0.285 OA
ENDBRANCH   3   2
TORSDOF 1
ENDMDL
MODEL 6
REMARK VINA RESULT:      -4.9      5.613      6.241
REMARK  Name = ZINC13282986
REMARK  2 active torsions:
REMARK  status: ('A' for Active; 'I' for Inactive)
REMARK    1  A    between atoms: C1_1  and  O1_2
REMARK    2  A    between atoms: O1_2  and  C2_3
REMARK                            x       y       z     vdW  Elec       q    Type
REMARK                         _______ _______ _______ _____ _____    ______ ____
ROOT
ATOM      3  C   UNL     1      46.194  18.255  18.543  0.00  0.00    +0.069 A 
ATOM      4  C   UNL     1      46.414  16.987  18.096  0.00  0.00    +0.024 A 
ATOM      5  C   UNL     1      47.797  16.613  17.778  0.00  0.00    +0.148 A 
ATOM      6  C   UNL     1      48.774  17.584  17.961  0.00  0.00    +0.040 A 
ATOM      7  C   UNL     1      50.121  17.349  17.695  0.00  0.00    -0.025 A 
ATOM      8  C   UNL     1      50.795  18.616  18.019  0.00  0.00    -0.084 A 
ATOM      9  C   UNL     1      52.120  19.039  17.975  0.00  0.00    +0.078 A 
ATOM     10  C   UNL     1      52.446  20.326  18.349  0.00  0.00    +0.013 A 
ATOM     11  C   UNL     1      51.461  21.197  18.780  0.00  0.00    +0.061 A 
ATOM     12  C   UNL     1      50.143  20.794  18.829  0.00  0.00    +0.029 A 
ATOM     13  C   UNL     1      49.791  19.505  18.453  0.00  0.00    +0.134 A 
ATOM     14  C   UNL     1      50.449  16.081  17.230  0.00  0.00    +0.049 A 
ATOM     15  C   UNL     1      49.431  15.150  17.066  0.00  0.00    +0.262 A 
ATOM     16  N   UNL     1      48.562  18.850  18.407  0.00  0.00    -0.436 N 
ATOM     17  N   UNL     1      48.164  15.416  17.331  0.00  0.00    -0.433 NA
ATOM     18  C   UNL     1      47.294  19.210  18.703  0.00  0.00    +0.562 A 
ATOM     19  O   UNL     1      47.064  20.337  19.104  0.00  0.00    -0.469 OA
ENDROOT
BRANCH   3   2
ATOM      1  C   UNL     1      44.320  18.029  19.988  0.00  0.00    +0.263 C 
ATOM      2  O   UNL     1      44.928  18.641  18.849  0.00  0.00    -0.285 OA
ENDBRANCH   3   2
TORSDOF 1
ENDMDL
MODEL 7
REMARK VINA RESULT:      -4.9      8.943     10.008
REMARK  Name = ZINC13282986
REMARK  2 active torsions:
REMARK  status: ('A' for Active; 'I' for Inactive)
REMARK    1  A    between atoms: C1_1  and  O1_2
REMARK    2  A    between atoms: O1_2  and  C2_3
REMARK                            x       y       z     vdW  Elec       q    Type
REMARK                         _______ _______ _______ _____ _____    ______ ____
ROOT
ATOM      3  C   UNL     1      52.600  16.899  21.275  0.00  0.00    +0.069 A 
ATOM      4  C   UNL     1      52.672  17.972  22.112  0.00  0.00    +0.024 A 
ATOM      5  C   UNL     1      52.538  19.305  21.514  0.00  0.00    +0.148 A 
ATOM      6  C   UNL     1      52.346  19.367  20.139  0.00  0.00    +0.040 A 
ATOM      7  C   UNL     1      52.205  20.574  19.458  0.00  0.00    -0.025 A 
ATOM      8  C   UNL     1      52.024  20.190  18.049  0.00  0.00    -0.084 A 
ATOM      9  C   UNL     1      51.831  20.911  16.873  0.00  0.00    +0.078 A 
ATOM     10  C   UNL     1      51.695  20.247  15.672  0.00  0.00    +0.013 A 
ATOM     11  C   UNL     1      51.738  18.864  15.631  0.00  0.00    +0.061 A 
ATOM     12  C   UNL     1      51.929  18.135  16.787  0.00  0.00    +0.029 A 
ATOM     13  C   UNL     1      52.073  18.782  18.006  0.00  0.00    +0.134 A 
ATOM     14  C   UNL     1      52.266  21.731  20.225  0.00  0.00    +0.049 A 
ATOM     15  C   UNL     1      52.461  21.608  21.595  0.00  0.00    +0.262 A 
ATOM     16  N   UNL     1      52.272  18.302  19.299  0.00  0.00    -0.436 N 
ATOM     17  N   UNL     1      52.590  20.442  22.202  0.00  0.00    -0.433 NA
ATOM     18  C   UNL     1      52.395  17.068  19.833  0.00  0.00    +0.562 A 
ATOM     19  O   UNL     1      52.336  16.088  19.112  0.00  0.00    -0.469 OA
ENDROOT
BRANCH   3   2
ATOM      1  C   UNL     1      51.593  15.128  22.501  0.00  0.00    +0.263 C 
ATOM      2  O   UNL     1      52.719  15.646  21.788  0.00  0.00    -0.285 OA
ENDBRANCH   3   2
TORSDOF 1
ENDMDL
MODEL 8
REMARK VINA RESULT:      -4.9      6.449      7.676
REMARK  Name = ZINC13282986
REMARK  2 active torsions:
REMARK  status: ('A' for Active; 'I' for Inactive)
REMARK    1  A    between atoms: C1_1  and  O1_2
REMARK    2  A    between atoms: O1_2  and  C2_3
REMARK                            x       y       z     vdW  Elec       q    Type
REMARK                         _______ _______ _______ _____ _____    ______ ____
ROOT
ATOM      3  C   UNL     1      48.847  17.305  18.150  0.00  0.00    +0.069 A 
ATOM      4  C   UNL     1      49.491  17.462  16.959  0.00  0.00    +0.024 A 
ATOM      5  C   UNL     1      50.546  18.479  16.891  0.00  0.00    +0.148 A 
ATOM      6  C   UNL     1      50.807  19.201  18.050  0.00  0.00    +0.040 A 
ATOM      7  C   UNL     1      51.784  20.192  18.110  0.00  0.00    -0.025 A 
ATOM      8  C   UNL     1      51.730  20.690  19.493  0.00  0.00    -0.084 A 
ATOM      9  C   UNL     1      52.436  21.665  20.193  0.00  0.00    +0.078 A 
ATOM     10  C   UNL     1      52.143  21.911  21.518  0.00  0.00    +0.013 A 
ATOM     11  C   UNL     1      51.155  21.184  22.160  0.00  0.00    +0.061 A 
ATOM     12  C   UNL     1      50.446  20.215  21.481  0.00  0.00    +0.029 A 
ATOM     13  C   UNL     1      50.721  19.953  20.146  0.00  0.00    +0.134 A 
ATOM     14  C   UNL     1      52.498  20.430  16.942  0.00  0.00    +0.049 A 
ATOM     15  C   UNL     1      52.194  19.679  15.813  0.00  0.00    +0.262 A 
ATOM     16  N   UNL     1      50.170  19.049  19.241  0.00  0.00    -0.436 N 
ATOM     17  N   UNL     1      51.258  18.747  15.800  0.00  0.00    -0.433 NA
ATOM     18  C   UNL     1      49.195  18.118  19.319  0.00  0.00    +0.562 A 
ATOM     19  O   UNL     1      48.599  17.953  20.369  0.00  0.00    -0.469 OA
ENDROOT
BRANCH   3   2
ATOM      1  C   UNL     1      46.709  16.553  17.434  0.00  0.00    +0.263 C 
ATOM      2  O   UNL     1      47.864  16.373  18.256  0.00  0.00    -0.285 OA
ENDBRANCH   3   2
TORSDOF 1
ENDMDL
MODEL 9
REMARK VINA RESULT:      -4.8      6.830      7.839
REMARK  Name = ZINC13282986
REMARK  2 active torsions:
REMARK  status: ('A' for Active; 'I' for Inactive)
REMARK    1  A    between atoms: C1_1  and  O1_2
REMARK    2  A    between atoms: O1_2  and  C2_3
REMARK                            x       y       z     vdW  Elec       q    Type
REMARK                         _______ _______ _______ _____ _____    ______ ____
ROOT
ATOM      3  C   UNL     1      49.315  15.108  17.061  0.00  0.00    +0.069 A 
ATOM      4  C   UNL     1      48.008  15.296  17.396  0.00  0.00    +0.024 A 
ATOM      5  C   UNL     1      47.624  16.618  17.904  0.00  0.00    +0.148 A 
ATOM      6  C   UNL     1      48.626  17.575  18.000  0.00  0.00    +0.040 A 
ATOM      7  C   UNL     1      48.384  18.865  18.467  0.00  0.00    -0.025 A 
ATOM      8  C   UNL     1      49.692  19.538  18.406  0.00  0.00    -0.084 A 
ATOM      9  C   UNL     1      50.129  20.820  18.724  0.00  0.00    +0.078 A 
ATOM     10  C   UNL     1      51.456  21.158  18.557  0.00  0.00    +0.013 A 
ATOM     11  C   UNL     1      52.355  20.228  18.062  0.00  0.00    +0.061 A 
ATOM     12  C   UNL     1      51.937  18.953  17.742  0.00  0.00    +0.029 A 
ATOM     13  C   UNL     1      50.608  18.589  17.907  0.00  0.00    +0.134 A 
ATOM     14  C   UNL     1      47.077  19.157  18.837  0.00  0.00    +0.049 A 
ATOM     15  C   UNL     1      46.117  18.160  18.720  0.00  0.00    +0.262 A 
ATOM     16  N   UNL     1      49.931  17.396  17.667  0.00  0.00    -0.436 N 
ATOM     17  N   UNL     1      46.389  16.947  18.272  0.00  0.00    -0.433 NA
ATOM     18  C   UNL     1      50.301  16.183  17.200  0.00  0.00    +0.562 A 
ATOM     19  O   UNL     1      51.462  15.983  16.893  0.00  0.00    -0.469 OA
ENDROOT
BRANCH   3   2
ATOM      1  C   UNL     1      48.875  13.277  15.610  0.00  0.00    +0.263 C 
ATOM      2  O   UNL     1      49.713  13.898  16.587  0.00  0.00    -0.285 OA
ENDBRANCH   3   2
TORSDOF 1
ENDMDL
