MODEL 1
REMARK VINA RESULT:      -6.2      0.000      0.000
REMARK  Name = ZINC95486276
REMARK  8 active torsions:
REMARK  status: ('A' for Active; 'I' for Inactive)
REMARK    1  A    between atoms: C1_1  and  C2_2
REMARK    2  A    between atoms: C2_2  and  C21_26
REMARK    3  A    between atoms: C3_3  and  C4_4
REMARK    4  A    between atoms: C4_4  and  C5_5
REMARK    5  A    between atoms: C6_6  and  O4_25
REMARK    6  A    between atoms: C8_8  and  O3_23
REMARK    7  A    between atoms: C11_12  and  C14_17
REMARK    8  A    between atoms: O3_23  and  C20_24
REMARK                            x       y       z     vdW  Elec       q    Type
REMARK                         _______ _______ _______ _____ _____    ______ ____
ROOT
ATOM      6  C   UNL     1      50.478  17.154  17.931  0.00  0.00    -0.180 A 
ATOM      7  C   UNL     1      51.306  16.102  17.559  0.00  0.00    +0.222 A 
ATOM     10  C   UNL     1      50.772  14.931  17.036  0.00  0.00    -0.137 A 
ATOM     11  C   UNL     1      49.403  14.803  16.879  0.00  0.00    +0.232 A 
ATOM     14  C   UNL     1      48.563  15.863  17.250  0.00  0.00    -0.293 A 
ATOM     15  C   UNL     1      47.109  15.760  17.084  0.00  0.00    +0.402 C 
ATOM     16  O   UNL     1      46.602  14.869  16.433  0.00  0.00    -0.428 OA
ATOM     17  C   UNL     1      46.269  16.817  17.782  0.00  0.00    +0.037 C 
ATOM     18  C   UNL     1      46.997  18.158  17.604  0.00  0.00    +0.233 C 
ATOM     25  O   UNL     1      48.304  18.065  18.172  0.00  0.00    -0.290 OA
ATOM     26  C   UNL     1      49.107  17.044  17.790  0.00  0.00    +0.234 A 
ENDROOT
BRANCH  18  19
ATOM     19  C   UNL     1      46.223  19.248  18.300  0.00  0.00    -0.091 A 
ATOM     20  C   UNL     1      46.895  20.281  18.926  0.00  0.00    +0.038 A 
ATOM     21  C   UNL     1      46.186  21.281  19.564  0.00  0.00    +0.005 A 
ATOM     22  C   UNL     1      44.803  21.247  19.576  0.00  0.00    +0.014 A 
ATOM     23  C   UNL     1      44.132  20.214  18.950  0.00  0.00    +0.009 A 
ATOM     24  C   UNL     1      44.841  19.217  18.308  0.00  0.00    +0.023 A 
ENDBRANCH  18  19
BRANCH   7   8
ATOM      8  O   UNL     1      52.650  16.219  17.706  0.00  0.00    -0.487 OA
ATOM      9  H   UNL     1      53.151  16.032  16.901  0.00  0.00    +0.400 HD
ENDBRANCH   7   8
BRANCH  11  12
ATOM     12  O   UNL     1      48.878  13.661  16.370  0.00  0.00    -0.285 OA
ATOM     13  C   UNL     1      49.601  13.029  15.312  0.00  0.00    +0.249 C 
ENDBRANCH  11  12
BRANCH   6   5
ATOM      5  C   UNL     1      51.077  18.415  18.498  0.00  0.00    +0.133 C 
BRANCH   5   4
ATOM      1  C   UNL     1      50.363  21.143  18.432  0.00  0.00    +0.074 C 
ATOM      2  C   UNL     1      51.176  20.547  17.311  0.00  0.00    -0.133 C 
ATOM      3  C   UNL     1      51.551  21.392  16.121  0.00  0.00    +0.071 C 
ATOM      4  C   UNL     1      51.556  19.294  17.372  0.00  0.00    -0.050 C 
ENDBRANCH   5   4
ENDBRANCH   6   5
TORSDOF 5
ENDMDL
MODEL 2
REMARK VINA RESULT:      -6.0      2.165      5.706
REMARK  Name = ZINC95486276
REMARK  8 active torsions:
REMARK  status: ('A' for Active; 'I' for Inactive)
REMARK    1  A    between atoms: C1_1  and  C2_2
REMARK    2  A    between atoms: C2_2  and  C21_26
REMARK    3  A    between atoms: C3_3  and  C4_4
REMARK    4  A    between atoms: C4_4  and  C5_5
REMARK    5  A    between atoms: C6_6  and  O4_25
REMARK    6  A    between atoms: C8_8  and  O3_23
REMARK    7  A    between atoms: C11_12  and  C14_17
REMARK    8  A    between atoms: O3_23  and  C20_24
REMARK                            x       y       z     vdW  Elec       q    Type
REMARK                         _______ _______ _______ _____ _____    ______ ____
ROOT
ATOM      6  C   UNL     1      45.824  18.769  19.137  0.00  0.00    -0.180 A 
ATOM      7  C   UNL     1      44.749  18.095  19.701  0.00  0.00    +0.222 A 
ATOM     10  C   UNL     1      44.863  16.761  20.071  0.00  0.00    -0.137 A 
ATOM     11  C   UNL     1      46.058  16.089  19.881  0.00  0.00    +0.232 A 
ATOM     14  C   UNL     1      47.149  16.766  19.315  0.00  0.00    -0.293 A 
ATOM     15  C   UNL     1      48.431  16.082  19.112  0.00  0.00    +0.402 C 
ATOM     16  O   UNL     1      48.664  15.002  19.613  0.00  0.00    -0.428 OA
ATOM     17  C   UNL     1      49.445  16.790  18.229  0.00  0.00    +0.037 C 
ATOM     18  C   UNL     1      49.387  18.283  18.587  0.00  0.00    +0.233 C 
ATOM     25  O   UNL     1      48.064  18.771  18.364  0.00  0.00    -0.290 OA
ATOM     26  C   UNL     1      47.025  18.114  18.930  0.00  0.00    +0.234 A 
ENDROOT
BRANCH  18  19
ATOM     19  C   UNL     1      50.357  19.047  17.723  0.00  0.00    -0.091 A 
ATOM     20  C   UNL     1      50.620  20.377  17.988  0.00  0.00    +0.038 A 
ATOM     21  C   UNL     1      51.510  21.077  17.195  0.00  0.00    +0.005 A 
ATOM     22  C   UNL     1      52.137  20.446  16.137  0.00  0.00    +0.014 A 
ATOM     23  C   UNL     1      51.875  19.115  15.872  0.00  0.00    +0.009 A 
ATOM     24  C   UNL     1      50.988  18.414  16.668  0.00  0.00    +0.023 A 
ENDBRANCH  18  19
BRANCH   7   8
ATOM      8  O   UNL     1      43.574  18.746  19.894  0.00  0.00    -0.487 OA
ATOM      9  H   UNL     1      42.986  18.316  20.530  0.00  0.00    +0.400 HD
ENDBRANCH   7   8
BRANCH  11  12
ATOM     12  O   UNL     1      46.173  14.787  20.240  0.00  0.00    -0.285 OA
ATOM     13  C   UNL     1      45.294  13.857  19.603  0.00  0.00    +0.249 C 
ENDBRANCH  11  12
BRANCH   6   5
ATOM      5  C   UNL     1      45.680  20.216  18.741  0.00  0.00    +0.133 C 
BRANCH   5   4
ATOM      1  C   UNL     1      44.074  22.275  19.806  0.00  0.00    +0.074 C 
ATOM      2  C   UNL     1      45.486  22.087  20.297  0.00  0.00    -0.133 C 
ATOM      3  C   UNL     1      46.064  23.043  21.309  0.00  0.00    +0.071 C 
ATOM      4  C   UNL     1      46.211  21.094  19.844  0.00  0.00    -0.050 C 
ENDBRANCH   5   4
ENDBRANCH   6   5
TORSDOF 5
ENDMDL
MODEL 3
REMARK VINA RESULT:      -5.8      1.787      4.791
REMARK  Name = ZINC95486276
REMARK  8 active torsions:
REMARK  status: ('A' for Active; 'I' for Inactive)
REMARK    1  A    between atoms: C1_1  and  C2_2
REMARK    2  A    between atoms: C2_2  and  C21_26
REMARK    3  A    between atoms: C3_3  and  C4_4
REMARK    4  A    between atoms: C4_4  and  C5_5
REMARK    5  A    between atoms: C6_6  and  O4_25
REMARK    6  A    between atoms: C8_8  and  O3_23
REMARK    7  A    between atoms: C11_12  and  C14_17
REMARK    8  A    between atoms: O3_23  and  C20_24
REMARK                            x       y       z     vdW  Elec       q    Type
REMARK                         _______ _______ _______ _____ _____    ______ ____
ROOT
ATOM      6  C   UNL     1      47.720  17.082  17.734  0.00  0.00    -0.180 A 
ATOM      7  C   UNL     1      48.541  16.109  17.180  0.00  0.00    +0.222 A 
ATOM     10  C   UNL     1      49.921  16.268  17.169  0.00  0.00    -0.137 A 
ATOM     11  C   UNL     1      50.492  17.405  17.714  0.00  0.00    +0.232 A 
ATOM     14  C   UNL     1      49.667  18.390  18.278  0.00  0.00    -0.293 A 
ATOM     15  C   UNL     1      50.246  19.599  18.874  0.00  0.00    +0.402 C 
ATOM     16  O   UNL     1      51.435  19.694  19.098  0.00  0.00    -0.428 OA
ATOM     17  C   UNL     1      49.280  20.732  19.182  0.00  0.00    +0.037 C 
ATOM     18  C   UNL     1      48.007  20.093  19.755  0.00  0.00    +0.233 C 
ATOM     25  O   UNL     1      47.462  19.184  18.799  0.00  0.00    -0.290 OA
ATOM     26  C   UNL     1      48.269  18.230  18.277  0.00  0.00    +0.234 A 
ENDROOT
BRANCH  18  19
ATOM     19  C   UNL     1      46.996  21.169  20.059  0.00  0.00    -0.091 A 
ATOM     20  C   UNL     1      45.919  21.363  19.215  0.00  0.00    +0.038 A 
ATOM     21  C   UNL     1      44.992  22.350  19.492  0.00  0.00    +0.005 A 
ATOM     22  C   UNL     1      45.142  23.142  20.616  0.00  0.00    +0.014 A 
ATOM     23  C   UNL     1      46.218  22.947  21.460  0.00  0.00    +0.009 A 
ATOM     24  C   UNL     1      47.143  21.957  21.185  0.00  0.00    +0.023 A 
ENDBRANCH  18  19
BRANCH   7   8
ATOM      8  O   UNL     1      47.990  14.989  16.646  0.00  0.00    -0.487 OA
ATOM      9  H   UNL     1      48.584  14.226  16.635  0.00  0.00    +0.400 HD
ENDBRANCH   7   8
BRANCH  11  12
ATOM     12  O   UNL     1      51.838  17.564  17.704  0.00  0.00    -0.285 OA
ATOM     13  C   UNL     1      52.618  16.544  18.332  0.00  0.00    +0.249 C 
ENDBRANCH  11  12
BRANCH   6   5
ATOM      5  C   UNL     1      46.225  16.892  17.735  0.00  0.00    +0.133 C 
BRANCH   5   4
ATOM      1  C   UNL     1      44.508  17.966  19.697  0.00  0.00    +0.074 C 
ATOM      2  C   UNL     1      45.074  16.580  19.866  0.00  0.00    -0.133 C 
ATOM      3  C   UNL     1      44.778  15.792  21.117  0.00  0.00    +0.071 C 
ATOM      4  C   UNL     1      45.825  16.060  18.926  0.00  0.00    -0.050 C 
ENDBRANCH   5   4
ENDBRANCH   6   5
TORSDOF 5
ENDMDL
MODEL 4
REMARK VINA RESULT:      -5.6      2.163      5.559
REMARK  Name = ZINC95486276
REMARK  8 active torsions:
REMARK  status: ('A' for Active; 'I' for Inactive)
REMARK    1  A    between atoms: C1_1  and  C2_2
REMARK    2  A    between atoms: C2_2  and  C21_26
REMARK    3  A    between atoms: C3_3  and  C4_4
REMARK    4  A    between atoms: C4_4  and  C5_5
REMARK    5  A    between atoms: C6_6  and  O4_25
REMARK    6  A    between atoms: C8_8  and  O3_23
REMARK    7  A    between atoms: C11_12  and  C14_17
REMARK    8  A    between atoms: O3_23  and  C20_24
REMARK                            x       y       z     vdW  Elec       q    Type
REMARK                         _______ _______ _______ _____ _____    ______ ____
ROOT
ATOM      6  C   UNL     1      47.351  17.651  17.917  0.00  0.00    -0.180 A 
ATOM      7  C   UNL     1      48.721  17.547  17.713  0.00  0.00    +0.222 A 
ATOM     10  C   UNL     1      49.590  18.496  18.236  0.00  0.00    -0.137 A 
ATOM     11  C   UNL     1      49.094  19.558  18.972  0.00  0.00    +0.232 A 
ATOM     14  C   UNL     1      47.712  19.666  19.185  0.00  0.00    -0.293 A 
ATOM     15  C   UNL     1      47.160  20.775  19.971  0.00  0.00    +0.402 C 
ATOM     16  O   UNL     1      47.869  21.500  20.637  0.00  0.00    -0.428 OA
ATOM     17  C   UNL     1      45.655  20.977  19.895  0.00  0.00    +0.037 C 
ATOM     18  C   UNL     1      45.013  19.583  19.926  0.00  0.00    +0.233 C 
ATOM     25  O   UNL     1      45.496  18.815  18.823  0.00  0.00    -0.290 OA
ATOM     26  C   UNL     1      46.834  18.709  18.643  0.00  0.00    +0.234 A 
ENDROOT
BRANCH  18  19
ATOM     19  C   UNL     1      43.515  19.716  19.827  0.00  0.00    -0.091 A 
ATOM     20  C   UNL     1      42.954  20.506  18.842  0.00  0.00    +0.038 A 
ATOM     21  C   UNL     1      41.581  20.628  18.751  0.00  0.00    +0.005 A 
ATOM     22  C   UNL     1      40.767  19.958  19.647  0.00  0.00    +0.014 A 
ATOM     23  C   UNL     1      41.328  19.167  20.631  0.00  0.00    +0.009 A 
ATOM     24  C   UNL     1      42.702  19.042  20.719  0.00  0.00    +0.023 A 
ENDBRANCH  18  19
BRANCH   7   8
ATOM      8  O   UNL     1      49.216  16.507  16.995  0.00  0.00    -0.487 OA
ATOM      9  H   UNL     1      48.808  15.656  17.203  0.00  0.00    +0.400 HD
ENDBRANCH   7   8
BRANCH  11  12
ATOM     12  O   UNL     1      49.939  20.486  19.484  0.00  0.00    -0.285 OA
ATOM     13  C   UNL     1      50.896  21.059  18.589  0.00  0.00    +0.249 C 
ENDBRANCH  11  12
BRANCH   6   5
ATOM      5  C   UNL     1      46.425  16.612  17.340  0.00  0.00    +0.133 C 
BRANCH   5   4
ATOM      1  C   UNL     1      46.790  13.897  16.671  0.00  0.00    +0.074 C 
ATOM      2  C   UNL     1      46.282  14.277  18.037  0.00  0.00    -0.133 C 
ATOM      3  C   UNL     1      45.904  13.203  19.025  0.00  0.00    +0.071 C 
ATOM      4  C   UNL     1      46.168  15.540  18.367  0.00  0.00    -0.050 C 
ENDBRANCH   5   4
ENDBRANCH   6   5
TORSDOF 5
ENDMDL
MODEL 5
REMARK VINA RESULT:      -5.6      2.581      4.777
REMARK  Name = ZINC95486276
REMARK  8 active torsions:
REMARK  status: ('A' for Active; 'I' for Inactive)
REMARK    1  A    between atoms: C1_1  and  C2_2
REMARK    2  A    between atoms: C2_2  and  C21_26
REMARK    3  A    between atoms: C3_3  and  C4_4
REMARK    4  A    between atoms: C4_4  and  C5_5
REMARK    5  A    between atoms: C6_6  and  O4_25
REMARK    6  A    between atoms: C8_8  and  O3_23
REMARK    7  A    between atoms: C11_12  and  C14_17
REMARK    8  A    between atoms: O3_23  and  C20_24
REMARK                            x       y       z     vdW  Elec       q    Type
REMARK                         _______ _______ _______ _____ _____    ______ ____
ROOT
ATOM      6  C   UNL     1      48.251  20.172  20.644  0.00  0.00    -0.180 A 
ATOM      7  C   UNL     1      49.596  20.145  20.301  0.00  0.00    +0.222 A 
ATOM     10  C   UNL     1      50.035  19.403  19.211  0.00  0.00    -0.137 A 
ATOM     11  C   UNL     1      49.129  18.681  18.455  0.00  0.00    +0.232 A 
ATOM     14  C   UNL     1      47.768  18.707  18.795  0.00  0.00    -0.293 A 
ATOM     15  C   UNL     1      46.784  17.961  18.003  0.00  0.00    +0.402 C 
ATOM     16  O   UNL     1      47.064  17.484  16.923  0.00  0.00    -0.428 OA
ATOM     17  C   UNL     1      45.401  17.804  18.614  0.00  0.00    +0.037 C 
ATOM     18  C   UNL     1      45.044  19.147  19.267  0.00  0.00    +0.233 C 
ATOM     25  O   UNL     1      46.022  19.466  20.257  0.00  0.00    -0.290 OA
ATOM     26  C   UNL     1      47.329  19.451  19.906  0.00  0.00    +0.234 A 
ENDROOT
BRANCH  18  19
ATOM     19  C   UNL     1      43.687  19.047  19.916  0.00  0.00    -0.091 A 
ATOM     20  C   UNL     1      42.597  19.670  19.339  0.00  0.00    +0.038 A 
ATOM     21  C   UNL     1      41.353  19.578  19.933  0.00  0.00    +0.005 A 
ATOM     22  C   UNL     1      41.199  18.862  21.106  0.00  0.00    +0.014 A 
ATOM     23  C   UNL     1      42.289  18.238  21.683  0.00  0.00    +0.009 A 
ATOM     24  C   UNL     1      43.532  18.326  21.085  0.00  0.00    +0.023 A 
ENDBRANCH  18  19
BRANCH   7   8
ATOM      8  O   UNL     1      50.492  20.852  21.036  0.00  0.00    -0.487 OA
ATOM      9  H   UNL     1      50.165  21.115  21.907  0.00  0.00    +0.400 HD
ENDBRANCH   7   8
BRANCH  11  12
ATOM     12  O   UNL     1      49.554  17.955  17.391  0.00  0.00    -0.285 OA
ATOM     13  C   UNL     1      50.771  18.368  16.767  0.00  0.00    +0.249 C 
ENDBRANCH  11  12
BRANCH   6   5
ATOM      5  C   UNL     1      47.794  20.982  21.830  0.00  0.00    +0.133 C 
BRANCH   5   4
ATOM      1  C   UNL     1      45.176  21.838  22.430  0.00  0.00    +0.074 C 
ATOM      2  C   UNL     1      46.080  22.704  21.592  0.00  0.00    -0.133 C 
ATOM      3  C   UNL     1      45.563  23.998  21.017  0.00  0.00    +0.071 C 
ATOM      4  C   UNL     1      47.316  22.332  21.363  0.00  0.00    -0.050 C 
ENDBRANCH   5   4
ENDBRANCH   6   5
TORSDOF 5
ENDMDL
MODEL 6
REMARK VINA RESULT:      -5.5      1.641      5.091
REMARK  Name = ZINC95486276
REMARK  8 active torsions:
REMARK  status: ('A' for Active; 'I' for Inactive)
REMARK    1  A    between atoms: C1_1  and  C2_2
REMARK    2  A    between atoms: C2_2  and  C21_26
REMARK    3  A    between atoms: C3_3  and  C4_4
REMARK    4  A    between atoms: C4_4  and  C5_5
REMARK    5  A    between atoms: C6_6  and  O4_25
REMARK    6  A    between atoms: C8_8  and  O3_23
REMARK    7  A    between atoms: C11_12  and  C14_17
REMARK    8  A    between atoms: O3_23  and  C20_24
REMARK                            x       y       z     vdW  Elec       q    Type
REMARK                         _______ _______ _______ _____ _____    ______ ____
ROOT
ATOM      6  C   UNL     1      47.574  15.080  16.974  0.00  0.00    -0.180 A 
ATOM      7  C   UNL     1      47.182  13.748  16.945  0.00  0.00    +0.222 A 
ATOM     10  C   UNL     1      48.121  12.730  17.060  0.00  0.00    -0.137 A 
ATOM     11  C   UNL     1      49.462  13.037  17.207  0.00  0.00    +0.232 A 
ATOM     14  C   UNL     1      49.863  14.381  17.241  0.00  0.00    -0.293 A 
ATOM     15  C   UNL     1      51.277  14.736  17.408  0.00  0.00    +0.402 C 
ATOM     16  O   UNL     1      52.107  13.913  17.737  0.00  0.00    -0.428 OA
ATOM     17  C   UNL     1      51.650  16.183  17.133  0.00  0.00    +0.037 C 
ATOM     18  C   UNL     1      50.535  17.055  17.728  0.00  0.00    +0.233 C 
ATOM     25  O   UNL     1      49.289  16.709  17.122  0.00  0.00    -0.290 OA
ATOM     26  C   UNL     1      48.911  15.409  17.113  0.00  0.00    +0.234 A 
ENDROOT
BRANCH  18  19
ATOM     19  C   UNL     1      50.835  18.508  17.464  0.00  0.00    -0.091 A 
ATOM     20  C   UNL     1      50.331  19.482  18.304  0.00  0.00    +0.038 A 
ATOM     21  C   UNL     1      50.606  20.815  18.061  0.00  0.00    +0.005 A 
ATOM     22  C   UNL     1      51.388  21.173  16.978  0.00  0.00    +0.014 A 
ATOM     23  C   UNL     1      51.893  20.198  16.139  0.00  0.00    +0.009 A 
ATOM     24  C   UNL     1      51.621  18.865  16.384  0.00  0.00    +0.023 A 
ENDBRANCH  18  19
BRANCH   7   8
ATOM      8  O   UNL     1      45.869  13.437  16.804  0.00  0.00    -0.487 OA
ATOM      9  H   UNL     1      45.615  12.603  17.224  0.00  0.00    +0.400 HD
ENDBRANCH   7   8
BRANCH  11  12
ATOM     12  O   UNL     1      50.380  12.046  17.319  0.00  0.00    -0.285 OA
ATOM     13  C   UNL     1      50.080  10.980  18.223  0.00  0.00    +0.249 C 
ENDBRANCH  11  12
BRANCH   6   5
ATOM      5  C   UNL     1      46.542  16.170  16.847  0.00  0.00    +0.133 C 
BRANCH   5   4
ATOM      1  C   UNL     1      46.480  18.803  17.852  0.00  0.00    +0.074 C 
ATOM      2  C   UNL     1      45.960  17.663  18.689  0.00  0.00    -0.133 C 
ATOM      3  C   UNL     1      45.468  17.920  20.090  0.00  0.00    +0.071 C 
ATOM      4  C   UNL     1      45.935  16.448  18.198  0.00  0.00    -0.050 C 
ENDBRANCH   5   4
ENDBRANCH   6   5
TORSDOF 5
ENDMDL
MODEL 7
REMARK VINA RESULT:      -5.5      2.291      6.768
REMARK  Name = ZINC95486276
REMARK  8 active torsions:
REMARK  status: ('A' for Active; 'I' for Inactive)
REMARK    1  A    between atoms: C1_1  and  C2_2
REMARK    2  A    between atoms: C2_2  and  C21_26
REMARK    3  A    between atoms: C3_3  and  C4_4
REMARK    4  A    between atoms: C4_4  and  C5_5
REMARK    5  A    between atoms: C6_6  and  O4_25
REMARK    6  A    between atoms: C8_8  and  O3_23
REMARK    7  A    between atoms: C11_12  and  C14_17
REMARK    8  A    between atoms: O3_23  and  C20_24
REMARK                            x       y       z     vdW  Elec       q    Type
REMARK                         _______ _______ _______ _____ _____    ______ ____
ROOT
ATOM      6  C   UNL     1      45.818  19.605  18.624  0.00  0.00    -0.180 A 
ATOM      7  C   UNL     1      46.270  20.897  18.854  0.00  0.00    +0.222 A 
ATOM     10  C   UNL     1      47.617  21.147  19.086  0.00  0.00    -0.137 A 
ATOM     11  C   UNL     1      48.524  20.102  19.089  0.00  0.00    +0.232 A 
ATOM     14  C   UNL     1      48.074  18.794  18.854  0.00  0.00    -0.293 A 
ATOM     15  C   UNL     1      49.015  17.669  18.839  0.00  0.00    +0.402 C 
ATOM     16  O   UNL     1      50.216  17.842  18.809  0.00  0.00    -0.428 OA
ATOM     17  C   UNL     1      48.408  16.276  18.879  0.00  0.00    +0.037 C 
ATOM     18  C   UNL     1      47.178  16.297  17.960  0.00  0.00    +0.233 C 
ATOM     25  O   UNL     1      46.257  17.284  18.424  0.00  0.00    -0.290 OA
ATOM     26  C   UNL     1      46.707  18.545  18.631  0.00  0.00    +0.234 A 
ENDROOT
BRANCH  18  19
ATOM     19  C   UNL     1      46.514  14.943  17.977  0.00  0.00    -0.091 A 
ATOM     20  C   UNL     1      46.717  14.060  16.934  0.00  0.00    +0.038 A 
ATOM     21  C   UNL     1      46.108  12.820  16.950  0.00  0.00    +0.005 A 
ATOM     22  C   UNL     1      45.295  12.462  18.010  0.00  0.00    +0.014 A 
ATOM     23  C   UNL     1      45.093  13.346  19.053  0.00  0.00    +0.009 A 
ATOM     24  C   UNL     1      45.705  14.585  19.040  0.00  0.00    +0.023 A 
ENDBRANCH  18  19
BRANCH   7   8
ATOM      8  O   UNL     1      45.388  21.929  18.850  0.00  0.00    -0.487 OA
ATOM      9  H   UNL     1      45.212  22.293  17.972  0.00  0.00    +0.400 HD
ENDBRANCH   7   8
BRANCH  11  12
ATOM     12  O   UNL     1      49.839  20.341  19.315  0.00  0.00    -0.285 OA
ATOM     13  C   UNL     1      50.534  21.128  18.345  0.00  0.00    +0.249 C 
ENDBRANCH  11  12
BRANCH   6   5
ATOM      5  C   UNL     1      44.352  19.355  18.376  0.00  0.00    +0.133 C 
BRANCH   5   4
ATOM      1  C   UNL     1      41.675  20.064  18.906  0.00  0.00    +0.074 C 
ATOM      2  C   UNL     1      42.469  19.291  19.928  0.00  0.00    -0.133 C 
ATOM      3  C   UNL     1      41.853  18.955  21.262  0.00  0.00    +0.071 C 
ATOM      4  C   UNL     1      43.693  18.912  19.656  0.00  0.00    -0.050 C 
ENDBRANCH   5   4
ENDBRANCH   6   5
TORSDOF 5
ENDMDL
MODEL 8
REMARK VINA RESULT:      -5.4      3.387      6.910
REMARK  Name = ZINC95486276
REMARK  8 active torsions:
REMARK  status: ('A' for Active; 'I' for Inactive)
REMARK    1  A    between atoms: C1_1  and  C2_2
REMARK    2  A    between atoms: C2_2  and  C21_26
REMARK    3  A    between atoms: C3_3  and  C4_4
REMARK    4  A    between atoms: C4_4  and  C5_5
REMARK    5  A    between atoms: C6_6  and  O4_25
REMARK    6  A    between atoms: C8_8  and  O3_23
REMARK    7  A    between atoms: C11_12  and  C14_17
REMARK    8  A    between atoms: O3_23  and  C20_24
REMARK                            x       y       z     vdW  Elec       q    Type
REMARK                         _______ _______ _______ _____ _____    ______ ____
ROOT
ATOM      6  C   UNL     1      46.627  21.435  21.092  0.00  0.00    -0.180 A 
ATOM      7  C   UNL     1      46.381  22.763  21.413  0.00  0.00    +0.222 A 
ATOM     10  C   UNL     1      45.228  23.398  20.970  0.00  0.00    -0.137 A 
ATOM     11  C   UNL     1      44.308  22.707  20.200  0.00  0.00    +0.232 A 
ATOM     14  C   UNL     1      44.550  21.364  19.875  0.00  0.00    -0.293 A 
ATOM     15  C   UNL     1      43.587  20.603  19.071  0.00  0.00    +0.402 C 
ATOM     16  O   UNL     1      42.470  21.023  18.847  0.00  0.00    -0.428 OA
ATOM     17  C   UNL     1      44.066  19.270  18.521  0.00  0.00    +0.037 C 
ATOM     18  C   UNL     1      44.885  18.594  19.631  0.00  0.00    +0.233 C 
ATOM     25  O   UNL     1      45.979  19.438  19.992  0.00  0.00    -0.290 OA
ATOM     26  C   UNL     1      45.725  20.727  20.317  0.00  0.00    +0.234 A 
ENDROOT
BRANCH  18  19
ATOM     19  C   UNL     1      45.412  17.272  19.136  0.00  0.00    -0.091 A 
ATOM     20  C   UNL     1      46.110  17.209  17.945  0.00  0.00    +0.038 A 
ATOM     21  C   UNL     1      46.593  15.996  17.490  0.00  0.00    +0.005 A 
ATOM     22  C   UNL     1      46.378  14.847  18.228  0.00  0.00    +0.014 A 
ATOM     23  C   UNL     1      45.681  14.910  19.419  0.00  0.00    +0.009 A 
ATOM     24  C   UNL     1      45.201  16.124  19.876  0.00  0.00    +0.023 A 
ENDBRANCH  18  19
BRANCH   7   8
ATOM      8  O   UNL     1      47.275  23.448  22.170  0.00  0.00    -0.487 OA
ATOM      9  H   UNL     1      47.364  23.114  23.073  0.00  0.00    +0.400 HD
ENDBRANCH   7   8
BRANCH  11  12
ATOM     12  O   UNL     1      43.182  23.323  19.765  0.00  0.00    -0.285 OA
ATOM     13  C   UNL     1      43.344  24.367  18.802  0.00  0.00    +0.249 C 
ENDBRANCH  11  12
BRANCH   6   5
ATOM      5  C   UNL     1      47.884  20.764  21.582  0.00  0.00    +0.133 C 
BRANCH   5   4
ATOM      1  C   UNL     1      49.115  18.544  20.354  0.00  0.00    +0.074 C 
ATOM      2  C   UNL     1      49.600  19.938  20.053  0.00  0.00    -0.133 C 
ATOM      3  C   UNL     1      50.787  20.144  19.147  0.00  0.00    +0.071 C 
ATOM      4  C   UNL     1      48.989  20.972  20.579  0.00  0.00    -0.050 C 
ENDBRANCH   5   4
ENDBRANCH   6   5
TORSDOF 5
ENDMDL
MODEL 9
REMARK VINA RESULT:      -5.4      2.730      6.622
REMARK  Name = ZINC95486276
REMARK  8 active torsions:
REMARK  status: ('A' for Active; 'I' for Inactive)
REMARK    1  A    between atoms: C1_1  and  C2_2
REMARK    2  A    between atoms: C2_2  and  C21_26
REMARK    3  A    between atoms: C3_3  and  C4_4
REMARK    4  A    between atoms: C4_4  and  C5_5
REMARK    5  A    between atoms: C6_6  and  O4_25
REMARK    6  A    between atoms: C8_8  and  O3_23
REMARK    7  A    between atoms: C11_12  and  C14_17
REMARK    8  A    between atoms: O3_23  and  C20_24
REMARK                            x       y       z     vdW  Elec       q    Type
REMARK                         _______ _______ _______ _____ _____    ______ ____
ROOT
ATOM      6  C   UNL     1      46.308  17.226  19.983  0.00  0.00    -0.180 A 
ATOM      7  C   UNL     1      45.007  16.773  20.160  0.00  0.00    +0.222 A 
ATOM     10  C   UNL     1      43.964  17.669  20.354  0.00  0.00    -0.137 A 
ATOM     11  C   UNL     1      44.214  19.030  20.372  0.00  0.00    +0.232 A 
ATOM     14  C   UNL     1      45.525  19.494  20.190  0.00  0.00    -0.293 A 
ATOM     15  C   UNL     1      45.817  20.932  20.193  0.00  0.00    +0.402 C 
ATOM     16  O   UNL     1      44.935  21.763  20.132  0.00  0.00    -0.428 OA
ATOM     17  C   UNL     1      47.282  21.326  20.292  0.00  0.00    +0.037 C 
ATOM     18  C   UNL     1      48.069  20.355  19.400  0.00  0.00    +0.233 C 
ATOM     25  O   UNL     1      47.853  19.018  19.851  0.00  0.00    -0.290 OA
ATOM     26  C   UNL     1      46.581  18.582  20.005  0.00  0.00    +0.234 A 
ENDROOT
BRANCH  18  19
ATOM     19  C   UNL     1      49.539  20.680  19.476  0.00  0.00    -0.091 A 
ATOM     20  C   UNL     1      50.258  20.906  18.318  0.00  0.00    +0.038 A 
ATOM     21  C   UNL     1      51.606  21.203  18.388  0.00  0.00    +0.005 A 
ATOM     22  C   UNL     1      52.235  21.275  19.617  0.00  0.00    +0.014 A 
ATOM     23  C   UNL     1      51.515  21.050  20.776  0.00  0.00    +0.009 A 
ATOM     24  C   UNL     1      50.166  20.757  20.706  0.00  0.00    +0.023 A 
ENDBRANCH  18  19
BRANCH   7   8
ATOM      8  O   UNL     1      44.752  15.440  20.141  0.00  0.00    -0.487 OA
ATOM      9  H   UNL     1      44.808  15.016  21.008  0.00  0.00    +0.400 HD
ENDBRANCH   7   8
BRANCH  11  12
ATOM     12  O   UNL     1      43.198  19.908  20.563  0.00  0.00    -0.285 OA
ATOM     13  C   UNL     1      41.963  19.626  19.901  0.00  0.00    +0.249 C 
ENDBRANCH  11  12
BRANCH   6   5
ATOM      5  C   UNL     1      47.426  16.238  19.774  0.00  0.00    +0.133 C 
BRANCH   5   4
ATOM      1  C   UNL     1      47.434  13.525  19.004  0.00  0.00    +0.074 C 
ATOM      2  C   UNL     1      47.567  14.607  17.963  0.00  0.00    -0.133 C 
ATOM      3  C   UNL     1      47.773  14.239  16.516  0.00  0.00    +0.071 C 
ATOM      4  C   UNL     1      47.504  15.868  18.316  0.00  0.00    -0.050 C 
ENDBRANCH   5   4
ENDBRANCH   6   5
TORSDOF 5
ENDMDL
