MODEL 1
REMARK VINA RESULT:      -6.2      0.000      0.000
REMARK  Name = ZINC14763066
REMARK  8 active torsions:
REMARK  status: ('A' for Active; 'I' for Inactive)
REMARK    1  A    between atoms: C1_1  and  C2_2
REMARK    2  A    between atoms: C2_2  and  C18_24
REMARK    3  A    between atoms: C3_3  and  C4_4
REMARK    4  A    between atoms: C4_4  and  C5_5
REMARK    5  A    between atoms: C6_6  and  O6_23
REMARK    6  A    between atoms: C10_10  and  O1_11
REMARK    7  A    between atoms: C14_16  and  O5_22
REMARK    8  A    between atoms: C15_17  and  O4_21
REMARK                            x       y       z     vdW  Elec       q    Type
REMARK                         _______ _______ _______ _____ _____    ______ ____
ROOT
ATOM      6  C   UNL     1      46.478  14.051  17.728  0.00  0.00    -0.162 A 
ATOM      7  C   UNL     1      47.008  14.768  16.661  0.00  0.00    +0.198 A 
ATOM     10  C   UNL     1      46.903  16.149  16.616  0.00  0.00    -0.031 A 
ATOM     11  C   UNL     1      46.265  16.836  17.639  0.00  0.00    +0.194 A 
ATOM     12  C   UNL     1      45.729  16.112  18.718  0.00  0.00    -0.268 A 
ATOM     13  C   UNL     1      45.053  16.848  19.800  0.00  0.00    +0.440 A 
ATOM     14  C   UNL     1      44.995  18.316  19.672  0.00  0.00    -0.221 A 
ATOM     15  C   UNL     1      44.368  19.094  20.648  0.00  0.00    +0.118 A 
ATOM     16  C   UNL     1      44.319  20.465  20.504  0.00  0.00    +0.051 A 
ATOM     19  C   UNL     1      44.890  21.069  19.381  0.00  0.00    +0.154 A 
ATOM     22  C   UNL     1      45.507  20.302  18.408  0.00  0.00    -0.004 A 
ATOM     23  C   UNL     1      45.564  18.921  18.540  0.00  0.00    +0.174 A 
ATOM     24  O   UNL     1      44.572  16.271  20.759  0.00  0.00    -0.431 OA
ATOM     25  O   UNL     1      46.168  18.180  17.587  0.00  0.00    -0.225 OA
ATOM     26  C   UNL     1      45.838  14.716  18.759  0.00  0.00    +0.225 A 
ENDROOT
BRANCH   7   8
ATOM      8  O   UNL     1      47.634  14.108  15.654  0.00  0.00    -0.483 OA
ATOM      9  H   UNL     1      47.090  13.990  14.863  0.00  0.00    +0.402 HD
ENDBRANCH   7   8
BRANCH  16  17
ATOM     17  O   UNL     1      43.714  21.228  21.454  0.00  0.00    -0.479 OA
ATOM     18  H   UNL     1      42.778  21.022  21.586  0.00  0.00    +0.391 HD
ENDBRANCH  16  17
BRANCH  19  20
ATOM     20  O   UNL     1      44.840  22.419  19.244  0.00  0.00    -0.479 OA
ATOM     21  H   UNL     1      45.684  22.821  18.999  0.00  0.00    +0.399 HD
ENDBRANCH  19  20
BRANCH  26  27
ATOM     27  O   UNL     1      45.320  14.020  19.802  0.00  0.00    -0.468 OA
ATOM     28  H   UNL     1      45.337  14.498  20.641  0.00  0.00    +0.400 HD
ENDBRANCH  26  27
BRANCH   6   5
ATOM      5  C   UNL     1      46.600  12.549  17.762  0.00  0.00    +0.137 C 
BRANCH   5   4
ATOM      1  C   UNL     1      47.252  10.639  15.793  0.00  0.00    +0.077 C 
ATOM      2  C   UNL     1      45.811  11.004  16.043  0.00  0.00    -0.122 C 
ATOM      3  C   UNL     1      44.712  10.297  15.293  0.00  0.00    +0.074 C 
ATOM      4  C   UNL     1      45.515  11.938  16.915  0.00  0.00    -0.063 C 
ENDBRANCH   5   4
ENDBRANCH   6   5
TORSDOF 6
ENDMDL
MODEL 2
REMARK VINA RESULT:      -6.1      4.493      7.364
REMARK  Name = ZINC14763066
REMARK  8 active torsions:
REMARK  status: ('A' for Active; 'I' for Inactive)
REMARK    1  A    between atoms: C1_1  and  C2_2
REMARK    2  A    between atoms: C2_2  and  C18_24
REMARK    3  A    between atoms: C3_3  and  C4_4
REMARK    4  A    between atoms: C4_4  and  C5_5
REMARK    5  A    between atoms: C6_6  and  O6_23
REMARK    6  A    between atoms: C10_10  and  O1_11
REMARK    7  A    between atoms: C14_16  and  O5_22
REMARK    8  A    between atoms: C15_17  and  O4_21
REMARK                            x       y       z     vdW  Elec       q    Type
REMARK                         _______ _______ _______ _____ _____    ______ ____
ROOT
ATOM      6  C   UNL     1      44.671  19.487  20.218  0.00  0.00    -0.162 A 
ATOM      7  C   UNL     1      44.987  20.646  20.918  0.00  0.00    +0.198 A 
ATOM     10  C   UNL     1      46.267  21.176  20.868  0.00  0.00    -0.031 A 
ATOM     11  C   UNL     1      47.251  20.554  20.115  0.00  0.00    +0.194 A 
ATOM     12  C   UNL     1      46.934  19.382  19.406  0.00  0.00    -0.268 A 
ATOM     13  C   UNL     1      47.984  18.727  18.609  0.00  0.00    +0.440 A 
ATOM     14  C   UNL     1      49.315  19.365  18.607  0.00  0.00    -0.221 A 
ATOM     15  C   UNL     1      50.372  18.810  17.884  0.00  0.00    +0.118 A 
ATOM     16  C   UNL     1      51.609  19.419  17.903  0.00  0.00    +0.051 A 
ATOM     19  C   UNL     1      51.801  20.585  18.650  0.00  0.00    +0.154 A 
ATOM     22  C   UNL     1      50.758  21.136  19.373  0.00  0.00    -0.004 A 
ATOM     23  C   UNL     1      49.507  20.533  19.363  0.00  0.00    +0.174 A 
ATOM     24  O   UNL     1      47.763  17.711  17.975  0.00  0.00    -0.431 OA
ATOM     25  O   UNL     1      48.494  21.076  20.071  0.00  0.00    -0.225 OA
ATOM     26  C   UNL     1      45.638  18.851  19.460  0.00  0.00    +0.225 A 
ENDROOT
BRANCH   7   8
ATOM      8  O   UNL     1      44.032  21.263  21.659  0.00  0.00    -0.483 OA
ATOM      9  H   UNL     1      43.359  20.665  22.012  0.00  0.00    +0.402 HD
ENDBRANCH   7   8
BRANCH  16  17
ATOM     17  O   UNL     1      52.642  18.886  17.197  0.00  0.00    -0.479 OA
ATOM     18  H   UNL     1      52.634  17.920  17.159  0.00  0.00    +0.391 HD
ENDBRANCH  16  17
BRANCH  19  20
ATOM     20  O   UNL     1      53.020  21.182  18.665  0.00  0.00    -0.479 OA
ATOM     21  H   UNL     1      53.704  20.693  18.187  0.00  0.00    +0.399 HD
ENDBRANCH  19  20
BRANCH  26  27
ATOM     27  O   UNL     1      45.334  17.720  18.775  0.00  0.00    -0.468 OA
ATOM     28  H   UNL     1      44.386  17.538  18.718  0.00  0.00    +0.400 HD
ENDBRANCH  26  27
BRANCH   6   5
ATOM      5  C   UNL     1      43.275  18.923  20.283  0.00  0.00    +0.137 C 
BRANCH   5   4
ATOM      1  C   UNL     1      40.598  19.327  21.075  0.00  0.00    +0.077 C 
ATOM      2  C   UNL     1      41.129  20.000  19.836  0.00  0.00    -0.122 C 
ATOM      3  C   UNL     1      40.252  20.947  19.057  0.00  0.00    +0.074 C 
ATOM      4  C   UNL     1      42.354  19.762  19.435  0.00  0.00    -0.063 C 
ENDBRANCH   5   4
ENDBRANCH   6   5
TORSDOF 6
ENDMDL
MODEL 3
REMARK VINA RESULT:      -5.9      5.472      7.686
REMARK  Name = ZINC14763066
REMARK  8 active torsions:
REMARK  status: ('A' for Active; 'I' for Inactive)
REMARK    1  A    between atoms: C1_1  and  C2_2
REMARK    2  A    between atoms: C2_2  and  C18_24
REMARK    3  A    between atoms: C3_3  and  C4_4
REMARK    4  A    between atoms: C4_4  and  C5_5
REMARK    5  A    between atoms: C6_6  and  O6_23
REMARK    6  A    between atoms: C10_10  and  O1_11
REMARK    7  A    between atoms: C14_16  and  O5_22
REMARK    8  A    between atoms: C15_17  and  O4_21
REMARK                            x       y       z     vdW  Elec       q    Type
REMARK                         _______ _______ _______ _____ _____    ______ ____
ROOT
ATOM      6  C   UNL     1      47.405  21.268  21.507  0.00  0.00    -0.162 A 
ATOM      7  C   UNL     1      46.954  22.555  21.779  0.00  0.00    +0.198 A 
ATOM     10  C   UNL     1      45.709  22.976  21.336  0.00  0.00    -0.031 A 
ATOM     11  C   UNL     1      44.896  22.115  20.614  0.00  0.00    +0.194 A 
ATOM     12  C   UNL     1      45.351  20.813  20.339  0.00  0.00    -0.268 A 
ATOM     13  C   UNL     1      44.482  19.905  19.572  0.00  0.00    +0.440 A 
ATOM     14  C   UNL     1      43.172  20.435  19.148  0.00  0.00    -0.221 A 
ATOM     15  C   UNL     1      42.287  19.646  18.411  0.00  0.00    +0.118 A 
ATOM     16  C   UNL     1      41.071  20.165  18.019  0.00  0.00    +0.051 A 
ATOM     19  C   UNL     1      40.733  21.479  18.354  0.00  0.00    +0.154 A 
ATOM     22  C   UNL     1      41.609  22.267  19.079  0.00  0.00    -0.004 A 
ATOM     23  C   UNL     1      42.837  21.758  19.481  0.00  0.00    +0.174 A 
ATOM     24  O   UNL     1      44.826  18.767  19.307  0.00  0.00    -0.431 OA
ATOM     25  O   UNL     1      43.687  22.532  20.187  0.00  0.00    -0.225 OA
ATOM     26  C   UNL     1      46.610  20.393  20.790  0.00  0.00    +0.225 A 
ENDROOT
BRANCH   7   8
ATOM      8  O   UNL     1      47.740  23.407  22.484  0.00  0.00    -0.483 OA
ATOM      9  H   UNL     1      48.500  23.743  21.988  0.00  0.00    +0.402 HD
ENDBRANCH   7   8
BRANCH  16  17
ATOM     17  O   UNL     1      40.202  19.400  17.306  0.00  0.00    -0.479 OA
ATOM     18  H   UNL     1      40.599  18.967  16.537  0.00  0.00    +0.391 HD
ENDBRANCH  16  17
BRANCH  19  20
ATOM     20  O   UNL     1      39.534  21.986  17.967  0.00  0.00    -0.479 OA
ATOM     21  H   UNL     1      39.043  22.423  18.676  0.00  0.00    +0.399 HD
ENDBRANCH  19  20
BRANCH  26  27
ATOM     27  O   UNL     1      47.046  19.136  20.523  0.00  0.00    -0.468 OA
ATOM     28  H   UNL     1      47.944  19.099  20.169  0.00  0.00    +0.400 HD
ENDBRANCH  26  27
BRANCH   6   5
ATOM      5  C   UNL     1      48.760  20.826  21.996  0.00  0.00    +0.137 C 
BRANCH   5   4
ATOM      1  C   UNL     1      51.450  21.545  22.442  0.00  0.00    +0.077 C 
ATOM      2  C   UNL     1      51.001  21.117  21.069  0.00  0.00    -0.122 C 
ATOM      3  C   UNL     1      52.002  21.003  19.949  0.00  0.00    +0.074 C 
ATOM      4  C   UNL     1      49.738  20.843  20.849  0.00  0.00    -0.063 C 
ENDBRANCH   5   4
ENDBRANCH   6   5
TORSDOF 6
ENDMDL
MODEL 4
REMARK VINA RESULT:      -5.9      1.532      3.066
REMARK  Name = ZINC14763066
REMARK  8 active torsions:
REMARK  status: ('A' for Active; 'I' for Inactive)
REMARK    1  A    between atoms: C1_1  and  C2_2
REMARK    2  A    between atoms: C2_2  and  C18_24
REMARK    3  A    between atoms: C3_3  and  C4_4
REMARK    4  A    between atoms: C4_4  and  C5_5
REMARK    5  A    between atoms: C6_6  and  O6_23
REMARK    6  A    between atoms: C10_10  and  O1_11
REMARK    7  A    between atoms: C14_16  and  O5_22
REMARK    8  A    between atoms: C15_17  and  O4_21
REMARK                            x       y       z     vdW  Elec       q    Type
REMARK                         _______ _______ _______ _____ _____    ______ ____
ROOT
ATOM      6  C   UNL     1      45.737  14.678  19.745  0.00  0.00    -0.162 A 
ATOM      7  C   UNL     1      45.208  14.745  21.029  0.00  0.00    +0.198 A 
ATOM     10  C   UNL     1      44.817  15.960  21.570  0.00  0.00    -0.031 A 
ATOM     11  C   UNL     1      44.949  17.128  20.833  0.00  0.00    +0.194 A 
ATOM     12  C   UNL     1      45.483  17.062  19.535  0.00  0.00    -0.268 A 
ATOM     13  C   UNL     1      45.621  18.306  18.759  0.00  0.00    +0.440 A 
ATOM     14  C   UNL     1      45.172  19.551  19.412  0.00  0.00    -0.221 A 
ATOM     15  C   UNL     1      45.271  20.778  18.753  0.00  0.00    +0.118 A 
ATOM     16  C   UNL     1      44.853  21.931  19.386  0.00  0.00    +0.051 A 
ATOM     19  C   UNL     1      44.338  21.866  20.683  0.00  0.00    +0.154 A 
ATOM     22  C   UNL     1      44.243  20.654  21.342  0.00  0.00    -0.004 A 
ATOM     23  C   UNL     1      44.661  19.485  20.718  0.00  0.00    +0.174 A 
ATOM     24  O   UNL     1      46.077  18.306  17.630  0.00  0.00    -0.431 OA
ATOM     25  O   UNL     1      44.566  18.306  21.368  0.00  0.00    -0.225 OA
ATOM     26  C   UNL     1      45.877  15.831  18.993  0.00  0.00    +0.225 A 
ENDROOT
BRANCH   7   8
ATOM      8  O   UNL     1      45.073  13.609  21.760  0.00  0.00    -0.483 OA
ATOM      9  H   UNL     1      44.560  13.722  22.571  0.00  0.00    +0.402 HD
ENDBRANCH   7   8
BRANCH  16  17
ATOM     17  O   UNL     1      44.942  23.128  18.747  0.00  0.00    -0.479 OA
ATOM     18  H   UNL     1      44.202  23.312  18.152  0.00  0.00    +0.391 HD
ENDBRANCH  16  17
BRANCH  19  20
ATOM     20  O   UNL     1      43.926  23.003  21.301  0.00  0.00    -0.479 OA
ATOM     21  H   UNL     1      43.240  22.862  21.968  0.00  0.00    +0.399 HD
ENDBRANCH  19  20
BRANCH  26  27
ATOM     27  O   UNL     1      46.392  15.770  17.739  0.00  0.00    -0.468 OA
ATOM     28  H   UNL     1      47.269  15.366  17.694  0.00  0.00    +0.400 HD
ENDBRANCH  26  27
BRANCH   6   5
ATOM      5  C   UNL     1      46.157  13.350  19.171  0.00  0.00    +0.137 C 
BRANCH   5   4
ATOM      1  C   UNL     1      46.692  12.400  16.570  0.00  0.00    +0.077 C 
ATOM      2  C   UNL     1      45.301  12.293  17.142  0.00  0.00    -0.122 C 
ATOM      3  C   UNL     1      44.212  11.613  16.354  0.00  0.00    +0.074 C 
ATOM      4  C   UNL     1      45.041  12.791  18.326  0.00  0.00    -0.063 C 
ENDBRANCH   5   4
ENDBRANCH   6   5
TORSDOF 6
ENDMDL
MODEL 5
REMARK VINA RESULT:      -5.8      3.309      4.823
REMARK  Name = ZINC14763066
REMARK  8 active torsions:
REMARK  status: ('A' for Active; 'I' for Inactive)
REMARK    1  A    between atoms: C1_1  and  C2_2
REMARK    2  A    between atoms: C2_2  and  C18_24
REMARK    3  A    between atoms: C3_3  and  C4_4
REMARK    4  A    between atoms: C4_4  and  C5_5
REMARK    5  A    between atoms: C6_6  and  O6_23
REMARK    6  A    between atoms: C10_10  and  O1_11
REMARK    7  A    between atoms: C14_16  and  O5_22
REMARK    8  A    between atoms: C15_17  and  O4_21
REMARK                            x       y       z     vdW  Elec       q    Type
REMARK                         _______ _______ _______ _____ _____    ______ ____
ROOT
ATOM      6  C   UNL     1      48.997  17.279  17.675  0.00  0.00    -0.162 A 
ATOM      7  C   UNL     1      47.938  16.524  17.182  0.00  0.00    +0.198 A 
ATOM     10  C   UNL     1      46.631  16.964  17.322  0.00  0.00    -0.031 A 
ATOM     11  C   UNL     1      46.363  18.168  17.958  0.00  0.00    +0.194 A 
ATOM     12  C   UNL     1      47.433  18.932  18.456  0.00  0.00    -0.268 A 
ATOM     13  C   UNL     1      47.140  20.208  19.130  0.00  0.00    +0.440 A 
ATOM     14  C   UNL     1      45.722  20.601  19.227  0.00  0.00    -0.221 A 
ATOM     15  C   UNL     1      45.352  21.792  19.855  0.00  0.00    +0.118 A 
ATOM     16  C   UNL     1      44.018  22.135  19.940  0.00  0.00    +0.051 A 
ATOM     19  C   UNL     1      43.044  21.287  19.405  0.00  0.00    +0.154 A 
ATOM     22  C   UNL     1      43.405  20.104  18.787  0.00  0.00    -0.004 A 
ATOM     23  C   UNL     1      44.744  19.745  18.693  0.00  0.00    +0.174 A 
ATOM     24  O   UNL     1      48.029  20.909  19.579  0.00  0.00    -0.431 OA
ATOM     25  O   UNL     1      45.089  18.588  18.089  0.00  0.00    -0.225 OA
ATOM     26  C   UNL     1      48.752  18.482  18.311  0.00  0.00    +0.225 A 
ENDROOT
BRANCH   7   8
ATOM      8  O   UNL     1      48.188  15.345  16.558  0.00  0.00    -0.483 OA
ATOM      9  H   UNL     1      47.816  14.575  17.010  0.00  0.00    +0.402 HD
ENDBRANCH   7   8
BRANCH  16  17
ATOM     17  O   UNL     1      43.652  23.296  20.546  0.00  0.00    -0.479 OA
ATOM     18  H   UNL     1      43.305  23.180  21.441  0.00  0.00    +0.391 HD
ENDBRANCH  16  17
BRANCH  19  20
ATOM     20  O   UNL     1      41.733  21.630  19.491  0.00  0.00    -0.479 OA
ATOM     21  H   UNL     1      41.490  22.051  20.327  0.00  0.00    +0.399 HD
ENDBRANCH  19  20
BRANCH  26  27
ATOM     27  O   UNL     1      49.783  19.221  18.793  0.00  0.00    -0.468 OA
ATOM     28  H   UNL     1      50.038  18.998  19.698  0.00  0.00    +0.400 HD
ENDBRANCH  26  27
BRANCH   6   5
ATOM      5  C   UNL     1      50.412  16.786  17.515  0.00  0.00    +0.137 C 
BRANCH   5   4
ATOM      1  C   UNL     1      52.787  17.376  18.917  0.00  0.00    +0.077 C 
ATOM      2  C   UNL     1      51.870  16.285  19.409  0.00  0.00    -0.122 C 
ATOM      3  C   UNL     1      52.185  15.557  20.690  0.00  0.00    +0.074 C 
ATOM      4  C   UNL     1      50.800  15.970  18.721  0.00  0.00    -0.063 C 
ENDBRANCH   5   4
ENDBRANCH   6   5
TORSDOF 6
ENDMDL
MODEL 6
REMARK VINA RESULT:      -5.7      2.175      7.724
REMARK  Name = ZINC14763066
REMARK  8 active torsions:
REMARK  status: ('A' for Active; 'I' for Inactive)
REMARK    1  A    between atoms: C1_1  and  C2_2
REMARK    2  A    between atoms: C2_2  and  C18_24
REMARK    3  A    between atoms: C3_3  and  C4_4
REMARK    4  A    between atoms: C4_4  and  C5_5
REMARK    5  A    between atoms: C6_6  and  O6_23
REMARK    6  A    between atoms: C10_10  and  O1_11
REMARK    7  A    between atoms: C14_16  and  O5_22
REMARK    8  A    between atoms: C15_17  and  O4_21
REMARK                            x       y       z     vdW  Elec       q    Type
REMARK                         _______ _______ _______ _____ _____    ______ ____
ROOT
ATOM      6  C   UNL     1      43.852  18.807  20.155  0.00  0.00    -0.162 A 
ATOM      7  C   UNL     1      43.618  17.999  21.262  0.00  0.00    +0.198 A 
ATOM     10  C   UNL     1      44.197  16.743  21.355  0.00  0.00    -0.031 A 
ATOM     11  C   UNL     1      45.018  16.274  20.341  0.00  0.00    +0.194 A 
ATOM     12  C   UNL     1      45.255  17.090  19.221  0.00  0.00    -0.268 A 
ATOM     13  C   UNL     1      46.129  16.586  18.147  0.00  0.00    +0.440 A 
ATOM     14  C   UNL     1      46.706  15.242  18.334  0.00  0.00    -0.221 A 
ATOM     15  C   UNL     1      47.541  14.682  17.364  0.00  0.00    +0.118 A 
ATOM     16  C   UNL     1      48.063  13.420  17.557  0.00  0.00    +0.051 A 
ATOM     19  C   UNL     1      47.752  12.705  18.718  0.00  0.00    +0.154 A 
ATOM     22  C   UNL     1      46.921  13.253  19.678  0.00  0.00    -0.004 A 
ATOM     23  C   UNL     1      46.387  14.523  19.498  0.00  0.00    +0.174 A 
ATOM     24  O   UNL     1      46.368  17.252  17.156  0.00  0.00    -0.431 OA
ATOM     25  O   UNL     1      45.577  15.051  20.440  0.00  0.00    -0.225 OA
ATOM     26  C   UNL     1      44.668  18.359  19.132  0.00  0.00    +0.225 A 
ENDROOT
BRANCH   7   8
ATOM      8  O   UNL     1      42.816  18.445  22.262  0.00  0.00    -0.483 OA
ATOM      9  H   UNL     1      42.955  19.374  22.492  0.00  0.00    +0.402 HD
ENDBRANCH   7   8
BRANCH  16  17
ATOM     17  O   UNL     1      48.881  12.871  16.619  0.00  0.00    -0.479 OA
ATOM     18  H   UNL     1      48.654  11.961  16.384  0.00  0.00    +0.391 HD
ENDBRANCH  16  17
BRANCH  19  20
ATOM     20  O   UNL     1      48.269  11.464  18.903  0.00  0.00    -0.479 OA
ATOM     21  H   UNL     1      49.179  11.462  19.232  0.00  0.00    +0.399 HD
ENDBRANCH  19  20
BRANCH  26  27
ATOM     27  O   UNL     1      44.899  19.145  18.050  0.00  0.00    -0.468 OA
ATOM     28  H   UNL     1      45.785  19.050  17.676  0.00  0.00    +0.400 HD
ENDBRANCH  26  27
BRANCH   6   5
ATOM      5  C   UNL     1      43.215  20.170  20.069  0.00  0.00    +0.137 C 
BRANCH   5   4
ATOM      1  C   UNL     1      41.939  22.407  18.919  0.00  0.00    +0.077 C 
ATOM      2  C   UNL     1      41.255  21.064  18.918  0.00  0.00    -0.122 C 
ATOM      3  C   UNL     1      39.920  20.898  18.240  0.00  0.00    +0.074 C 
ATOM      4  C   UNL     1      41.823  20.040  19.508  0.00  0.00    -0.063 C 
ENDBRANCH   5   4
ENDBRANCH   6   5
TORSDOF 6
ENDMDL
MODEL 7
REMARK VINA RESULT:      -5.6      3.268      7.854
REMARK  Name = ZINC14763066
REMARK  8 active torsions:
REMARK  status: ('A' for Active; 'I' for Inactive)
REMARK    1  A    between atoms: C1_1  and  C2_2
REMARK    2  A    between atoms: C2_2  and  C18_24
REMARK    3  A    between atoms: C3_3  and  C4_4
REMARK    4  A    between atoms: C4_4  and  C5_5
REMARK    5  A    between atoms: C6_6  and  O6_23
REMARK    6  A    between atoms: C10_10  and  O1_11
REMARK    7  A    between atoms: C14_16  and  O5_22
REMARK    8  A    between atoms: C15_17  and  O4_21
REMARK                            x       y       z     vdW  Elec       q    Type
REMARK                         _______ _______ _______ _____ _____    ______ ____
ROOT
ATOM      6  C   UNL     1      46.159  14.096  19.299  0.00  0.00    -0.162 A 
ATOM      7  C   UNL     1      45.372  13.230  18.548  0.00  0.00    +0.198 A 
ATOM     10  C   UNL     1      45.855  12.673  17.375  0.00  0.00    -0.031 A 
ATOM     11  C   UNL     1      47.134  12.974  16.933  0.00  0.00    +0.194 A 
ATOM     12  C   UNL     1      47.932  13.849  17.691  0.00  0.00    -0.268 A 
ATOM     13  C   UNL     1      49.289  14.165  17.215  0.00  0.00    +0.440 A 
ATOM     14  C   UNL     1      49.722  13.521  15.960  0.00  0.00    -0.221 A 
ATOM     15  C   UNL     1      50.991  13.768  15.432  0.00  0.00    +0.118 A 
ATOM     16  C   UNL     1      51.372  13.160  14.253  0.00  0.00    +0.051 A 
ATOM     19  C   UNL     1      50.485  12.307  13.590  0.00  0.00    +0.154 A 
ATOM     22  C   UNL     1      49.225  12.065  14.106  0.00  0.00    -0.004 A 
ATOM     23  C   UNL     1      48.828  12.669  15.292  0.00  0.00    +0.174 A 
ATOM     24  O   UNL     1      50.022  14.916  17.833  0.00  0.00    -0.431 OA
ATOM     25  O   UNL     1      47.597  12.428  15.789  0.00  0.00    -0.225 OA
ATOM     26  C   UNL     1      47.439  14.409  18.877  0.00  0.00    +0.225 A 
ENDROOT
BRANCH   7   8
ATOM      8  O   UNL     1      44.117  12.927  18.970  0.00  0.00    -0.483 OA
ATOM      9  H   UNL     1      44.036  12.048  19.363  0.00  0.00    +0.402 HD
ENDBRANCH   7   8
BRANCH  16  17
ATOM     17  O   UNL     1      52.608  13.392  13.736  0.00  0.00    -0.479 OA
ATOM     18  H   UNL     1      52.857  14.327  13.716  0.00  0.00    +0.391 HD
ENDBRANCH  16  17
BRANCH  19  20
ATOM     20  O   UNL     1      50.864  11.712  12.430  0.00  0.00    -0.479 OA
ATOM     21  H   UNL     1      50.458  12.093  11.640  0.00  0.00    +0.399 HD
ENDBRANCH  19  20
BRANCH  26  27
ATOM     27  O   UNL     1      48.210  15.254  19.606  0.00  0.00    -0.468 OA
ATOM     28  H   UNL     1      48.708  15.890  19.076  0.00  0.00    +0.400 HD
ENDBRANCH  26  27
BRANCH   6   5
ATOM      5  C   UNL     1      45.619  14.693  20.573  0.00  0.00    +0.137 C 
BRANCH   5   4
ATOM      1  C   UNL     1      44.021  15.983  22.505  0.00  0.00    +0.077 C 
ATOM      2  C   UNL     1      44.335  16.673  21.203  0.00  0.00    -0.122 C 
ATOM      3  C   UNL     1      43.857  18.081  20.961  0.00  0.00    +0.074 C 
ATOM      4  C   UNL     1      45.026  16.047  20.281  0.00  0.00    -0.063 C 
ENDBRANCH   5   4
ENDBRANCH   6   5
TORSDOF 6
ENDMDL
MODEL 8
REMARK VINA RESULT:      -5.5      1.732      7.285
REMARK  Name = ZINC14763066
REMARK  8 active torsions:
REMARK  status: ('A' for Active; 'I' for Inactive)
REMARK    1  A    between atoms: C1_1  and  C2_2
REMARK    2  A    between atoms: C2_2  and  C18_24
REMARK    3  A    between atoms: C3_3  and  C4_4
REMARK    4  A    between atoms: C4_4  and  C5_5
REMARK    5  A    between atoms: C6_6  and  O6_23
REMARK    6  A    between atoms: C10_10  and  O1_11
REMARK    7  A    between atoms: C14_16  and  O5_22
REMARK    8  A    between atoms: C15_17  and  O4_21
REMARK                            x       y       z     vdW  Elec       q    Type
REMARK                         _______ _______ _______ _____ _____    ______ ____
ROOT
ATOM      6  C   UNL     1      45.143  18.276  19.451  0.00  0.00    -0.162 A 
ATOM      7  C   UNL     1      45.880  18.794  18.392  0.00  0.00    +0.198 A 
ATOM     10  C   UNL     1      46.554  17.951  17.521  0.00  0.00    -0.031 A 
ATOM     11  C   UNL     1      46.500  16.577  17.696  0.00  0.00    +0.194 A 
ATOM     12  C   UNL     1      45.755  16.052  18.766  0.00  0.00    -0.268 A 
ATOM     13  C   UNL     1      45.703  14.591  18.946  0.00  0.00    +0.440 A 
ATOM     14  C   UNL     1      46.444  13.772  17.968  0.00  0.00    -0.221 A 
ATOM     15  C   UNL     1      46.455  12.379  18.066  0.00  0.00    +0.118 A 
ATOM     16  C   UNL     1      47.160  11.634  17.144  0.00  0.00    +0.051 A 
ATOM     19  C   UNL     1      47.866  12.276  16.121  0.00  0.00    +0.154 A 
ATOM     22  C   UNL     1      47.862  13.655  16.024  0.00  0.00    -0.004 A 
ATOM     23  C   UNL     1      47.156  14.419  16.945  0.00  0.00    +0.174 A 
ATOM     24  O   UNL     1      45.072  14.083  19.856  0.00  0.00    -0.431 OA
ATOM     25  O   UNL     1      47.158  15.764  16.844  0.00  0.00    -0.225 OA
ATOM     26  C   UNL     1      45.076  16.908  19.644  0.00  0.00    +0.225 A 
ENDROOT
BRANCH   7   8
ATOM      8  O   UNL     1      45.941  20.137  18.209  0.00  0.00    -0.483 OA
ATOM      9  H   UNL     1      45.767  20.419  17.301  0.00  0.00    +0.402 HD
ENDBRANCH   7   8
BRANCH  16  17
ATOM     17  O   UNL     1      47.171  10.277  17.230  0.00  0.00    -0.479 OA
ATOM     18  H   UNL     1      47.911   9.860  16.769  0.00  0.00    +0.391 HD
ENDBRANCH  16  17
BRANCH  19  20
ATOM     20  O   UNL     1      48.558  11.538  15.216  0.00  0.00    -0.479 OA
ATOM     21  H   UNL     1      49.234  10.967  15.607  0.00  0.00    +0.399 HD
ENDBRANCH  19  20
BRANCH  26  27
ATOM     27  O   UNL     1      44.357  16.399  20.676  0.00  0.00    -0.468 OA
ATOM     28  H   UNL     1      43.629  16.964  20.965  0.00  0.00    +0.400 HD
ENDBRANCH  26  27
BRANCH   6   5
ATOM      5  C   UNL     1      44.416  19.205  20.389  0.00  0.00    +0.137 C 
BRANCH   5   4
ATOM      1  C   UNL     1      41.844  18.657  21.408  0.00  0.00    +0.077 C 
ATOM      2  C   UNL     1      42.006  19.558  20.211  0.00  0.00    -0.122 C 
ATOM      3  C   UNL     1      40.801  20.225  19.600  0.00  0.00    +0.074 C 
ATOM      4  C   UNL     1      43.197  19.761  19.700  0.00  0.00    -0.063 C 
ENDBRANCH   5   4
ENDBRANCH   6   5
TORSDOF 6
ENDMDL
MODEL 9
REMARK VINA RESULT:      -5.4      3.692      6.893
REMARK  Name = ZINC14763066
REMARK  8 active torsions:
REMARK  status: ('A' for Active; 'I' for Inactive)
REMARK    1  A    between atoms: C1_1  and  C2_2
REMARK    2  A    between atoms: C2_2  and  C18_24
REMARK    3  A    between atoms: C3_3  and  C4_4
REMARK    4  A    between atoms: C4_4  and  C5_5
REMARK    5  A    between atoms: C6_6  and  O6_23
REMARK    6  A    between atoms: C10_10  and  O1_11
REMARK    7  A    between atoms: C14_16  and  O5_22
REMARK    8  A    between atoms: C15_17  and  O4_21
REMARK                            x       y       z     vdW  Elec       q    Type
REMARK                         _______ _______ _______ _____ _____    ______ ____
ROOT
ATOM      6  C   UNL     1      44.750  18.254  20.406  0.00  0.00    -0.162 A 
ATOM      7  C   UNL     1      45.179  16.967  20.102  0.00  0.00    +0.198 A 
ATOM     10  C   UNL     1      46.468  16.743  19.643  0.00  0.00    -0.031 A 
ATOM     11  C   UNL     1      47.347  17.803  19.481  0.00  0.00    +0.194 A 
ATOM     12  C   UNL     1      46.914  19.104  19.788  0.00  0.00    -0.268 A 
ATOM     13  C   UNL     1      47.853  20.225  19.614  0.00  0.00    +0.440 A 
ATOM     14  C   UNL     1      49.206  19.892  19.127  0.00  0.00    -0.221 A 
ATOM     15  C   UNL     1      50.159  20.892  18.927  0.00  0.00    +0.118 A 
ATOM     16  C   UNL     1      51.415  20.557  18.464  0.00  0.00    +0.051 A 
ATOM     19  C   UNL     1      51.726  19.222  18.193  0.00  0.00    +0.154 A 
ATOM     22  C   UNL     1      50.783  18.228  18.384  0.00  0.00    -0.004 A 
ATOM     23  C   UNL     1      49.514  18.550  18.849  0.00  0.00    +0.174 A 
ATOM     24  O   UNL     1      47.530  21.372  19.866  0.00  0.00    -0.431 OA
ATOM     25  O   UNL     1      48.599  17.575  19.034  0.00  0.00    -0.225 OA
ATOM     26  C   UNL     1      45.611  19.326  20.253  0.00  0.00    +0.225 A 
ENDROOT
BRANCH   7   8
ATOM      8  O   UNL     1      44.328  15.921  20.255  0.00  0.00    -0.483 OA
ATOM      9  H   UNL     1      43.585  15.925  19.636  0.00  0.00    +0.402 HD
ENDBRANCH   7   8
BRANCH  16  17
ATOM     17  O   UNL     1      52.350  21.526  18.272  0.00  0.00    -0.479 OA
ATOM     18  H   UNL     1      52.875  21.728  19.059  0.00  0.00    +0.391 HD
ENDBRANCH  16  17
BRANCH  19  20
ATOM     20  O   UNL     1      52.963  18.898  17.738  0.00  0.00    -0.479 OA
ATOM     21  H   UNL     1      52.975  18.567  16.830  0.00  0.00    +0.399 HD
ENDBRANCH  19  20
BRANCH  26  27
ATOM     27  O   UNL     1      45.195  20.583  20.549  0.00  0.00    -0.468 OA
ATOM     28  H   UNL     1      44.538  20.623  21.257  0.00  0.00    +0.400 HD
ENDBRANCH  26  27
BRANCH   6   5
ATOM      5  C   UNL     1      43.346  18.482  20.904  0.00  0.00    +0.137 C 
BRANCH   5   4
ATOM      1  C   UNL     1      40.648  19.152  21.380  0.00  0.00    +0.077 C 
ATOM      2  C   UNL     1      41.328  19.609  20.115  0.00  0.00    -0.122 C 
ATOM      3  C   UNL     1      40.589  20.485  19.137  0.00  0.00    +0.074 C 
ATOM      4  C   UNL     1      42.562  19.244  19.867  0.00  0.00    -0.063 C 
ENDBRANCH   5   4
ENDBRANCH   6   5
TORSDOF 6
ENDMDL
