MODEL 1
REMARK VINA RESULT:      -7.3      0.000      0.000
REMARK  Name = ZINC77257204
REMARK  16 active torsions:
REMARK  status: ('A' for Active; 'I' for Inactive)
REMARK    1  A    between atoms: C3_3  and  O15_48
REMARK    2  A    between atoms: C6_6  and  C7_7
REMARK    3  A    between atoms: C8_8  and  O5_20
REMARK    4  A    between atoms: C11_12  and  O4_19
REMARK    5  A    between atoms: C13_14  and  O3_18
REMARK    6  A    between atoms: O5_20  and  C16_21
REMARK    7  A    between atoms: C17_23  and  O14_47
REMARK    8  A    between atoms: C18_25  and  O13_46
REMARK    9  A    between atoms: C19_27  and  O12_45
REMARK   10  A    between atoms: C20_29  and  C21_32
REMARK   11  A    between atoms: C21_32  and  O7_33
REMARK   12  A    between atoms: O7_33  and  C22_34
REMARK   13  A    between atoms: C22_34  and  C23_36
REMARK   14  A    between atoms: C25_38  and  O11_44
REMARK   15  A    between atoms: C26_39  and  O10_43
REMARK   16  A    between atoms: C27_40  and  O9_42
REMARK                            x       y       z     vdW  Elec       q    Type
REMARK                         _______ _______ _______ _____ _____    ______ ____
ROOT
ATOM     12  C   UNL     1      46.934  20.170  20.055  0.00  0.00    +0.332 C 
ATOM     13  C   UNL     1      45.769  21.039  20.536  0.00  0.00    +0.147 C 
ATOM     16  C   UNL     1      45.859  21.203  22.056  0.00  0.00    +0.168 C 
ATOM     19  C   UNL     1      47.221  21.806  22.414  0.00  0.00    +0.167 C 
ATOM     22  C   UNL     1      48.330  20.908  21.860  0.00  0.00    +0.193 C 
ATOM     39  O   UNL     1      48.170  20.772  20.446  0.00  0.00    -0.353 OA
ENDROOT
BRANCH  13  14
ATOM     14  O   UNL     1      45.840  22.322  19.911  0.00  0.00    -0.515 OA
ATOM     15  H   UNL     1      45.745  23.063  20.525  0.00  0.00    +0.377 HD
ENDBRANCH  13  14
BRANCH  16  17
ATOM     17  O   UNL     1      44.816  22.071  22.505  0.00  0.00    -0.551 OA
ATOM     18  H   UNL     1      44.802  22.930  22.062  0.00  0.00    +0.386 HD
ENDBRANCH  16  17
BRANCH  19  20
ATOM     20  O   UNL     1      47.331  23.111  21.841  0.00  0.00    -0.532 OA
ATOM     21  H   UNL     1      48.237  23.444  21.791  0.00  0.00    +0.386 HD
ENDBRANCH  19  20
BRANCH  12  11
ATOM     11  O   UNL     1      46.832  18.869  20.638  0.00  0.00    -0.306 OA
BRANCH  11  10
ATOM      9  C   UNL     1      45.542  17.222  19.543  0.00  0.00    +0.192 A 
ATOM     10  C   UNL     1      46.746  17.814  19.784  0.00  0.00    -0.079 A 
ATOM     40  C   UNL     1      47.908  17.322  19.134  0.00  0.00    +0.412 A 
ATOM     41  C   UNL     1      47.742  16.180  18.222  0.00  0.00    -0.263 A 
ATOM     42  C   UNL     1      48.836  15.629  17.540  0.00  0.00    +0.222 A 
ATOM     45  C   UNL     1      48.639  14.556  16.692  0.00  0.00    -0.054 A 
ATOM     46  C   UNL     1      47.364  14.027  16.519  0.00  0.00    +0.196 A 
ATOM     49  C   UNL     1      46.278  14.566  17.190  0.00  0.00    -0.022 A 
ATOM     50  C   UNL     1      46.455  15.643  18.046  0.00  0.00    +0.182 A 
ATOM     51  O   UNL     1      49.003  17.827  19.325  0.00  0.00    -0.447 OA
ATOM     52  O   UNL     1      45.408  16.175  18.710  0.00  0.00    -0.199 OA
BRANCH   9   8
ATOM      1  C   UNL     1      43.989  17.256  21.487  0.00  0.00    +0.088 A 
ATOM      2  C   UNL     1      42.869  17.747  22.122  0.00  0.00    -0.015 A 
ATOM      3  C   UNL     1      42.094  18.724  21.510  0.00  0.00    +0.138 A 
ATOM      6  C   UNL     1      42.443  19.211  20.257  0.00  0.00    -0.014 A 
ATOM      7  C   UNL     1      43.561  18.726  19.615  0.00  0.00    +0.087 A 
ATOM      8  C   UNL     1      44.344  17.744  20.225  0.00  0.00    -0.081 A 
BRANCH   3   4
ATOM      4  O   UNL     1      40.990  19.205  22.140  0.00  0.00    -0.496 OA
ATOM      5  H   UNL     1      41.036  20.148  22.347  0.00  0.00    +0.399 HD
ENDBRANCH   3   4
ENDBRANCH   9   8
BRANCH  42  43
ATOM     43  O   UNL     1      50.078  16.148  17.710  0.00  0.00    -0.472 OA
ATOM     44  H   UNL     1      50.137  17.096  17.528  0.00  0.00    +0.403 HD
ENDBRANCH  42  43
BRANCH  46  47
ATOM     47  O   UNL     1      47.182  12.972  15.683  0.00  0.00    -0.486 OA
ATOM     48  H   UNL     1      47.665  12.177  15.943  0.00  0.00    +0.404 HD
ENDBRANCH  46  47
ENDBRANCH  11  10
ENDBRANCH  12  11
BRANCH  22  23
ATOM     23  C   UNL     1      49.693  21.535  22.162  0.00  0.00    +0.261 C 
BRANCH  23  24
ATOM     24  O   UNL     1      50.727  20.607  21.830  0.00  0.00    -0.338 OA
BRANCH  24  25
ATOM     25  C   UNL     1      51.720  21.056  21.036  0.00  0.00    +0.510 C 
ATOM     38  O   UNL     1      52.472  21.924  21.436  0.00  0.00    -0.492 OA
BRANCH  25  26
ATOM     26  C   UNL     1      51.895  20.495  19.684  0.00  0.00    -0.098 A 
ATOM     27  C   UNL     1      52.269  19.158  19.524  0.00  0.00    +0.061 A 
ATOM     28  C   UNL     1      52.432  18.635  18.255  0.00  0.00    +0.088 A 
ATOM     31  C   UNL     1      52.225  19.439  17.137  0.00  0.00    +0.094 A 
ATOM     34  C   UNL     1      51.854  20.772  17.294  0.00  0.00    +0.090 A 
ATOM     37  C   UNL     1      51.682  21.298  18.560  0.00  0.00    +0.081 A 
BRANCH  28  29
ATOM     29  O   UNL     1      52.795  17.334  18.098  0.00  0.00    -0.476 OA
ATOM     30  H   UNL     1      53.651  17.214  17.662  0.00  0.00    +0.390 HD
ENDBRANCH  28  29
BRANCH  31  32
ATOM     32  O   UNL     1      52.387  18.922  15.891  0.00  0.00    -0.472 OA
ATOM     33  H   UNL     1      51.940  19.423  15.196  0.00  0.00    +0.391 HD
ENDBRANCH  31  32
BRANCH  34  35
ATOM     35  O   UNL     1      51.654  21.555  16.200  0.00  0.00    -0.478 OA
ATOM     36  H   UNL     1      51.137  21.131  15.501  0.00  0.00    +0.394 HD
ENDBRANCH  34  35
ENDBRANCH  25  26
ENDBRANCH  24  25
ENDBRANCH  23  24
ENDBRANCH  22  23
TORSDOF 16
ENDMDL
MODEL 2
REMARK VINA RESULT:      -7.3      2.523      6.344
REMARK  Name = ZINC77257204
REMARK  16 active torsions:
REMARK  status: ('A' for Active; 'I' for Inactive)
REMARK    1  A    between atoms: C3_3  and  O15_48
REMARK    2  A    between atoms: C6_6  and  C7_7
REMARK    3  A    between atoms: C8_8  and  O5_20
REMARK    4  A    between atoms: C11_12  and  O4_19
REMARK    5  A    between atoms: C13_14  and  O3_18
REMARK    6  A    between atoms: O5_20  and  C16_21
REMARK    7  A    between atoms: C17_23  and  O14_47
REMARK    8  A    between atoms: C18_25  and  O13_46
REMARK    9  A    between atoms: C19_27  and  O12_45
REMARK   10  A    between atoms: C20_29  and  C21_32
REMARK   11  A    between atoms: C21_32  and  O7_33
REMARK   12  A    between atoms: O7_33  and  C22_34
REMARK   13  A    between atoms: C22_34  and  C23_36
REMARK   14  A    between atoms: C25_38  and  O11_44
REMARK   15  A    between atoms: C26_39  and  O10_43
REMARK   16  A    between atoms: C27_40  and  O9_42
REMARK                            x       y       z     vdW  Elec       q    Type
REMARK                         _______ _______ _______ _____ _____    ______ ____
ROOT
ATOM     12  C   UNL     1      47.185  19.696  19.871  0.00  0.00    +0.332 C 
ATOM     13  C   UNL     1      48.191  20.750  20.344  0.00  0.00    +0.147 C 
ATOM     16  C   UNL     1      48.775  20.317  21.692  0.00  0.00    +0.168 C 
ATOM     19  C   UNL     1      49.413  18.932  21.539  0.00  0.00    +0.167 C 
ATOM     22  C   UNL     1      48.361  17.949  21.020  0.00  0.00    +0.193 C 
ATOM     39  O   UNL     1      47.835  18.426  19.779  0.00  0.00    -0.353 OA
ENDROOT
BRANCH  13  14
ATOM     14  O   UNL     1      49.242  20.872  19.384  0.00  0.00    -0.515 OA
ATOM     15  H   UNL     1      49.056  20.435  18.541  0.00  0.00    +0.377 HD
ENDBRANCH  13  14
BRANCH  16  17
ATOM     17  O   UNL     1      49.767  21.258  22.107  0.00  0.00    -0.551 OA
ATOM     18  H   UNL     1      50.409  21.481  21.420  0.00  0.00    +0.386 HD
ENDBRANCH  16  17
BRANCH  19  20
ATOM     20  O   UNL     1      50.498  19.006  20.612  0.00  0.00    -0.532 OA
ATOM     21  H   UNL     1      51.083  18.236  20.628  0.00  0.00    +0.386 HD
ENDBRANCH  19  20
BRANCH  12  11
ATOM     11  O   UNL     1      46.107  19.612  20.805  0.00  0.00    -0.306 OA
BRANCH  11  10
ATOM      9  C   UNL     1      44.039  18.681  20.145  0.00  0.00    +0.192 A 
ATOM     10  C   UNL     1      44.849  19.765  20.311  0.00  0.00    -0.079 A 
ATOM     40  C   UNL     1      44.368  21.055  19.964  0.00  0.00    +0.412 A 
ATOM     41  C   UNL     1      42.997  21.147  19.436  0.00  0.00    -0.263 A 
ATOM     42  C   UNL     1      42.442  22.380  19.067  0.00  0.00    +0.222 A 
ATOM     45  C   UNL     1      41.152  22.425  18.575  0.00  0.00    -0.054 A 
ATOM     46  C   UNL     1      40.411  21.254  18.447  0.00  0.00    +0.196 A 
ATOM     49  C   UNL     1      40.954  20.032  18.809  0.00  0.00    -0.022 A 
ATOM     50  C   UNL     1      42.248  19.966  19.305  0.00  0.00    +0.182 A 
ATOM     51  O   UNL     1      45.064  22.049  20.098  0.00  0.00    -0.447 OA
ATOM     52  O   UNL     1      42.791  18.782  19.657  0.00  0.00    -0.199 OA
BRANCH   9   8
ATOM      1  C   UNL     1      44.445  16.892  21.827  0.00  0.00    +0.088 A 
ATOM      2  C   UNL     1      44.926  15.645  22.163  0.00  0.00    -0.015 A 
ATOM      3  C   UNL     1      45.520  14.844  21.195  0.00  0.00    +0.138 A 
ATOM      6  C   UNL     1      45.630  15.294  19.886  0.00  0.00    -0.014 A 
ATOM      7  C   UNL     1      45.151  16.539  19.541  0.00  0.00    +0.087 A 
ATOM      8  C   UNL     1      44.554  17.349  20.509  0.00  0.00    -0.081 A 
BRANCH   3   4
ATOM      4  O   UNL     1      45.993  13.616  21.532  0.00  0.00    -0.496 OA
ATOM      5  H   UNL     1      46.847  13.635  21.985  0.00  0.00    +0.399 HD
ENDBRANCH   3   4
ENDBRANCH   9   8
BRANCH  42  43
ATOM     43  O   UNL     1      43.166  23.521  19.194  0.00  0.00    -0.472 OA
ATOM     44  H   UNL     1      43.066  24.134  18.453  0.00  0.00    +0.403 HD
ENDBRANCH  42  43
BRANCH  46  47
ATOM     47  O   UNL     1      39.144  21.310  17.962  0.00  0.00    -0.486 OA
ATOM     48  H   UNL     1      38.796  20.457  17.671  0.00  0.00    +0.404 HD
ENDBRANCH  46  47
ENDBRANCH  11  10
ENDBRANCH  12  11
BRANCH  22  23
ATOM     23  C   UNL     1      49.005  16.577  20.807  0.00  0.00    +0.261 C 
BRANCH  23  24
ATOM     24  O   UNL     1      49.629  16.537  19.523  0.00  0.00    -0.338 OA
BRANCH  24  25
ATOM     25  C   UNL     1      49.888  15.320  19.006  0.00  0.00    +0.510 C 
ATOM     38  O   UNL     1      50.980  14.811  19.169  0.00  0.00    -0.492 OA
BRANCH  25  26
ATOM     26  C   UNL     1      48.848  14.606  18.242  0.00  0.00    -0.098 A 
ATOM     27  C   UNL     1      48.556  13.272  18.536  0.00  0.00    +0.061 A 
ATOM     28  C   UNL     1      47.581  12.605  17.818  0.00  0.00    +0.088 A 
ATOM     31  C   UNL     1      46.892  13.262  16.802  0.00  0.00    +0.094 A 
ATOM     34  C   UNL     1      47.183  14.591  16.505  0.00  0.00    +0.090 A 
ATOM     37  C   UNL     1      48.151  15.264  17.225  0.00  0.00    +0.081 A 
BRANCH  28  29
ATOM     29  O   UNL     1      47.295  11.307  18.105  0.00  0.00    -0.476 OA
ATOM     30  H   UNL     1      46.808  10.848  17.406  0.00  0.00    +0.390 HD
ENDBRANCH  28  29
BRANCH  31  32
ATOM     32  O   UNL     1      45.935  12.603  16.097  0.00  0.00    -0.472 OA
ATOM     33  H   UNL     1      45.064  12.604  16.519  0.00  0.00    +0.391 HD
ENDBRANCH  31  32
BRANCH  34  35
ATOM     35  O   UNL     1      46.508  15.228  15.511  0.00  0.00    -0.478 OA
ATOM     36  H   UNL     1      45.876  14.667  15.041  0.00  0.00    +0.394 HD
ENDBRANCH  34  35
ENDBRANCH  25  26
ENDBRANCH  24  25
ENDBRANCH  23  24
ENDBRANCH  22  23
TORSDOF 16
ENDMDL
MODEL 3
REMARK VINA RESULT:      -7.3      2.545      7.170
REMARK  Name = ZINC77257204
REMARK  16 active torsions:
REMARK  status: ('A' for Active; 'I' for Inactive)
REMARK    1  A    between atoms: C3_3  and  O15_48
REMARK    2  A    between atoms: C6_6  and  C7_7
REMARK    3  A    between atoms: C8_8  and  O5_20
REMARK    4  A    between atoms: C11_12  and  O4_19
REMARK    5  A    between atoms: C13_14  and  O3_18
REMARK    6  A    between atoms: O5_20  and  C16_21
REMARK    7  A    between atoms: C17_23  and  O14_47
REMARK    8  A    between atoms: C18_25  and  O13_46
REMARK    9  A    between atoms: C19_27  and  O12_45
REMARK   10  A    between atoms: C20_29  and  C21_32
REMARK   11  A    between atoms: C21_32  and  O7_33
REMARK   12  A    between atoms: O7_33  and  C22_34
REMARK   13  A    between atoms: C22_34  and  C23_36
REMARK   14  A    between atoms: C25_38  and  O11_44
REMARK   15  A    between atoms: C26_39  and  O10_43
REMARK   16  A    between atoms: C27_40  and  O9_42
REMARK                            x       y       z     vdW  Elec       q    Type
REMARK                         _______ _______ _______ _____ _____    ______ ____
ROOT
ATOM     12  C   UNL     1      49.317  17.847  18.054  0.00  0.00    +0.332 C 
ATOM     13  C   UNL     1      50.387  18.919  18.284  0.00  0.00    +0.147 C 
ATOM     16  C   UNL     1      51.275  18.497  19.458  0.00  0.00    +0.168 C 
ATOM     19  C   UNL     1      51.883  17.124  19.157  0.00  0.00    +0.167 C 
ATOM     22  C   UNL     1      50.757  16.122  18.893  0.00  0.00    +0.193 C 
ATOM     39  O   UNL     1      49.950  16.589  17.810  0.00  0.00    -0.353 OA
ENDROOT
BRANCH  13  14
ATOM     14  O   UNL     1      51.184  19.058  17.106  0.00  0.00    -0.515 OA
ATOM     15  H   UNL     1      51.971  19.605  17.228  0.00  0.00    +0.377 HD
ENDBRANCH  13  14
BRANCH  16  17
ATOM     17  O   UNL     1      52.320  19.457  19.635  0.00  0.00    -0.551 OA
ATOM     18  H   UNL     1      53.085  19.119  20.120  0.00  0.00    +0.386 HD
ENDBRANCH  16  17
BRANCH  19  20
ATOM     20  O   UNL     1      52.723  17.216  18.004  0.00  0.00    -0.532 OA
ATOM     21  H   UNL     1      53.424  16.550  17.973  0.00  0.00    +0.386 HD
ENDBRANCH  19  20
BRANCH  12  11
ATOM     11  O   UNL     1      48.487  17.745  19.212  0.00  0.00    -0.306 OA
BRANCH  11  10
ATOM      9  C   UNL     1      46.205  17.899  18.621  0.00  0.00    +0.192 A 
ATOM     10  C   UNL     1      47.317  18.440  19.196  0.00  0.00    -0.079 A 
ATOM     40  C   UNL     1      47.242  19.732  19.778  0.00  0.00    +0.412 A 
ATOM     41  C   UNL     1      45.946  20.426  19.725  0.00  0.00    -0.263 A 
ATOM     42  C   UNL     1      45.783  21.705  20.274  0.00  0.00    +0.222 A 
ATOM     45  C   UNL     1      44.549  22.324  20.204  0.00  0.00    -0.054 A 
ATOM     46  C   UNL     1      43.478  21.679  19.592  0.00  0.00    +0.196 A 
ATOM     49  C   UNL     1      43.632  20.415  19.048  0.00  0.00    -0.022 A 
ATOM     50  C   UNL     1      44.863  19.777  19.107  0.00  0.00    +0.182 A 
ATOM     51  O   UNL     1      48.217  20.249  20.301  0.00  0.00    -0.447 OA
ATOM     52  O   UNL     1      45.029  18.548  18.576  0.00  0.00    -0.199 OA
BRANCH   9   8
ATOM      1  C   UNL     1      46.637  16.415  16.670  0.00  0.00    +0.088 A 
ATOM      2  C   UNL     1      46.724  15.158  16.113  0.00  0.00    -0.015 A 
ATOM      3  C   UNL     1      46.474  14.033  16.889  0.00  0.00    +0.138 A 
ATOM      6  C   UNL     1      46.137  14.169  18.230  0.00  0.00    -0.014 A 
ATOM      7  C   UNL     1      46.049  15.422  18.796  0.00  0.00    +0.087 A 
ATOM      8  C   UNL     1      46.298  16.556  18.020  0.00  0.00    -0.081 A 
BRANCH   3   4
ATOM      4  O   UNL     1      46.560  12.795  16.335  0.00  0.00    -0.496 OA
ATOM      5  H   UNL     1      46.685  12.085  16.978  0.00  0.00    +0.399 HD
ENDBRANCH   3   4
ENDBRANCH   9   8
BRANCH  42  43
ATOM     43  O   UNL     1      46.829  22.331  20.870  0.00  0.00    -0.472 OA
ATOM     44  H   UNL     1      46.832  22.258  21.835  0.00  0.00    +0.403 HD
ENDBRANCH  42  43
BRANCH  46  47
ATOM     47  O   UNL     1      42.270  22.296  19.529  0.00  0.00    -0.486 OA
ATOM     48  H   UNL     1      41.533  21.750  19.835  0.00  0.00    +0.404 HD
ENDBRANCH  46  47
ENDBRANCH  11  10
ENDBRANCH  12  11
BRANCH  22  23
ATOM     23  C   UNL     1      51.358  14.761  18.533  0.00  0.00    +0.261 C 
BRANCH  23  24
ATOM     24  O   UNL     1      51.574  14.694  17.123  0.00  0.00    -0.338 OA
BRANCH  24  25
ATOM     25  C   UNL     1      51.518  13.474  16.552  0.00  0.00    +0.510 C 
ATOM     38  O   UNL     1      51.904  12.498  17.166  0.00  0.00    -0.492 OA
BRANCH  25  26
ATOM     26  C   UNL     1      50.988  13.323  15.185  0.00  0.00    -0.098 A 
ATOM     27  C   UNL     1      49.644  12.996  14.987  0.00  0.00    +0.061 A 
ATOM     28  C   UNL     1      49.151  12.854  13.704  0.00  0.00    +0.088 A 
ATOM     31  C   UNL     1      49.991  13.037  12.609  0.00  0.00    +0.094 A 
ATOM     34  C   UNL     1      51.331  13.362  12.803  0.00  0.00    +0.090 A 
ATOM     37  C   UNL     1      51.829  13.512  14.084  0.00  0.00    +0.081 A 
BRANCH  28  29
ATOM     29  O   UNL     1      47.842  12.536  13.510  0.00  0.00    -0.476 OA
ATOM     30  H   UNL     1      47.315  13.254  13.132  0.00  0.00    +0.390 HD
ENDBRANCH  28  29
BRANCH  31  32
ATOM     32  O   UNL     1      49.503  12.897  11.349  0.00  0.00    -0.472 OA
ATOM     33  H   UNL     1      48.679  13.376  11.190  0.00  0.00    +0.391 HD
ENDBRANCH  31  32
BRANCH  34  35
ATOM     35  O   UNL     1      52.150  13.539  11.731  0.00  0.00    -0.478 OA
ATOM     36  H   UNL     1      53.081  13.347  11.911  0.00  0.00    +0.394 HD
ENDBRANCH  34  35
ENDBRANCH  25  26
ENDBRANCH  24  25
ENDBRANCH  23  24
ENDBRANCH  22  23
TORSDOF 16
ENDMDL
MODEL 4
REMARK VINA RESULT:      -7.1      2.305      5.297
REMARK  Name = ZINC77257204
REMARK  16 active torsions:
REMARK  status: ('A' for Active; 'I' for Inactive)
REMARK    1  A    between atoms: C3_3  and  O15_48
REMARK    2  A    between atoms: C6_6  and  C7_7
REMARK    3  A    between atoms: C8_8  and  O5_20
REMARK    4  A    between atoms: C11_12  and  O4_19
REMARK    5  A    between atoms: C13_14  and  O3_18
REMARK    6  A    between atoms: O5_20  and  C16_21
REMARK    7  A    between atoms: C17_23  and  O14_47
REMARK    8  A    between atoms: C18_25  and  O13_46
REMARK    9  A    between atoms: C19_27  and  O12_45
REMARK   10  A    between atoms: C20_29  and  C21_32
REMARK   11  A    between atoms: C21_32  and  O7_33
REMARK   12  A    between atoms: O7_33  and  C22_34
REMARK   13  A    between atoms: C22_34  and  C23_36
REMARK   14  A    between atoms: C25_38  and  O11_44
REMARK   15  A    between atoms: C26_39  and  O10_43
REMARK   16  A    between atoms: C27_40  and  O9_42
REMARK                            x       y       z     vdW  Elec       q    Type
REMARK                         _______ _______ _______ _____ _____    ______ ____
ROOT
ATOM     12  C   UNL     1      47.025  19.840  20.095  0.00  0.00    +0.332 C 
ATOM     13  C   UNL     1      47.961  20.914  20.656  0.00  0.00    +0.147 C 
ATOM     16  C   UNL     1      48.510  20.445  22.006  0.00  0.00    +0.168 C 
ATOM     19  C   UNL     1      49.217  19.099  21.819  0.00  0.00    +0.167 C 
ATOM     22  C   UNL     1      48.234  18.095  21.212  0.00  0.00    +0.193 C 
ATOM     39  O   UNL     1      47.737  18.606  19.973  0.00  0.00    -0.353 OA
ENDROOT
BRANCH  13  14
ATOM     14  O   UNL     1      49.043  21.127  19.747  0.00  0.00    -0.515 OA
ATOM     15  H   UNL     1      49.558  21.924  19.931  0.00  0.00    +0.377 HD
ENDBRANCH  13  14
BRANCH  16  17
ATOM     17  O   UNL     1      49.440  21.410  22.505  0.00  0.00    -0.551 OA
ATOM     18  H   UNL     1      49.116  21.909  23.267  0.00  0.00    +0.386 HD
ENDBRANCH  16  17
BRANCH  19  20
ATOM     20  O   UNL     1      50.334  19.264  20.943  0.00  0.00    -0.532 OA
ATOM     21  H   UNL     1      50.202  19.934  20.258  0.00  0.00    +0.386 HD
ENDBRANCH  19  20
BRANCH  12  11
ATOM     11  O   UNL     1      45.916  19.665  20.977  0.00  0.00    -0.306 OA
BRANCH  11  10
ATOM      9  C   UNL     1      43.870  18.708  20.283  0.00  0.00    +0.192 A 
ATOM     10  C   UNL     1      44.673  19.799  20.440  0.00  0.00    -0.079 A 
ATOM     40  C   UNL     1      44.199  21.076  20.040  0.00  0.00    +0.412 A 
ATOM     41  C   UNL     1      42.846  21.149  19.469  0.00  0.00    -0.263 A 
ATOM     42  C   UNL     1      42.299  22.368  19.046  0.00  0.00    +0.222 A 
ATOM     45  C   UNL     1      41.024  22.395  18.514  0.00  0.00    -0.054 A 
ATOM     46  C   UNL     1      40.290  21.218  18.399  0.00  0.00    +0.196 A 
ATOM     49  C   UNL     1      40.824  20.009  18.814  0.00  0.00    -0.022 A 
ATOM     50  C   UNL     1      42.103  19.961  19.351  0.00  0.00    +0.182 A 
ATOM     51  O   UNL     1      44.889  22.076  20.165  0.00  0.00    -0.447 OA
ATOM     52  O   UNL     1      42.637  18.790  19.754  0.00  0.00    -0.199 OA
BRANCH   9   8
ATOM      1  C   UNL     1      44.187  16.952  22.018  0.00  0.00    +0.088 A 
ATOM      2  C   UNL     1      44.660  15.717  22.406  0.00  0.00    -0.015 A 
ATOM      3  C   UNL     1      45.326  14.908  21.493  0.00  0.00    +0.138 A 
ATOM      6  C   UNL     1      45.516  15.339  20.186  0.00  0.00    -0.014 A 
ATOM      7  C   UNL     1      45.045  16.571  19.789  0.00  0.00    +0.087 A 
ATOM      8  C   UNL     1      44.376  17.389  20.703  0.00  0.00    -0.081 A 
BRANCH   3   4
ATOM      4  O   UNL     1      45.792  13.692  21.881  0.00  0.00    -0.496 OA
ATOM      5  H   UNL     1      45.105  13.094  22.205  0.00  0.00    +0.399 HD
ENDBRANCH   3   4
ENDBRANCH   9   8
BRANCH  42  43
ATOM     43  O   UNL     1      43.017  23.514  19.160  0.00  0.00    -0.472 OA
ATOM     44  H   UNL     1      43.336  23.864  18.317  0.00  0.00    +0.403 HD
ENDBRANCH  42  43
BRANCH  46  47
ATOM     47  O   UNL     1      39.039  21.256  17.875  0.00  0.00    -0.486 OA
ATOM     48  H   UNL     1      38.364  20.855  18.439  0.00  0.00    +0.404 HD
ENDBRANCH  46  47
ENDBRANCH  11  10
ENDBRANCH  12  11
BRANCH  22  23
ATOM     23  C   UNL     1      48.949  16.765  20.966  0.00  0.00    +0.261 C 
BRANCH  23  24
ATOM     24  O   UNL     1      49.093  16.554  19.561  0.00  0.00    -0.338 OA
BRANCH  24  25
ATOM     25  C   UNL     1      50.347  16.411  19.089  0.00  0.00    +0.510 C 
ATOM     38  O   UNL     1      51.056  15.517  19.511  0.00  0.00    -0.492 OA
BRANCH  25  26
ATOM     26  C   UNL     1      50.860  17.337  18.062  0.00  0.00    -0.098 A 
ATOM     27  C   UNL     1      51.497  16.836  16.923  0.00  0.00    +0.061 A 
ATOM     28  C   UNL     1      51.977  17.706  15.963  0.00  0.00    +0.088 A 
ATOM     31  C   UNL     1      51.827  19.080  16.130  0.00  0.00    +0.094 A 
ATOM     34  C   UNL     1      51.195  19.582  17.265  0.00  0.00    +0.090 A 
ATOM     37  C   UNL     1      50.706  18.716  18.225  0.00  0.00    +0.081 A 
BRANCH  28  29
ATOM     29  O   UNL     1      52.596  17.219  14.854  0.00  0.00    -0.476 OA
ATOM     30  H   UNL     1      52.188  17.498  14.022  0.00  0.00    +0.390 HD
ENDBRANCH  28  29
BRANCH  31  32
ATOM     32  O   UNL     1      52.301  19.933  15.184  0.00  0.00    -0.472 OA
ATOM     33  H   UNL     1      53.258  20.067  15.219  0.00  0.00    +0.391 HD
ENDBRANCH  31  32
BRANCH  34  35
ATOM     35  O   UNL     1      51.051  20.925  17.424  0.00  0.00    -0.478 OA
ATOM     36  H   UNL     1      50.531  21.176  18.200  0.00  0.00    +0.394 HD
ENDBRANCH  34  35
ENDBRANCH  25  26
ENDBRANCH  24  25
ENDBRANCH  23  24
ENDBRANCH  22  23
TORSDOF 16
ENDMDL
MODEL 5
REMARK VINA RESULT:      -7.1      2.294      7.937
REMARK  Name = ZINC77257204
REMARK  16 active torsions:
REMARK  status: ('A' for Active; 'I' for Inactive)
REMARK    1  A    between atoms: C3_3  and  O15_48
REMARK    2  A    between atoms: C6_6  and  C7_7
REMARK    3  A    between atoms: C8_8  and  O5_20
REMARK    4  A    between atoms: C11_12  and  O4_19
REMARK    5  A    between atoms: C13_14  and  O3_18
REMARK    6  A    between atoms: O5_20  and  C16_21
REMARK    7  A    between atoms: C17_23  and  O14_47
REMARK    8  A    between atoms: C18_25  and  O13_46
REMARK    9  A    between atoms: C19_27  and  O12_45
REMARK   10  A    between atoms: C20_29  and  C21_32
REMARK   11  A    between atoms: C21_32  and  O7_33
REMARK   12  A    between atoms: O7_33  and  C22_34
REMARK   13  A    between atoms: C22_34  and  C23_36
REMARK   14  A    between atoms: C25_38  and  O11_44
REMARK   15  A    between atoms: C26_39  and  O10_43
REMARK   16  A    between atoms: C27_40  and  O9_42
REMARK                            x       y       z     vdW  Elec       q    Type
REMARK                         _______ _______ _______ _____ _____    ______ ____
ROOT
ATOM     12  C   UNL     1      46.952  16.079  19.418  0.00  0.00    +0.332 C 
ATOM     13  C   UNL     1      46.456  14.681  19.799  0.00  0.00    +0.147 C 
ATOM     16  C   UNL     1      46.570  14.504  21.316  0.00  0.00    +0.168 C 
ATOM     19  C   UNL     1      45.773  15.613  22.010  0.00  0.00    +0.167 C 
ATOM     22  C   UNL     1      46.294  16.974  21.544  0.00  0.00    +0.193 C 
ATOM     39  O   UNL     1      46.188  17.062  20.121  0.00  0.00    -0.353 OA
ENDROOT
BRANCH  13  14
ATOM     14  O   UNL     1      45.091  14.534  19.401  0.00  0.00    -0.515 OA
ATOM     15  H   UNL     1      44.860  13.639  19.117  0.00  0.00    +0.377 HD
ENDBRANCH  13  14
BRANCH  16  17
ATOM     17  O   UNL     1      46.043  13.229  21.689  0.00  0.00    -0.551 OA
ATOM     18  H   UNL     1      45.360  13.271  22.373  0.00  0.00    +0.386 HD
ENDBRANCH  16  17
BRANCH  19  20
ATOM     20  O   UNL     1      44.389  15.489  21.674  0.00  0.00    -0.532 OA
ATOM     21  H   UNL     1      43.836  15.163  22.396  0.00  0.00    +0.386 HD
ENDBRANCH  19  20
BRANCH  12  11
ATOM     11  O   UNL     1      48.331  16.207  19.768  0.00  0.00    -0.306 OA
BRANCH  11  10
ATOM      9  C   UNL     1      49.737  16.441  17.884  0.00  0.00    +0.192 A 
ATOM     10  C   UNL     1      49.102  16.985  18.960  0.00  0.00    -0.079 A 
ATOM     40  C   UNL     1      49.252  18.371  19.231  0.00  0.00    +0.412 A 
ATOM     41  C   UNL     1      50.099  19.152  18.316  0.00  0.00    -0.263 A 
ATOM     42  C   UNL     1      50.302  20.525  18.508  0.00  0.00    +0.222 A 
ATOM     45  C   UNL     1      51.106  21.224  17.628  0.00  0.00    -0.054 A 
ATOM     46  C   UNL     1      51.708  20.567  16.559  0.00  0.00    +0.196 A 
ATOM     49  C   UNL     1      51.511  19.210  16.363  0.00  0.00    -0.022 A 
ATOM     50  C   UNL     1      50.708  18.490  17.236  0.00  0.00    +0.182 A 
ATOM     51  O   UNL     1      48.698  18.894  20.185  0.00  0.00    -0.447 OA
ATOM     52  O   UNL     1      50.512  17.167  17.061  0.00  0.00    -0.199 OA
BRANCH   9   8
ATOM      1  C   UNL     1      48.626  14.564  16.684  0.00  0.00    +0.088 A 
ATOM      2  C   UNL     1      48.477  13.217  16.436  0.00  0.00    -0.015 A 
ATOM      3  C   UNL     1      49.263  12.293  17.113  0.00  0.00    +0.138 A 
ATOM      6  C   UNL     1      50.204  12.722  18.041  0.00  0.00    -0.014 A 
ATOM      7  C   UNL     1      50.361  14.067  18.294  0.00  0.00    +0.087 A 
ATOM      8  C   UNL     1      49.573  15.000  17.617  0.00  0.00    -0.081 A 
BRANCH   3   4
ATOM      4  O   UNL     1      49.111  10.966  16.866  0.00  0.00    -0.496 OA
ATOM      5  H   UNL     1      49.534  10.394  17.521  0.00  0.00    +0.399 HD
ENDBRANCH   3   4
ENDBRANCH   9   8
BRANCH  42  43
ATOM     43  O   UNL     1      49.714  21.164  19.551  0.00  0.00    -0.472 OA
ATOM     44  H   UNL     1      50.151  21.015  20.401  0.00  0.00    +0.403 HD
ENDBRANCH  42  43
BRANCH  46  47
ATOM     47  O   UNL     1      52.495  21.264  15.700  0.00  0.00    -0.486 OA
ATOM     48  H   UNL     1      53.136  21.842  16.134  0.00  0.00    +0.404 HD
ENDBRANCH  46  47
ENDBRANCH  11  10
ENDBRANCH  12  11
BRANCH  22  23
ATOM     23  C   UNL     1      45.464  18.087  22.187  0.00  0.00    +0.261 C 
BRANCH  23  24
ATOM     24  O   UNL     1      44.935  18.937  21.168  0.00  0.00    -0.338 OA
BRANCH  24  25
ATOM     25  C   UNL     1      43.597  18.949  21.014  0.00  0.00    +0.510 C 
ATOM     38  O   UNL     1      42.917  18.086  21.535  0.00  0.00    -0.492 OA
BRANCH  25  26
ATOM     26  C   UNL     1      42.955  20.009  20.214  0.00  0.00    -0.098 A 
ATOM     27  C   UNL     1      43.527  21.283  20.153  0.00  0.00    +0.061 A 
ATOM     28  C   UNL     1      42.923  22.274  19.403  0.00  0.00    +0.088 A 
ATOM     31  C   UNL     1      41.747  22.005  18.708  0.00  0.00    +0.094 A 
ATOM     34  C   UNL     1      41.175  20.736  18.768  0.00  0.00    +0.090 A 
ATOM     37  C   UNL     1      41.778  19.739  19.511  0.00  0.00    +0.081 A 
BRANCH  28  29
ATOM     29  O   UNL     1      43.479  23.514  19.342  0.00  0.00    -0.476 OA
ATOM     30  H   UNL     1      44.289  23.557  18.815  0.00  0.00    +0.390 HD
ENDBRANCH  28  29
BRANCH  31  32
ATOM     32  O   UNL     1      41.156  22.981  17.971  0.00  0.00    -0.472 OA
ATOM     33  H   UNL     1      41.481  23.041  17.063  0.00  0.00    +0.391 HD
ENDBRANCH  31  32
BRANCH  34  35
ATOM     35  O   UNL     1      40.025  20.477  18.089  0.00  0.00    -0.478 OA
ATOM     36  H   UNL     1      40.124  20.492  17.127  0.00  0.00    +0.394 HD
ENDBRANCH  34  35
ENDBRANCH  25  26
ENDBRANCH  24  25
ENDBRANCH  23  24
ENDBRANCH  22  23
TORSDOF 16
ENDMDL
MODEL 6
REMARK VINA RESULT:      -7.0      2.372      6.666
REMARK  Name = ZINC77257204
REMARK  16 active torsions:
REMARK  status: ('A' for Active; 'I' for Inactive)
REMARK    1  A    between atoms: C3_3  and  O15_48
REMARK    2  A    between atoms: C6_6  and  C7_7
REMARK    3  A    between atoms: C8_8  and  O5_20
REMARK    4  A    between atoms: C11_12  and  O4_19
REMARK    5  A    between atoms: C13_14  and  O3_18
REMARK    6  A    between atoms: O5_20  and  C16_21
REMARK    7  A    between atoms: C17_23  and  O14_47
REMARK    8  A    between atoms: C18_25  and  O13_46
REMARK    9  A    between atoms: C19_27  and  O12_45
REMARK   10  A    between atoms: C20_29  and  C21_32
REMARK   11  A    between atoms: C21_32  and  O7_33
REMARK   12  A    between atoms: O7_33  and  C22_34
REMARK   13  A    between atoms: C22_34  and  C23_36
REMARK   14  A    between atoms: C25_38  and  O11_44
REMARK   15  A    between atoms: C26_39  and  O10_43
REMARK   16  A    between atoms: C27_40  and  O9_42
REMARK                            x       y       z     vdW  Elec       q    Type
REMARK                         _______ _______ _______ _____ _____    ______ ____
ROOT
ATOM     12  C   UNL     1      48.165  19.864  19.461  0.00  0.00    +0.332 C 
ATOM     13  C   UNL     1      49.278  20.140  20.476  0.00  0.00    +0.147 C 
ATOM     16  C   UNL     1      49.789  18.809  21.034  0.00  0.00    +0.168 C 
ATOM     19  C   UNL     1      50.264  17.928  19.874  0.00  0.00    +0.167 C 
ATOM     22  C   UNL     1      49.114  17.739  18.883  0.00  0.00    +0.193 C 
ATOM     39  O   UNL     1      48.665  19.016  18.424  0.00  0.00    -0.353 OA
ENDROOT
BRANCH  13  14
ATOM     14  O   UNL     1      50.350  20.831  19.832  0.00  0.00    -0.515 OA
ATOM     15  H   UNL     1      50.924  20.261  19.303  0.00  0.00    +0.377 HD
ENDBRANCH  13  14
BRANCH  16  17
ATOM     17  O   UNL     1      50.876  19.052  21.930  0.00  0.00    -0.551 OA
ATOM     18  H   UNL     1      51.745  18.854  21.555  0.00  0.00    +0.386 HD
ENDBRANCH  16  17
BRANCH  19  20
ATOM     20  O   UNL     1      51.365  18.560  19.216  0.00  0.00    -0.532 OA
ATOM     21  H   UNL     1      51.775  19.270  19.728  0.00  0.00    +0.386 HD
ENDBRANCH  19  20
BRANCH  12  11
ATOM     11  O   UNL     1      47.071  19.220  20.116  0.00  0.00    -0.306 OA
BRANCH  11  10
ATOM      9  C   UNL     1      44.915  18.716  19.293  0.00  0.00    +0.192 A 
ATOM     10  C   UNL     1      45.819  19.621  19.764  0.00  0.00    -0.079 A 
ATOM     40  C   UNL     1      45.442  20.984  19.886  0.00  0.00    +0.412 A 
ATOM     41  C   UNL     1      44.073  21.347  19.489  0.00  0.00    -0.263 A 
ATOM     42  C   UNL     1      43.617  22.669  19.576  0.00  0.00    +0.222 A 
ATOM     45  C   UNL     1      42.324  22.970  19.192  0.00  0.00    -0.054 A 
ATOM     46  C   UNL     1      41.482  21.966  18.725  0.00  0.00    +0.196 A 
ATOM     49  C   UNL     1      41.926  20.656  18.637  0.00  0.00    -0.022 A 
ATOM     50  C   UNL     1      43.221  20.334  19.016  0.00  0.00    +0.182 A 
ATOM     51  O   UNL     1      46.224  21.823  20.304  0.00  0.00    -0.447 OA
ATOM     52  O   UNL     1      43.668  19.064  18.930  0.00  0.00    -0.199 OA
BRANCH   9   8
ATOM      1  C   UNL     1      45.914  16.845  17.991  0.00  0.00    +0.088 A 
ATOM      2  C   UNL     1      46.293  15.525  17.882  0.00  0.00    -0.015 A 
ATOM      3  C   UNL     1      46.085  14.650  18.942  0.00  0.00    +0.138 A 
ATOM      6  C   UNL     1      45.496  15.102  20.116  0.00  0.00    -0.014 A 
ATOM      7  C   UNL     1      45.115  16.421  20.234  0.00  0.00    +0.087 A 
ATOM      8  C   UNL     1      45.321  17.304  19.172  0.00  0.00    -0.081 A 
BRANCH   3   4
ATOM      4  O   UNL     1      46.460  13.349  18.829  0.00  0.00    -0.496 OA
ATOM      5  H   UNL     1      45.741  12.720  18.973  0.00  0.00    +0.399 HD
ENDBRANCH   3   4
ENDBRANCH   9   8
BRANCH  42  43
ATOM     43  O   UNL     1      44.440  23.647  20.033  0.00  0.00    -0.472 OA
ATOM     44  H   UNL     1      45.268  23.726  19.541  0.00  0.00    +0.403 HD
ENDBRANCH  42  43
BRANCH  46  47
ATOM     47  O   UNL     1      40.213  22.272  18.351  0.00  0.00    -0.486 OA
ATOM     48  H   UNL     1      39.620  21.510  18.312  0.00  0.00    +0.404 HD
ENDBRANCH  46  47
ENDBRANCH  11  10
ENDBRANCH  12  11
BRANCH  22  23
ATOM     23  C   UNL     1      49.599  16.910  17.691  0.00  0.00    +0.261 C 
BRANCH  23  24
ATOM     24  O   UNL     1      50.404  15.827  18.159  0.00  0.00    -0.338 OA
BRANCH  24  25
ATOM     25  C   UNL     1      49.914  14.583  17.992  0.00  0.00    +0.510 C 
ATOM     38  O   UNL     1      49.463  13.975  18.944  0.00  0.00    -0.492 OA
BRANCH  25  26
ATOM     26  C   UNL     1      49.924  13.959  16.657  0.00  0.00    -0.098 A 
ATOM     27  C   UNL     1      48.729  13.520  16.080  0.00  0.00    +0.061 A 
ATOM     28  C   UNL     1      48.741  12.935  14.828  0.00  0.00    +0.088 A 
ATOM     31  C   UNL     1      49.943  12.781  14.142  0.00  0.00    +0.094 A 
ATOM     34  C   UNL     1      51.136  13.215  14.715  0.00  0.00    +0.090 A 
ATOM     37  C   UNL     1      51.128  13.808  15.964  0.00  0.00    +0.081 A 
BRANCH  28  29
ATOM     29  O   UNL     1      47.579  12.508  14.266  0.00  0.00    -0.476 OA
ATOM     30  H   UNL     1      47.681  12.154  13.371  0.00  0.00    +0.390 HD
ENDBRANCH  28  29
BRANCH  31  32
ATOM     32  O   UNL     1      49.952  12.205  12.912  0.00  0.00    -0.472 OA
ATOM     33  H   UNL     1      50.020  11.240  12.929  0.00  0.00    +0.391 HD
ENDBRANCH  31  32
BRANCH  34  35
ATOM     35  O   UNL     1      52.308  13.063  14.042  0.00  0.00    -0.478 OA
ATOM     36  H   UNL     1      53.043  13.571  14.412  0.00  0.00    +0.394 HD
ENDBRANCH  34  35
ENDBRANCH  25  26
ENDBRANCH  24  25
ENDBRANCH  23  24
ENDBRANCH  22  23
TORSDOF 16
ENDMDL
MODEL 7
REMARK VINA RESULT:      -6.9      2.605      7.971
REMARK  Name = ZINC77257204
REMARK  16 active torsions:
REMARK  status: ('A' for Active; 'I' for Inactive)
REMARK    1  A    between atoms: C3_3  and  O15_48
REMARK    2  A    between atoms: C6_6  and  C7_7
REMARK    3  A    between atoms: C8_8  and  O5_20
REMARK    4  A    between atoms: C11_12  and  O4_19
REMARK    5  A    between atoms: C13_14  and  O3_18
REMARK    6  A    between atoms: O5_20  and  C16_21
REMARK    7  A    between atoms: C17_23  and  O14_47
REMARK    8  A    between atoms: C18_25  and  O13_46
REMARK    9  A    between atoms: C19_27  and  O12_45
REMARK   10  A    between atoms: C20_29  and  C21_32
REMARK   11  A    between atoms: C21_32  and  O7_33
REMARK   12  A    between atoms: O7_33  and  C22_34
REMARK   13  A    between atoms: C22_34  and  C23_36
REMARK   14  A    between atoms: C25_38  and  O11_44
REMARK   15  A    between atoms: C26_39  and  O10_43
REMARK   16  A    between atoms: C27_40  and  O9_42
REMARK                            x       y       z     vdW  Elec       q    Type
REMARK                         _______ _______ _______ _____ _____    ______ ____
ROOT
ATOM     12  C   UNL     1      46.573  15.813  20.102  0.00  0.00    +0.332 C 
ATOM     13  C   UNL     1      45.470  14.788  19.825  0.00  0.00    +0.147 C 
ATOM     16  C   UNL     1      45.744  14.107  18.481  0.00  0.00    +0.168 C 
ATOM     19  C   UNL     1      47.136  13.468  18.518  0.00  0.00    +0.167 C 
ATOM     22  C   UNL     1      48.174  14.543  18.847  0.00  0.00    +0.193 C 
ATOM     39  O   UNL     1      47.844  15.158  20.094  0.00  0.00    -0.353 OA
ENDROOT
BRANCH  13  14
ATOM     14  O   UNL     1      45.457  13.807  20.864  0.00  0.00    -0.515 OA
ATOM     15  H   UNL     1      46.104  13.099  20.743  0.00  0.00    +0.377 HD
ENDBRANCH  13  14
BRANCH  16  17
ATOM     17  O   UNL     1      44.759  13.098  18.246  0.00  0.00    -0.551 OA
ATOM     18  H   UNL     1      44.207  12.903  19.015  0.00  0.00    +0.386 HD
ENDBRANCH  16  17
BRANCH  19  20
ATOM     20  O   UNL     1      47.167  12.450  19.521  0.00  0.00    -0.532 OA
ATOM     21  H   UNL     1      46.760  11.616  19.249  0.00  0.00    +0.386 HD
ENDBRANCH  19  20
BRANCH  12  11
ATOM     11  O   UNL     1      46.551  16.823  19.091  0.00  0.00    -0.306 OA
BRANCH  11  10
ATOM      9  C   UNL     1      47.735  18.834  19.454  0.00  0.00    +0.192 A 
ATOM     10  C   UNL     1      46.578  18.117  19.511  0.00  0.00    -0.079 A 
ATOM     40  C   UNL     1      45.400  18.732  20.011  0.00  0.00    +0.412 A 
ATOM     41  C   UNL     1      45.500  20.134  20.446  0.00  0.00    -0.263 A 
ATOM     42  C   UNL     1      44.387  20.819  20.953  0.00  0.00    +0.222 A 
ATOM     45  C   UNL     1      44.522  22.135  21.352  0.00  0.00    -0.054 A 
ATOM     46  C   UNL     1      45.754  22.773  21.251  0.00  0.00    +0.196 A 
ATOM     49  C   UNL     1      46.858  22.102  20.750  0.00  0.00    -0.022 A 
ATOM     50  C   UNL     1      46.744  20.781  20.345  0.00  0.00    +0.182 A 
ATOM     51  O   UNL     1      44.345  18.121  20.077  0.00  0.00    -0.447 OA
ATOM     52  O   UNL     1      47.812  20.113  19.861  0.00  0.00    -0.199 OA
BRANCH   9   8
ATOM      1  C   UNL     1      50.009  17.882  19.797  0.00  0.00    +0.088 A 
ATOM      2  C   UNL     1      51.142  17.271  19.307  0.00  0.00    -0.015 A 
ATOM      3  C   UNL     1      51.234  16.953  17.957  0.00  0.00    +0.138 A 
ATOM      6  C   UNL     1      50.185  17.249  17.096  0.00  0.00    -0.014 A 
ATOM      7  C   UNL     1      49.048  17.859  17.578  0.00  0.00    +0.087 A 
ATOM      8  C   UNL     1      48.950  18.181  18.934  0.00  0.00    -0.081 A 
BRANCH   3   4
ATOM      4  O   UNL     1      52.354  16.351  17.479  0.00  0.00    -0.496 OA
ATOM      5  H   UNL     1      53.177  16.769  17.766  0.00  0.00    +0.399 HD
ENDBRANCH   3   4
ENDBRANCH   9   8
BRANCH  42  43
ATOM     43  O   UNL     1      43.187  20.194  21.050  0.00  0.00    -0.472 OA
ATOM     44  H   UNL     1      42.429  20.795  21.045  0.00  0.00    +0.403 HD
ENDBRANCH  42  43
BRANCH  46  47
ATOM     47  O   UNL     1      45.875  24.067  21.645  0.00  0.00    -0.486 OA
ATOM     48  H   UNL     1      45.148  24.635  21.358  0.00  0.00    +0.404 HD
ENDBRANCH  46  47
ENDBRANCH  11  10
ENDBRANCH  12  11
BRANCH  22  23
ATOM     23  C   UNL     1      49.560  13.901  18.945  0.00  0.00    +0.261 C 
BRANCH  23  24
ATOM     24  O   UNL     1      49.711  12.931  17.909  0.00  0.00    -0.338 OA
BRANCH  24  25
ATOM     25  C   UNL     1      50.667  13.162  16.988  0.00  0.00    +0.510 C 
ATOM     38  O   UNL     1      51.805  13.403  17.341  0.00  0.00    -0.492 OA
BRANCH  25  26
ATOM     26  C   UNL     1      50.334  13.122  15.552  0.00  0.00    -0.098 A 
ATOM     27  C   UNL     1      51.334  13.319  14.596  0.00  0.00    +0.061 A 
ATOM     28  C   UNL     1      51.019  13.282  13.250  0.00  0.00    +0.088 A 
ATOM     31  C   UNL     1      49.707  13.048  12.848  0.00  0.00    +0.094 A 
ATOM     34  C   UNL     1      48.708  12.852  13.798  0.00  0.00    +0.090 A 
ATOM     37  C   UNL     1      49.019  12.882  15.145  0.00  0.00    +0.081 A 
BRANCH  28  29
ATOM     29  O   UNL     1      51.992  13.473  12.320  0.00  0.00    -0.476 OA
ATOM     30  H   UNL     1      52.070  12.753  11.678  0.00  0.00    +0.390 HD
ENDBRANCH  28  29
BRANCH  31  32
ATOM     32  O   UNL     1      49.400  13.012  11.525  0.00  0.00    -0.472 OA
ATOM     33  H   UNL     1      48.476  13.218  11.329  0.00  0.00    +0.391 HD
ENDBRANCH  31  32
BRANCH  34  35
ATOM     35  O   UNL     1      47.428  12.625  13.401  0.00  0.00    -0.478 OA
ATOM     36  H   UNL     1      47.084  13.285  12.783  0.00  0.00    +0.394 HD
ENDBRANCH  34  35
ENDBRANCH  25  26
ENDBRANCH  24  25
ENDBRANCH  23  24
ENDBRANCH  22  23
TORSDOF 16
ENDMDL
MODEL 8
REMARK VINA RESULT:      -6.8      2.631      8.921
REMARK  Name = ZINC77257204
REMARK  16 active torsions:
REMARK  status: ('A' for Active; 'I' for Inactive)
REMARK    1  A    between atoms: C3_3  and  O15_48
REMARK    2  A    between atoms: C6_6  and  C7_7
REMARK    3  A    between atoms: C8_8  and  O5_20
REMARK    4  A    between atoms: C11_12  and  O4_19
REMARK    5  A    between atoms: C13_14  and  O3_18
REMARK    6  A    between atoms: O5_20  and  C16_21
REMARK    7  A    between atoms: C17_23  and  O14_47
REMARK    8  A    between atoms: C18_25  and  O13_46
REMARK    9  A    between atoms: C19_27  and  O12_45
REMARK   10  A    between atoms: C20_29  and  C21_32
REMARK   11  A    between atoms: C21_32  and  O7_33
REMARK   12  A    between atoms: O7_33  and  C22_34
REMARK   13  A    between atoms: C22_34  and  C23_36
REMARK   14  A    between atoms: C25_38  and  O11_44
REMARK   15  A    between atoms: C26_39  and  O10_43
REMARK   16  A    between atoms: C27_40  and  O9_42
REMARK                            x       y       z     vdW  Elec       q    Type
REMARK                         _______ _______ _______ _____ _____    ______ ____
ROOT
ATOM     12  C   UNL     1      47.586  14.909  17.425  0.00  0.00    +0.332 C 
ATOM     13  C   UNL     1      47.427  13.421  17.098  0.00  0.00    +0.147 C 
ATOM     16  C   UNL     1      47.319  12.629  18.404  0.00  0.00    +0.168 C 
ATOM     19  C   UNL     1      46.145  13.173  19.224  0.00  0.00    +0.167 C 
ATOM     22  C   UNL     1      46.353  14.669  19.469  0.00  0.00    +0.193 C 
ATOM     39  O   UNL     1      46.477  15.344  18.214  0.00  0.00    -0.353 OA
ENDROOT
BRANCH  13  14
ATOM     14  O   UNL     1      46.243  13.227  16.322  0.00  0.00    -0.515 OA
ATOM     15  H   UNL     1      45.650  13.991  16.313  0.00  0.00    +0.377 HD
ENDBRANCH  13  14
BRANCH  16  17
ATOM     17  O   UNL     1      47.099  11.248  18.108  0.00  0.00    -0.551 OA
ATOM     18  H   UNL     1      47.782  10.658  18.455  0.00  0.00    +0.386 HD
ENDBRANCH  16  17
BRANCH  19  20
ATOM     20  O   UNL     1      44.926  12.970  18.506  0.00  0.00    -0.532 OA
ATOM     21  H   UNL     1      44.156  13.396  18.907  0.00  0.00    +0.386 HD
ENDBRANCH  19  20
BRANCH  12  11
ATOM     11  O   UNL     1      48.798  15.109  18.156  0.00  0.00    -0.306 OA
BRANCH  11  10
ATOM      9  C   UNL     1      50.697  15.864  16.972  0.00  0.00    +0.192 A 
ATOM     10  C   UNL     1      49.605  16.125  17.745  0.00  0.00    -0.079 A 
ATOM     40  C   UNL     1      49.317  17.464  18.116  0.00  0.00    +0.412 A 
ATOM     41  C   UNL     1      50.231  18.512  17.636  0.00  0.00    -0.263 A 
ATOM     42  C   UNL     1      50.022  19.861  17.956  0.00  0.00    +0.222 A 
ATOM     45  C   UNL     1      50.904  20.816  17.487  0.00  0.00    -0.054 A 
ATOM     46  C   UNL     1      51.990  20.438  16.703  0.00  0.00    +0.196 A 
ATOM     49  C   UNL     1      52.202  19.107  16.383  0.00  0.00    -0.022 A 
ATOM     50  C   UNL     1      51.329  18.134  16.845  0.00  0.00    +0.182 A 
ATOM     51  O   UNL     1      48.347  17.736  18.807  0.00  0.00    -0.447 OA
ATOM     52  O   UNL     1      51.526  16.833  16.546  0.00  0.00    -0.199 OA
BRANCH   9   8
ATOM      1  C   UNL     1      51.588  13.605  17.516  0.00  0.00    +0.088 A 
ATOM      2  C   UNL     1      51.853  12.300  17.160  0.00  0.00    -0.015 A 
ATOM      3  C   UNL     1      51.524  11.843  15.890  0.00  0.00    +0.138 A 
ATOM      6  C   UNL     1      50.924  12.698  14.973  0.00  0.00    -0.014 A 
ATOM      7  C   UNL     1      50.654  14.004  15.320  0.00  0.00    +0.087 A 
ATOM      8  C   UNL     1      50.984  14.468  16.596  0.00  0.00    -0.081 A 
BRANCH   3   4
ATOM      4  O   UNL     1      51.788  10.557  15.544  0.00  0.00    -0.496 OA
ATOM      5  H   UNL     1      52.653  10.431  15.131  0.00  0.00    +0.399 HD
ENDBRANCH   3   4
ENDBRANCH   9   8
BRANCH  42  43
ATOM     43  O   UNL     1      48.962  20.226  18.720  0.00  0.00    -0.472 OA
ATOM     44  H   UNL     1      48.132  19.796  18.472  0.00  0.00    +0.403 HD
ENDBRANCH  42  43
BRANCH  46  47
ATOM     47  O   UNL     1      52.850  21.385  16.246  0.00  0.00    -0.486 OA
ATOM     48  H   UNL     1      52.469  22.272  16.199  0.00  0.00    +0.404 HD
ENDBRANCH  46  47
ENDBRANCH  11  10
ENDBRANCH  12  11
BRANCH  22  23
ATOM     23  C   UNL     1      45.155  15.233  20.236  0.00  0.00    +0.261 C 
BRANCH  23  24
ATOM     24  O   UNL     1      45.235  16.659  20.263  0.00  0.00    -0.338 OA
BRANCH  24  25
ATOM     25  C   UNL     1      44.516  17.295  21.208  0.00  0.00    +0.510 C 
ATOM     38  O   UNL     1      44.768  17.119  22.385  0.00  0.00    -0.492 OA
BRANCH  25  26
ATOM     26  C   UNL     1      43.422  18.204  20.817  0.00  0.00    -0.098 A 
ATOM     27  C   UNL     1      42.318  18.373  21.657  0.00  0.00    +0.061 A 
ATOM     28  C   UNL     1      41.295  19.225  21.288  0.00  0.00    +0.088 A 
ATOM     31  C   UNL     1      41.363  19.914  20.080  0.00  0.00    +0.094 A 
ATOM     34  C   UNL     1      42.461  19.746  19.240  0.00  0.00    +0.090 A 
ATOM     37  C   UNL     1      43.491  18.900  19.608  0.00  0.00    +0.081 A 
BRANCH  28  29
ATOM     29  O   UNL     1      40.221  19.391  22.105  0.00  0.00    -0.476 OA
ATOM     30  H   UNL     1      39.886  20.299  22.135  0.00  0.00    +0.390 HD
ENDBRANCH  28  29
BRANCH  31  32
ATOM     32  O   UNL     1      40.355  20.751  19.719  0.00  0.00    -0.472 OA
ATOM     33  H   UNL     1      40.558  21.305  18.953  0.00  0.00    +0.391 HD
ENDBRANCH  31  32
BRANCH  34  35
ATOM     35  O   UNL     1      42.523  20.420  18.060  0.00  0.00    -0.478 OA
ATOM     36  H   UNL     1      42.099  21.288  18.080  0.00  0.00    +0.394 HD
ENDBRANCH  34  35
ENDBRANCH  25  26
ENDBRANCH  24  25
ENDBRANCH  23  24
ENDBRANCH  22  23
TORSDOF 16
ENDMDL
MODEL 9
REMARK VINA RESULT:      -6.8      2.354      7.960
REMARK  Name = ZINC77257204
REMARK  16 active torsions:
REMARK  status: ('A' for Active; 'I' for Inactive)
REMARK    1  A    between atoms: C3_3  and  O15_48
REMARK    2  A    between atoms: C6_6  and  C7_7
REMARK    3  A    between atoms: C8_8  and  O5_20
REMARK    4  A    between atoms: C11_12  and  O4_19
REMARK    5  A    between atoms: C13_14  and  O3_18
REMARK    6  A    between atoms: O5_20  and  C16_21
REMARK    7  A    between atoms: C17_23  and  O14_47
REMARK    8  A    between atoms: C18_25  and  O13_46
REMARK    9  A    between atoms: C19_27  and  O12_45
REMARK   10  A    between atoms: C20_29  and  C21_32
REMARK   11  A    between atoms: C21_32  and  O7_33
REMARK   12  A    between atoms: O7_33  and  C22_34
REMARK   13  A    between atoms: C22_34  and  C23_36
REMARK   14  A    between atoms: C25_38  and  O11_44
REMARK   15  A    between atoms: C26_39  and  O10_43
REMARK   16  A    between atoms: C27_40  and  O9_42
REMARK                            x       y       z     vdW  Elec       q    Type
REMARK                         _______ _______ _______ _____ _____    ______ ____
ROOT
ATOM     12  C   UNL     1      49.190  17.503  18.295  0.00  0.00    +0.332 C 
ATOM     13  C   UNL     1      50.614  17.871  17.866  0.00  0.00    +0.147 C 
ATOM     16  C   UNL     1      51.609  17.278  18.868  0.00  0.00    +0.168 C 
ATOM     19  C   UNL     1      51.398  15.763  18.945  0.00  0.00    +0.167 C 
ATOM     22  C   UNL     1      49.945  15.476  19.331  0.00  0.00    +0.193 C 
ATOM     39  O   UNL     1      49.071  16.081  18.376  0.00  0.00    -0.353 OA
ENDROOT
BRANCH  13  14
ATOM     14  O   UNL     1      50.872  17.342  16.564  0.00  0.00    -0.515 OA
ATOM     15  H   UNL     1      51.429  17.908  16.014  0.00  0.00    +0.377 HD
ENDBRANCH  13  14
BRANCH  16  17
ATOM     17  O   UNL     1      52.943  17.556  18.437  0.00  0.00    -0.551 OA
ATOM     18  H   UNL     1      53.551  17.772  19.157  0.00  0.00    +0.386 HD
ENDBRANCH  16  17
BRANCH  19  20
ATOM     20  O   UNL     1      51.680  15.176  17.672  0.00  0.00    -0.532 OA
ATOM     21  H   UNL     1      51.829  15.820  16.966  0.00  0.00    +0.386 HD
ENDBRANCH  19  20
BRANCH  12  11
ATOM     11  O   UNL     1      48.914  18.078  19.574  0.00  0.00    -0.306 OA
BRANCH  11  10
ATOM      9  C   UNL     1      48.293  20.357  19.601  0.00  0.00    +0.192 A 
ATOM     10  C   UNL     1      47.951  19.037  19.624  0.00  0.00    -0.079 A 
ATOM     40  C   UNL     1      46.580  18.674  19.698  0.00  0.00    +0.412 A 
ATOM     41  C   UNL     1      45.592  19.762  19.748  0.00  0.00    -0.263 A 
ATOM     42  C   UNL     1      44.218  19.494  19.823  0.00  0.00    +0.222 A 
ATOM     45  C   UNL     1      43.322  20.545  19.869  0.00  0.00    -0.054 A 
ATOM     46  C   UNL     1      43.781  21.858  19.840  0.00  0.00    +0.196 A 
ATOM     49  C   UNL     1      45.137  22.130  19.766  0.00  0.00    -0.022 A 
ATOM     50  C   UNL     1      46.054  21.090  19.720  0.00  0.00    +0.182 A 
ATOM     51  O   UNL     1      46.236  17.503  19.720  0.00  0.00    -0.447 OA
ATOM     52  O   UNL     1      47.378  21.340  19.653  0.00  0.00    -0.199 OA
BRANCH   9   8
ATOM      1  C   UNL     1      50.300  21.023  18.288  0.00  0.00    +0.088 A 
ATOM      2  C   UNL     1      51.634  21.362  18.221  0.00  0.00    -0.015 A 
ATOM      3  C   UNL     1      52.402  21.400  19.379  0.00  0.00    +0.138 A 
ATOM      6  C   UNL     1      51.830  21.098  20.608  0.00  0.00    -0.014 A 
ATOM      7  C   UNL     1      50.497  20.759  20.685  0.00  0.00    +0.087 A 
ATOM      8  C   UNL     1      49.720  20.719  19.524  0.00  0.00    -0.081 A 
BRANCH   3   4
ATOM      4  O   UNL     1      53.717  21.733  19.307  0.00  0.00    -0.496 OA
ATOM      5  H   UNL     1      54.102  21.997  20.153  0.00  0.00    +0.399 HD
ENDBRANCH   3   4
ENDBRANCH   9   8
BRANCH  42  43
ATOM     43  O   UNL     1      43.773  18.213  19.850  0.00  0.00    -0.472 OA
ATOM     44  H   UNL     1      42.829  18.128  20.044  0.00  0.00    +0.403 HD
ENDBRANCH  42  43
BRANCH  46  47
ATOM     47  O   UNL     1      42.891  22.882  19.885  0.00  0.00    -0.486 OA
ATOM     48  H   UNL     1      43.280  23.731  20.135  0.00  0.00    +0.404 HD
ENDBRANCH  46  47
ENDBRANCH  11  10
ENDBRANCH  12  11
BRANCH  22  23
ATOM     23  C   UNL     1      49.711  13.964  19.352  0.00  0.00    +0.261 C 
BRANCH  23  24
ATOM     24  O   UNL     1      48.976  13.580  18.189  0.00  0.00    -0.338 OA
BRANCH  24  25
ATOM     25  C   UNL     1      49.480  12.571  17.451  0.00  0.00    +0.510 C 
ATOM     38  O   UNL     1      49.894  11.567  17.998  0.00  0.00    -0.492 OA
BRANCH  25  26
ATOM     26  C   UNL     1      49.530  12.685  15.982  0.00  0.00    -0.098 A 
ATOM     27  C   UNL     1      50.761  12.801  15.331  0.00  0.00    +0.061 A 
ATOM     28  C   UNL     1      50.805  12.908  13.954  0.00  0.00    +0.088 A 
ATOM     31  C   UNL     1      49.625  12.900  13.215  0.00  0.00    +0.094 A 
ATOM     34  C   UNL     1      48.397  12.786  13.862  0.00  0.00    +0.090 A 
ATOM     37  C   UNL     1      48.347  12.671  15.238  0.00  0.00    +0.081 A 
BRANCH  28  29
ATOM     29  O   UNL     1      52.003  13.021  13.319  0.00  0.00    -0.476 OA
ATOM     30  H   UNL     1      52.154  12.347  12.641  0.00  0.00    +0.390 HD
ENDBRANCH  28  29
BRANCH  31  32
ATOM     32  O   UNL     1      49.671  13.006  11.862  0.00  0.00    -0.472 OA
ATOM     33  H   UNL     1      49.661  13.917  11.537  0.00  0.00    +0.391 HD
ENDBRANCH  31  32
BRANCH  34  35
ATOM     35  O   UNL     1      47.246  12.779  13.137  0.00  0.00    -0.478 OA
ATOM     36  H   UNL     1      46.509  12.327  13.572  0.00  0.00    +0.394 HD
ENDBRANCH  34  35
ENDBRANCH  25  26
ENDBRANCH  24  25
ENDBRANCH  23  24
ENDBRANCH  22  23
TORSDOF 16
ENDMDL
