MODEL 1
REMARK VINA RESULT:      -6.6      0.000      0.000
REMARK  Name = ZINC95485978
REMARK  13 active torsions:
REMARK  status: ('A' for Active; 'I' for Inactive)
REMARK    1  A    between atoms: C1_1  and  C2_2
REMARK    2  A    between atoms: C2_2  and  C29_35
REMARK    3  A    between atoms: C3_3  and  C4_4
REMARK    4  A    between atoms: C4_4  and  C5_5
REMARK    5  A    between atoms: C5_5  and  C6_6
REMARK    6  A    between atoms: C6_6  and  C23_29
REMARK    7  A    between atoms: C10_11  and  C12_14
REMARK    8  A    between atoms: C20_24  and  O6_27
REMARK    9  A    between atoms: O6_27  and  C22_28
REMARK   10  A    between atoms: C23_29  and  C24_30
REMARK   11  A    between atoms: C24_30  and  C25_31
REMARK   12  A    between atoms: C26_32  and  C27_33
REMARK   13  A    between atoms: C26_32  and  C28_34
REMARK                            x       y       z     vdW  Elec       q    Type
REMARK                         _______ _______ _______ _____ _____    ______ ____
ROOT
ATOM      7  C   UNL     1      48.266  16.527  18.959  0.00  0.00    -0.040 C 
ATOM     14  C   UNL     1      47.129  17.484  19.178  0.00  0.00    +0.153 A 
ATOM     15  C   UNL     1      46.117  17.203  20.067  0.00  0.00    -0.222 A 
ATOM     16  C   UNL     1      46.108  15.968  20.849  0.00  0.00    +0.039 C 
ATOM     17  C   UNL     1      47.109  15.065  20.700  0.00  0.00    +0.007 C 
ATOM     20  C   UNL     1      45.023  18.182  20.221  0.00  0.00    +0.427 A 
ATOM     21  C   UNL     1      44.946  19.233  19.190  0.00  0.00    -0.223 A 
ATOM     31  C   UNL     1      46.021  19.384  18.370  0.00  0.00    +0.325 A 
ATOM     32  O   UNL     1      44.231  18.125  21.146  0.00  0.00    -0.451 OA
ATOM     33  O   UNL     1      47.116  18.635  18.491  0.00  0.00    -0.198 OA
ATOM     34  C   UNL     1      48.161  15.298  19.801  0.00  0.00    +0.413 C 
ATOM     35  O   UNL     1      49.032  14.456  19.703  0.00  0.00    -0.413 OA
ENDROOT
BRANCH  21  22
ATOM     22  C   UNL     1      43.744  20.090  19.050  0.00  0.00    -0.022 A 
ATOM     23  C   UNL     1      43.774  21.412  19.492  0.00  0.00    +0.067 A 
ATOM     24  C   UNL     1      42.654  22.209  19.363  0.00  0.00    +0.043 A 
ATOM     25  C   UNL     1      41.498  21.700  18.793  0.00  0.00    +0.041 A 
ATOM     26  C   UNL     1      41.462  20.379  18.349  0.00  0.00    +0.033 A 
ATOM     27  O   UNL     1      40.223  20.125  17.833  0.00  0.00    -0.308 OA
ATOM     28  C   UNL     1      39.376  21.174  18.337  0.00  0.00    +0.434 C 
ATOM     29  O   UNL     1      40.282  22.273  18.555  0.00  0.00    -0.307 OA
ATOM     30  C   UNL     1      42.584  19.578  18.471  0.00  0.00    +0.050 A 
ENDBRANCH  21  22
BRANCH  17  18
ATOM     18  O   UNL     1      47.093  13.918  21.432  0.00  0.00    -0.291 OA
ATOM     19  C   UNL     1      45.820  13.460  21.893  0.00  0.00    +0.247 C 
ENDBRANCH  17  18
BRANCH   7   6
ATOM      6  C   UNL     1      49.580  17.239  19.289  0.00  0.00    +0.090 C 
BRANCH   6   5
ATOM      5  C   UNL     1      50.331  17.551  17.993  0.00  0.00    +0.041 C 
BRANCH   5   4
ATOM      1  C   UNL     1      51.791  18.614  15.827  0.00  0.00    +0.071 C 
ATOM      2  C   UNL     1      51.247  19.529  16.894  0.00  0.00    -0.125 C 
ATOM      3  C   UNL     1      51.537  21.007  16.838  0.00  0.00    +0.075 C 
ATOM      4  C   UNL     1      50.520  19.041  17.867  0.00  0.00    -0.055 C 
ENDBRANCH   5   4
ENDBRANCH   6   5
ENDBRANCH   7   6
BRANCH   7   8
ATOM      8  C   UNL     1      48.286  16.116  17.485  0.00  0.00    +0.091 C 
BRANCH   8   9
ATOM      9  C   UNL     1      46.940  15.490  17.113  0.00  0.00    +0.040 C 
BRANCH   9  10
ATOM     10  C   UNL     1      47.174  14.166  16.431  0.00  0.00    -0.058 C 
ATOM     11  C   UNL     1      46.629  13.076  16.912  0.00  0.00    -0.121 C 
ATOM     12  C   UNL     1      46.995  11.733  16.335  0.00  0.00    +0.076 C 
ATOM     13  C   UNL     1      45.637  13.164  18.044  0.00  0.00    +0.071 C 
ENDBRANCH   9  10
ENDBRANCH   8   9
ENDBRANCH   7   8
TORSDOF 8
ENDMDL
MODEL 2
REMARK VINA RESULT:      -6.3      2.210      6.809
REMARK  Name = ZINC95485978
REMARK  13 active torsions:
REMARK  status: ('A' for Active; 'I' for Inactive)
REMARK    1  A    between atoms: C1_1  and  C2_2
REMARK    2  A    between atoms: C2_2  and  C29_35
REMARK    3  A    between atoms: C3_3  and  C4_4
REMARK    4  A    between atoms: C4_4  and  C5_5
REMARK    5  A    between atoms: C5_5  and  C6_6
REMARK    6  A    between atoms: C6_6  and  C23_29
REMARK    7  A    between atoms: C10_11  and  C12_14
REMARK    8  A    between atoms: C20_24  and  O6_27
REMARK    9  A    between atoms: O6_27  and  C22_28
REMARK   10  A    between atoms: C23_29  and  C24_30
REMARK   11  A    between atoms: C24_30  and  C25_31
REMARK   12  A    between atoms: C26_32  and  C27_33
REMARK   13  A    between atoms: C26_32  and  C28_34
REMARK                            x       y       z     vdW  Elec       q    Type
REMARK                         _______ _______ _______ _____ _____    ______ ____
ROOT
ATOM      7  C   UNL     1      47.396  19.148  20.477  0.00  0.00    -0.040 C 
ATOM     14  C   UNL     1      47.552  18.041  19.472  0.00  0.00    +0.153 A 
ATOM     15  C   UNL     1      46.704  17.926  18.396  0.00  0.00    -0.222 A 
ATOM     16  C   UNL     1      45.619  18.880  18.171  0.00  0.00    +0.039 C 
ATOM     17  C   UNL     1      45.428  19.904  19.040  0.00  0.00    +0.007 C 
ATOM     20  C   UNL     1      46.906  16.805  17.456  0.00  0.00    +0.427 A 
ATOM     21  C   UNL     1      47.807  15.732  17.915  0.00  0.00    -0.223 A 
ATOM     31  C   UNL     1      48.578  15.987  19.007  0.00  0.00    +0.325 A 
ATOM     32  O   UNL     1      46.363  16.770  16.365  0.00  0.00    -0.451 OA
ATOM     33  O   UNL     1      48.549  17.160  19.637  0.00  0.00    -0.198 OA
ATOM     34  C   UNL     1      46.259  20.063  20.158  0.00  0.00    +0.413 C 
ATOM     35  O   UNL     1      46.044  20.996  20.908  0.00  0.00    -0.413 OA
ENDROOT
BRANCH  21  22
ATOM     22  C   UNL     1      47.868  14.425  17.217  0.00  0.00    -0.022 A 
ATOM     23  C   UNL     1      49.000  14.080  16.480  0.00  0.00    +0.067 A 
ATOM     24  C   UNL     1      49.057  12.864  15.829  0.00  0.00    +0.043 A 
ATOM     25  C   UNL     1      47.990  11.982  15.906  0.00  0.00    +0.041 A 
ATOM     26  C   UNL     1      46.856  12.322  16.640  0.00  0.00    +0.033 A 
ATOM     27  O   UNL     1      45.959  11.295  16.559  0.00  0.00    -0.308 OA
ATOM     28  C   UNL     1      46.386  10.502  15.436  0.00  0.00    +0.434 C 
ATOM     29  O   UNL     1      47.804  10.743  15.365  0.00  0.00    -0.307 OA
ATOM     30  C   UNL     1      46.797  13.537  17.299  0.00  0.00    +0.050 A 
ENDBRANCH  21  22
BRANCH  17  18
ATOM     18  O   UNL     1      44.416  20.788  18.823  0.00  0.00    -0.291 OA
ATOM     19  C   UNL     1      43.082  20.300  18.986  0.00  0.00    +0.247 C 
ENDBRANCH  17  18
BRANCH   7   6
ATOM      6  C   UNL     1      48.690  19.963  20.517  0.00  0.00    +0.090 C 
BRANCH   6   5
ATOM      5  C   UNL     1      48.955  20.568  19.137  0.00  0.00    +0.041 C 
BRANCH   5   4
ATOM      1  C   UNL     1      50.558  18.940  17.483  0.00  0.00    +0.071 C 
ATOM      2  C   UNL     1      51.181  20.066  18.268  0.00  0.00    -0.125 C 
ATOM      3  C   UNL     1      52.672  20.282  18.220  0.00  0.00    +0.075 C 
ATOM      4  C   UNL     1      50.427  20.857  18.990  0.00  0.00    -0.055 C 
ENDBRANCH   5   4
ENDBRANCH   6   5
ENDBRANCH   7   6
BRANCH   7   8
ATOM      8  C   UNL     1      47.160  18.530  21.856  0.00  0.00    +0.091 C 
BRANCH   8   9
ATOM      9  C   UNL     1      45.928  17.623  21.805  0.00  0.00    +0.040 C 
BRANCH   9  10
ATOM     10  C   UNL     1      46.303  16.239  22.269  0.00  0.00    -0.058 C 
ATOM     11  C   UNL     1      45.835  15.189  21.642  0.00  0.00    -0.121 C 
ATOM     12  C   UNL     1      46.069  13.810  22.204  0.00  0.00    +0.076 C 
ATOM     13  C   UNL     1      45.061  15.358  20.360  0.00  0.00    +0.071 C 
ENDBRANCH   9  10
ENDBRANCH   8   9
ENDBRANCH   7   8
TORSDOF 8
ENDMDL
MODEL 3
REMARK VINA RESULT:      -6.3      1.922      3.052
REMARK  Name = ZINC95485978
REMARK  13 active torsions:
REMARK  status: ('A' for Active; 'I' for Inactive)
REMARK    1  A    between atoms: C1_1  and  C2_2
REMARK    2  A    between atoms: C2_2  and  C29_35
REMARK    3  A    between atoms: C3_3  and  C4_4
REMARK    4  A    between atoms: C4_4  and  C5_5
REMARK    5  A    between atoms: C5_5  and  C6_6
REMARK    6  A    between atoms: C6_6  and  C23_29
REMARK    7  A    between atoms: C10_11  and  C12_14
REMARK    8  A    between atoms: C20_24  and  O6_27
REMARK    9  A    between atoms: O6_27  and  C22_28
REMARK   10  A    between atoms: C23_29  and  C24_30
REMARK   11  A    between atoms: C24_30  and  C25_31
REMARK   12  A    between atoms: C26_32  and  C27_33
REMARK   13  A    between atoms: C26_32  and  C28_34
REMARK                            x       y       z     vdW  Elec       q    Type
REMARK                         _______ _______ _______ _____ _____    ______ ____
ROOT
ATOM      7  C   UNL     1      49.780  16.552  18.466  0.00  0.00    -0.040 C 
ATOM     14  C   UNL     1      48.516  17.317  18.739  0.00  0.00    +0.153 A 
ATOM     15  C   UNL     1      48.344  18.021  19.909  0.00  0.00    -0.222 A 
ATOM     16  C   UNL     1      49.386  18.070  20.933  0.00  0.00    +0.039 C 
ATOM     17  C   UNL     1      50.553  17.403  20.743  0.00  0.00    +0.007 C 
ATOM     20  C   UNL     1      47.071  18.738  20.118  0.00  0.00    +0.427 A 
ATOM     21  C   UNL     1      45.974  18.391  19.196  0.00  0.00    -0.223 A 
ATOM     31  C   UNL     1      46.296  17.674  18.084  0.00  0.00    +0.325 A 
ATOM     32  O   UNL     1      46.934  19.569  21.000  0.00  0.00    -0.451 OA
ATOM     33  O   UNL     1      47.547  17.311  17.813  0.00  0.00    -0.198 OA
ATOM     34  C   UNL     1      50.776  16.663  19.573  0.00  0.00    +0.413 C 
ATOM     35  O   UNL     1      51.837  16.082  19.453  0.00  0.00    -0.413 OA
ENDROOT
BRANCH  21  22
ATOM     22  C   UNL     1      44.576  18.802  19.470  0.00  0.00    -0.022 A 
ATOM     23  C   UNL     1      43.853  18.184  20.489  0.00  0.00    +0.067 A 
ATOM     24  C   UNL     1      42.552  18.566  20.743  0.00  0.00    +0.043 A 
ATOM     25  C   UNL     1      41.959  19.566  19.988  0.00  0.00    +0.041 A 
ATOM     26  C   UNL     1      42.676  20.188  18.967  0.00  0.00    +0.033 A 
ATOM     27  O   UNL     1      41.877  21.127  18.381  0.00  0.00    -0.308 OA
ATOM     28  C   UNL     1      40.535  20.791  18.780  0.00  0.00    +0.434 C 
ATOM     29  O   UNL     1      40.710  20.116  20.040  0.00  0.00    -0.307 OA
ATOM     30  C   UNL     1      43.983  19.811  18.713  0.00  0.00    +0.050 A 
ENDBRANCH  21  22
BRANCH  17  18
ATOM     18  O   UNL     1      51.518  17.454  21.702  0.00  0.00    -0.291 OA
ATOM     19  C   UNL     1      52.267  18.666  21.805  0.00  0.00    +0.247 C 
ENDBRANCH  17  18
BRANCH   7   6
ATOM      6  C   UNL     1      50.412  17.088  17.179  0.00  0.00    +0.090 C 
BRANCH   6   5
ATOM      5  C   UNL     1      50.295  18.613  17.150  0.00  0.00    +0.041 C 
BRANCH   5   4
ATOM      1  C   UNL     1      50.128  20.960  18.704  0.00  0.00    +0.071 C 
ATOM      2  C   UNL     1      51.472  20.345  18.405  0.00  0.00    -0.125 C 
ATOM      3  C   UNL     1      52.732  21.020  18.882  0.00  0.00    +0.075 C 
ATOM      4  C   UNL     1      51.544  19.224  17.733  0.00  0.00    -0.055 C 
ENDBRANCH   5   4
ENDBRANCH   6   5
ENDBRANCH   7   6
BRANCH   7   8
ATOM      8  C   UNL     1      49.428  15.077  18.264  0.00  0.00    +0.091 C 
BRANCH   8   9
ATOM      9  C   UNL     1      48.671  14.562  19.490  0.00  0.00    +0.040 C 
BRANCH   9  10
ATOM     10  C   UNL     1      47.385  13.912  19.049  0.00  0.00    -0.058 C 
ATOM     11  C   UNL     1      46.285  14.105  19.736  0.00  0.00    -0.121 C 
ATOM     12  C   UNL     1      45.041  13.325  19.398  0.00  0.00    +0.076 C 
ATOM     13  C   UNL     1      46.265  15.104  20.863  0.00  0.00    +0.071 C 
ENDBRANCH   9  10
ENDBRANCH   8   9
ENDBRANCH   7   8
TORSDOF 8
ENDMDL
MODEL 4
REMARK VINA RESULT:      -6.2      2.155      5.374
REMARK  Name = ZINC95485978
REMARK  13 active torsions:
REMARK  status: ('A' for Active; 'I' for Inactive)
REMARK    1  A    between atoms: C1_1  and  C2_2
REMARK    2  A    between atoms: C2_2  and  C29_35
REMARK    3  A    between atoms: C3_3  and  C4_4
REMARK    4  A    between atoms: C4_4  and  C5_5
REMARK    5  A    between atoms: C5_5  and  C6_6
REMARK    6  A    between atoms: C6_6  and  C23_29
REMARK    7  A    between atoms: C10_11  and  C12_14
REMARK    8  A    between atoms: C20_24  and  O6_27
REMARK    9  A    between atoms: O6_27  and  C22_28
REMARK   10  A    between atoms: C23_29  and  C24_30
REMARK   11  A    between atoms: C24_30  and  C25_31
REMARK   12  A    between atoms: C26_32  and  C27_33
REMARK   13  A    between atoms: C26_32  and  C28_34
REMARK                            x       y       z     vdW  Elec       q    Type
REMARK                         _______ _______ _______ _____ _____    ______ ____
ROOT
ATOM      7  C   UNL     1      49.257  17.462  20.894  0.00  0.00    -0.040 C 
ATOM     14  C   UNL     1      47.934  18.006  20.432  0.00  0.00    +0.153 A 
ATOM     15  C   UNL     1      47.654  18.170  19.095  0.00  0.00    -0.222 A 
ATOM     16  C   UNL     1      48.623  17.812  18.061  0.00  0.00    +0.039 C 
ATOM     17  C   UNL     1      49.835  17.312  18.413  0.00  0.00    +0.007 C 
ATOM     20  C   UNL     1      46.340  18.724  18.714  0.00  0.00    +0.427 A 
ATOM     21  C   UNL     1      45.556  19.337  19.801  0.00  0.00    -0.223 A 
ATOM     31  C   UNL     1      45.964  19.098  21.078  0.00  0.00    +0.325 A 
ATOM     32  O   UNL     1      45.926  18.675  17.568  0.00  0.00    -0.451 OA
ATOM     33  O   UNL     1      47.014  18.326  21.353  0.00  0.00    -0.198 OA
ATOM     34  C   UNL     1      50.174  17.132  19.762  0.00  0.00    +0.413 C 
ATOM     35  O   UNL     1      51.273  16.683  20.024  0.00  0.00    -0.413 OA
ENDROOT
BRANCH  21  22
ATOM     22  C   UNL     1      44.373  20.184  19.517  0.00  0.00    -0.022 A 
ATOM     23  C   UNL     1      44.404  21.547  19.808  0.00  0.00    +0.067 A 
ATOM     24  C   UNL     1      43.302  22.335  19.544  0.00  0.00    +0.043 A 
ATOM     25  C   UNL     1      42.161  21.776  18.989  0.00  0.00    +0.041 A 
ATOM     26  C   UNL     1      42.124  20.413  18.697  0.00  0.00    +0.033 A 
ATOM     27  O   UNL     1      40.903  20.114  18.163  0.00  0.00    -0.308 OA
ATOM     28  C   UNL     1      40.052  21.222  18.511  0.00  0.00    +0.434 C 
ATOM     29  O   UNL     1      40.963  22.329  18.639  0.00  0.00    -0.307 OA
ATOM     30  C   UNL     1      43.229  19.621  18.954  0.00  0.00    +0.050 A 
ENDBRANCH  21  22
BRANCH  17  18
ATOM     18  O   UNL     1      50.731  16.982  17.444  0.00  0.00    -0.291 OA
ATOM     19  C   UNL     1      51.282  18.054  16.677  0.00  0.00    +0.247 C 
ENDBRANCH  17  18
BRANCH   7   6
ATOM      6  C   UNL     1      49.009  16.195  21.714  0.00  0.00    +0.090 C 
BRANCH   6   5
ATOM      5  C   UNL     1      48.180  15.207  20.890  0.00  0.00    +0.041 C 
BRANCH   5   4
ATOM      1  C   UNL     1      45.426  15.359  20.303  0.00  0.00    +0.071 C 
ATOM      2  C   UNL     1      45.896  14.644  21.544  0.00  0.00    -0.125 C 
ATOM      3  C   UNL     1      44.891  14.065  22.505  0.00  0.00    +0.075 C 
ATOM      4  C   UNL     1      47.178  14.524  21.785  0.00  0.00    -0.055 C 
ENDBRANCH   5   4
ENDBRANCH   6   5
ENDBRANCH   7   6
BRANCH   7   8
ATOM      8  C   UNL     1      49.931  18.504  21.789  0.00  0.00    +0.091 C 
BRANCH   8   9
ATOM      9  C   UNL     1      49.768  19.892  21.166  0.00  0.00    +0.040 C 
BRANCH   9  10
ATOM     10  C   UNL     1      51.119  20.416  20.748  0.00  0.00    -0.058 C 
ATOM     11  C   UNL     1      51.302  20.857  19.528  0.00  0.00    -0.121 C 
ATOM     12  C   UNL     1      52.686  21.222  19.059  0.00  0.00    +0.076 C 
ATOM     13  C   UNL     1      50.128  20.998  18.593  0.00  0.00    +0.071 C 
ENDBRANCH   9  10
ENDBRANCH   8   9
ENDBRANCH   7   8
TORSDOF 8
ENDMDL
MODEL 5
REMARK VINA RESULT:      -6.2      2.189      7.999
REMARK  Name = ZINC95485978
REMARK  13 active torsions:
REMARK  status: ('A' for Active; 'I' for Inactive)
REMARK    1  A    between atoms: C1_1  and  C2_2
REMARK    2  A    between atoms: C2_2  and  C29_35
REMARK    3  A    between atoms: C3_3  and  C4_4
REMARK    4  A    between atoms: C4_4  and  C5_5
REMARK    5  A    between atoms: C5_5  and  C6_6
REMARK    6  A    between atoms: C6_6  and  C23_29
REMARK    7  A    between atoms: C10_11  and  C12_14
REMARK    8  A    between atoms: C20_24  and  O6_27
REMARK    9  A    between atoms: O6_27  and  C22_28
REMARK   10  A    between atoms: C23_29  and  C24_30
REMARK   11  A    between atoms: C24_30  and  C25_31
REMARK   12  A    between atoms: C26_32  and  C27_33
REMARK   13  A    between atoms: C26_32  and  C28_34
REMARK                            x       y       z     vdW  Elec       q    Type
REMARK                         _______ _______ _______ _____ _____    ______ ____
ROOT
ATOM      7  C   UNL     1      45.502  19.408  19.291  0.00  0.00    -0.040 C 
ATOM     14  C   UNL     1      45.936  18.142  18.607  0.00  0.00    +0.153 A 
ATOM     15  C   UNL     1      45.776  16.914  19.206  0.00  0.00    -0.222 A 
ATOM     16  C   UNL     1      45.164  16.781  20.527  0.00  0.00    +0.039 C 
ATOM     17  C   UNL     1      44.748  17.886  21.194  0.00  0.00    +0.007 C 
ATOM     20  C   UNL     1      46.239  15.713  18.483  0.00  0.00    +0.427 A 
ATOM     21  C   UNL     1      47.109  15.955  17.318  0.00  0.00    -0.223 A 
ATOM     31  C   UNL     1      47.180  17.229  16.845  0.00  0.00    +0.325 A 
ATOM     32  O   UNL     1      45.919  14.588  18.828  0.00  0.00    -0.451 OA
ATOM     33  O   UNL     1      46.483  18.226  17.386  0.00  0.00    -0.198 OA
ATOM     34  C   UNL     1      44.895  19.163  20.633  0.00  0.00    +0.413 C 
ATOM     35  O   UNL     1      44.508  20.121  21.273  0.00  0.00    -0.413 OA
ENDROOT
BRANCH  21  22
ATOM     22  C   UNL     1      47.878  14.855  16.687  0.00  0.00    -0.022 A 
ATOM     23  C   UNL     1      47.222  13.899  15.913  0.00  0.00    +0.067 A 
ATOM     24  C   UNL     1      47.939  12.875  15.327  0.00  0.00    +0.043 A 
ATOM     25  C   UNL     1      49.311  12.793  15.506  0.00  0.00    +0.041 A 
ATOM     26  C   UNL     1      49.971  13.745  16.280  0.00  0.00    +0.033 A 
ATOM     27  O   UNL     1      51.303  13.444  16.300  0.00  0.00    -0.308 OA
ATOM     28  C   UNL     1      51.392  12.072  15.871  0.00  0.00    +0.434 C 
ATOM     29  O   UNL     1      50.229  11.895  15.042  0.00  0.00    -0.307 OA
ATOM     30  C   UNL     1      49.258  14.777  16.864  0.00  0.00    +0.050 A 
ENDBRANCH  21  22
BRANCH  17  18
ATOM     18  O   UNL     1      44.179  17.753  22.424  0.00  0.00    -0.291 OA
ATOM     19  C   UNL     1      42.972  16.993  22.501  0.00  0.00    +0.247 C 
ENDBRANCH  17  18
BRANCH   7   6
ATOM      6  C   UNL     1      44.475  20.118  18.407  0.00  0.00    +0.090 C 
BRANCH   6   5
ATOM      5  C   UNL     1      43.126  19.405  18.519  0.00  0.00    +0.041 C 
BRANCH   5   4
ATOM      1  C   UNL     1      41.013  19.422  20.385  0.00  0.00    +0.071 C 
ATOM      2  C   UNL     1      41.002  20.382  19.223  0.00  0.00    -0.125 C 
ATOM      3  C   UNL     1      39.831  21.307  19.022  0.00  0.00    +0.075 C 
ATOM      4  C   UNL     1      42.012  20.412  18.391  0.00  0.00    -0.055 C 
ENDBRANCH   5   4
ENDBRANCH   6   5
ENDBRANCH   7   6
BRANCH   7   8
ATOM      8  C   UNL     1      46.720  20.319  19.458  0.00  0.00    +0.091 C 
BRANCH   8   9
ATOM      9  C   UNL     1      47.839  19.548  20.162  0.00  0.00    +0.040 C 
BRANCH   9  10
ATOM     10  C   UNL     1      49.058  19.510  19.275  0.00  0.00    -0.058 C 
ATOM     11  C   UNL     1      49.808  18.437  19.240  0.00  0.00    -0.121 C 
ATOM     12  C   UNL     1      51.114  18.456  18.488  0.00  0.00    +0.076 C 
ATOM     13  C   UNL     1      49.367  17.184  19.952  0.00  0.00    +0.071 C 
ENDBRANCH   9  10
ENDBRANCH   8   9
ENDBRANCH   7   8
TORSDOF 8
ENDMDL
MODEL 6
REMARK VINA RESULT:      -6.0      1.852      3.785
REMARK  Name = ZINC95485978
REMARK  13 active torsions:
REMARK  status: ('A' for Active; 'I' for Inactive)
REMARK    1  A    between atoms: C1_1  and  C2_2
REMARK    2  A    between atoms: C2_2  and  C29_35
REMARK    3  A    between atoms: C3_3  and  C4_4
REMARK    4  A    between atoms: C4_4  and  C5_5
REMARK    5  A    between atoms: C5_5  and  C6_6
REMARK    6  A    between atoms: C6_6  and  C23_29
REMARK    7  A    between atoms: C10_11  and  C12_14
REMARK    8  A    between atoms: C20_24  and  O6_27
REMARK    9  A    between atoms: O6_27  and  C22_28
REMARK   10  A    between atoms: C23_29  and  C24_30
REMARK   11  A    between atoms: C24_30  and  C25_31
REMARK   12  A    between atoms: C26_32  and  C27_33
REMARK   13  A    between atoms: C26_32  and  C28_34
REMARK                            x       y       z     vdW  Elec       q    Type
REMARK                         _______ _______ _______ _____ _____    ______ ____
ROOT
ATOM      7  C   UNL     1      49.399  17.161  19.229  0.00  0.00    -0.040 C 
ATOM     14  C   UNL     1      48.143  17.956  19.447  0.00  0.00    +0.153 A 
ATOM     15  C   UNL     1      47.041  17.402  20.055  0.00  0.00    -0.222 A 
ATOM     16  C   UNL     1      47.044  16.019  20.530  0.00  0.00    +0.039 C 
ATOM     17  C   UNL     1      48.149  15.250  20.366  0.00  0.00    +0.007 C 
ATOM     20  C   UNL     1      45.835  18.237  20.223  0.00  0.00    +0.427 A 
ATOM     21  C   UNL     1      45.807  19.494  19.454  0.00  0.00    -0.223 A 
ATOM     31  C   UNL     1      46.976  19.910  18.894  0.00  0.00    +0.325 A 
ATOM     32  O   UNL     1      44.918  17.907  20.955  0.00  0.00    -0.451 OA
ATOM     33  O   UNL     1      48.113  19.233  19.041  0.00  0.00    -0.198 OA
ATOM     34  C   UNL     1      49.297  15.763  19.745  0.00  0.00    +0.413 C 
ATOM     35  O   UNL     1      50.260  15.031  19.621  0.00  0.00    -0.413 OA
ENDROOT
BRANCH  21  22
ATOM     22  C   UNL     1      44.556  20.274  19.294  0.00  0.00    -0.022 A 
ATOM     23  C   UNL     1      44.495  21.595  19.735  0.00  0.00    +0.067 A 
ATOM     24  C   UNL     1      43.330  22.319  19.586  0.00  0.00    +0.043 A 
ATOM     25  C   UNL     1      42.217  21.738  19.000  0.00  0.00    +0.041 A 
ATOM     26  C   UNL     1      42.272  20.417  18.558  0.00  0.00    +0.033 A 
ATOM     27  O   UNL     1      41.060  20.085  18.023  0.00  0.00    -0.308 OA
ATOM     28  C   UNL     1      40.140  21.079  18.512  0.00  0.00    +0.434 C 
ATOM     29  O   UNL     1      40.971  22.232  18.742  0.00  0.00    -0.307 OA
ATOM     30  C   UNL     1      43.440  19.689  18.699  0.00  0.00    +0.050 A 
ENDBRANCH  21  22
BRANCH  17  18
ATOM     18  O   UNL     1      48.143  13.964  20.811  0.00  0.00    -0.291 OA
ATOM     19  C   UNL     1      47.045  13.567  21.636  0.00  0.00    +0.247 C 
ENDBRANCH  17  18
BRANCH   7   6
ATOM      6  C   UNL     1      50.558  17.865  19.938  0.00  0.00    +0.090 C 
BRANCH   6   5
ATOM      5  C   UNL     1      50.091  18.361  21.308  0.00  0.00    +0.041 C 
BRANCH   5   4
ATOM      1  C   UNL     1      49.001  20.889  21.918  0.00  0.00    +0.071 C 
ATOM      2  C   UNL     1      50.490  20.669  21.996  0.00  0.00    -0.125 C 
ATOM      3  C   UNL     1      51.404  21.818  22.338  0.00  0.00    +0.075 C 
ATOM      4  C   UNL     1      50.989  19.480  21.770  0.00  0.00    -0.055 C 
ENDBRANCH   5   4
ENDBRANCH   6   5
ENDBRANCH   7   6
BRANCH   7   8
ATOM      8  C   UNL     1      49.697  17.112  17.729  0.00  0.00    +0.091 C 
BRANCH   8   9
ATOM      9  C   UNL     1      51.118  17.621  17.475  0.00  0.00    +0.040 C 
BRANCH   9  10
ATOM     10  C   UNL     1      51.062  18.857  16.613  0.00  0.00    -0.058 C 
ATOM     11  C   UNL     1      51.697  19.942  16.983  0.00  0.00    -0.121 C 
ATOM     12  C   UNL     1      51.506  21.224  16.215  0.00  0.00    +0.076 C 
ATOM     13  C   UNL     1      52.616  19.909  18.177  0.00  0.00    +0.071 C 
ENDBRANCH   9  10
ENDBRANCH   8   9
ENDBRANCH   7   8
TORSDOF 8
ENDMDL
MODEL 7
REMARK VINA RESULT:      -5.9      2.224      3.077
REMARK  Name = ZINC95485978
REMARK  13 active torsions:
REMARK  status: ('A' for Active; 'I' for Inactive)
REMARK    1  A    between atoms: C1_1  and  C2_2
REMARK    2  A    between atoms: C2_2  and  C29_35
REMARK    3  A    between atoms: C3_3  and  C4_4
REMARK    4  A    between atoms: C4_4  and  C5_5
REMARK    5  A    between atoms: C5_5  and  C6_6
REMARK    6  A    between atoms: C6_6  and  C23_29
REMARK    7  A    between atoms: C10_11  and  C12_14
REMARK    8  A    between atoms: C20_24  and  O6_27
REMARK    9  A    between atoms: O6_27  and  C22_28
REMARK   10  A    between atoms: C23_29  and  C24_30
REMARK   11  A    between atoms: C24_30  and  C25_31
REMARK   12  A    between atoms: C26_32  and  C27_33
REMARK   13  A    between atoms: C26_32  and  C28_34
REMARK                            x       y       z     vdW  Elec       q    Type
REMARK                         _______ _______ _______ _____ _____    ______ ____
ROOT
ATOM      7  C   UNL     1      49.792  16.495  18.450  0.00  0.00    -0.040 C 
ATOM     14  C   UNL     1      48.534  17.268  18.731  0.00  0.00    +0.153 A 
ATOM     15  C   UNL     1      48.372  17.972  19.902  0.00  0.00    -0.222 A 
ATOM     16  C   UNL     1      49.418  18.012  20.921  0.00  0.00    +0.039 C 
ATOM     17  C   UNL     1      50.580  17.338  20.726  0.00  0.00    +0.007 C 
ATOM     20  C   UNL     1      47.104  18.696  20.117  0.00  0.00    +0.427 A 
ATOM     21  C   UNL     1      46.001  18.357  19.200  0.00  0.00    -0.223 A 
ATOM     31  C   UNL     1      46.313  17.640  18.086  0.00  0.00    +0.325 A 
ATOM     32  O   UNL     1      46.976  19.527  21.001  0.00  0.00    -0.451 OA
ATOM     33  O   UNL     1      47.561  17.269  17.808  0.00  0.00    -0.198 OA
ATOM     34  C   UNL     1      50.794  16.598  19.553  0.00  0.00    +0.413 C 
ATOM     35  O   UNL     1      51.850  16.011  19.428  0.00  0.00    -0.413 OA
ENDROOT
BRANCH  21  22
ATOM     22  C   UNL     1      44.606  18.777  19.480  0.00  0.00    -0.022 A 
ATOM     23  C   UNL     1      43.882  18.157  20.497  0.00  0.00    +0.067 A 
ATOM     24  C   UNL     1      42.584  18.547  20.757  0.00  0.00    +0.043 A 
ATOM     25  C   UNL     1      41.996  19.557  20.010  0.00  0.00    +0.041 A 
ATOM     26  C   UNL     1      42.716  20.180  18.993  0.00  0.00    +0.033 A 
ATOM     27  O   UNL     1      41.923  21.130  18.415  0.00  0.00    -0.308 OA
ATOM     28  C   UNL     1      40.579  20.801  18.815  0.00  0.00    +0.434 C 
ATOM     29  O   UNL     1      40.752  20.116  20.070  0.00  0.00    -0.307 OA
ATOM     30  C   UNL     1      44.020  19.796  18.732  0.00  0.00    +0.050 A 
ENDBRANCH  21  22
BRANCH  17  18
ATOM     18  O   UNL     1      51.549  17.381  21.680  0.00  0.00    -0.291 OA
ATOM     19  C   UNL     1      52.137  18.655  21.951  0.00  0.00    +0.247 C 
ENDBRANCH  17  18
BRANCH   7   6
ATOM      6  C   UNL     1      50.421  17.029  17.162  0.00  0.00    +0.090 C 
BRANCH   6   5
ATOM      5  C   UNL     1      50.299  18.553  17.127  0.00  0.00    +0.041 C 
BRANCH   5   4
ATOM      1  C   UNL     1      50.104  20.933  18.627  0.00  0.00    +0.071 C 
ATOM      2  C   UNL     1      51.451  20.306  18.377  0.00  0.00    -0.125 C 
ATOM      3  C   UNL     1      52.702  20.985  18.873  0.00  0.00    +0.075 C 
ATOM      4  C   UNL     1      51.535  19.171  17.730  0.00  0.00    -0.055 C 
ENDBRANCH   5   4
ENDBRANCH   6   5
ENDBRANCH   7   6
BRANCH   7   8
ATOM      8  C   UNL     1      49.430  15.023  18.248  0.00  0.00    +0.091 C 
BRANCH   8   9
ATOM      9  C   UNL     1      49.866  14.578  16.850  0.00  0.00    +0.040 C 
BRANCH   9  10
ATOM     10  C   UNL     1      48.757  13.785  16.207  0.00  0.00    -0.058 C 
ATOM     11  C   UNL     1      49.011  13.033  15.164  0.00  0.00    -0.121 C 
ATOM     12  C   UNL     1      47.879  12.374  14.419  0.00  0.00    +0.076 C 
ATOM     13  C   UNL     1      50.433  12.827  14.710  0.00  0.00    +0.071 C 
ENDBRANCH   9  10
ENDBRANCH   8   9
ENDBRANCH   7   8
TORSDOF 8
ENDMDL
MODEL 8
REMARK VINA RESULT:      -5.8      2.925      5.408
REMARK  Name = ZINC95485978
REMARK  13 active torsions:
REMARK  status: ('A' for Active; 'I' for Inactive)
REMARK    1  A    between atoms: C1_1  and  C2_2
REMARK    2  A    between atoms: C2_2  and  C29_35
REMARK    3  A    between atoms: C3_3  and  C4_4
REMARK    4  A    between atoms: C4_4  and  C5_5
REMARK    5  A    between atoms: C5_5  and  C6_6
REMARK    6  A    between atoms: C6_6  and  C23_29
REMARK    7  A    between atoms: C10_11  and  C12_14
REMARK    8  A    between atoms: C20_24  and  O6_27
REMARK    9  A    between atoms: O6_27  and  C22_28
REMARK   10  A    between atoms: C23_29  and  C24_30
REMARK   11  A    between atoms: C24_30  and  C25_31
REMARK   12  A    between atoms: C26_32  and  C27_33
REMARK   13  A    between atoms: C26_32  and  C28_34
REMARK                            x       y       z     vdW  Elec       q    Type
REMARK                         _______ _______ _______ _____ _____    ______ ____
ROOT
ATOM      7  C   UNL     1      50.515  15.013  18.317  0.00  0.00    -0.040 C 
ATOM     14  C   UNL     1      49.154  15.255  18.906  0.00  0.00    +0.153 A 
ATOM     15  C   UNL     1      48.010  14.850  18.258  0.00  0.00    -0.222 A 
ATOM     16  C   UNL     1      48.065  14.153  16.974  0.00  0.00    +0.039 C 
ATOM     17  C   UNL     1      49.265  13.901  16.392  0.00  0.00    +0.007 C 
ATOM     20  C   UNL     1      46.705  15.134  18.887  0.00  0.00    +0.427 A 
ATOM     21  C   UNL     1      46.722  16.095  20.005  0.00  0.00    -0.223 A 
ATOM     31  C   UNL     1      47.934  16.414  20.536  0.00  0.00    +0.325 A 
ATOM     32  O   UNL     1      45.675  14.605  18.506  0.00  0.00    -0.451 OA
ATOM     33  O   UNL     1      49.067  15.874  20.092  0.00  0.00    -0.198 OA
ATOM     34  C   UNL     1      50.461  14.300  17.006  0.00  0.00    +0.413 C 
ATOM     35  O   UNL     1      51.508  14.052  16.442  0.00  0.00    -0.413 OA
ENDROOT
BRANCH  21  22
ATOM     22  C   UNL     1      45.470  16.694  20.527  0.00  0.00    -0.022 A 
ATOM     23  C   UNL     1      44.897  16.201  21.698  0.00  0.00    +0.067 A 
ATOM     24  C   UNL     1      43.731  16.757  22.184  0.00  0.00    +0.043 A 
ATOM     25  C   UNL     1      43.126  17.807  21.511  0.00  0.00    +0.041 A 
ATOM     26  C   UNL     1      43.694  18.303  20.339  0.00  0.00    +0.033 A 
ATOM     27  O   UNL     1      42.916  19.325  19.874  0.00  0.00    -0.308 OA
ATOM     28  C   UNL     1      41.651  19.178  20.546  0.00  0.00    +0.434 C 
ATOM     29  O   UNL     1      41.992  18.517  21.779  0.00  0.00    -0.307 OA
ATOM     30  C   UNL     1      44.867  17.753  19.851  0.00  0.00    +0.050 A 
ENDBRANCH  21  22
BRANCH  17  18
ATOM     18  O   UNL     1      49.307  13.252  15.196  0.00  0.00    -0.291 OA
ATOM     19  C   UNL     1      48.068  12.760  14.681  0.00  0.00    +0.247 C 
ENDBRANCH  17  18
BRANCH   7   6
ATOM      6  C   UNL     1      51.335  14.175  19.300  0.00  0.00    +0.090 C 
BRANCH   6   5
ATOM      5  C   UNL     1      52.614  14.928  19.670  0.00  0.00    +0.041 C 
BRANCH   5   4
ATOM      1  C   UNL     1      55.187  15.809  20.415  0.00  0.00    +0.071 C 
ATOM      2  C   UNL     1      54.999  14.430  19.837  0.00  0.00    -0.125 C 
ATOM      3  C   UNL     1      56.194  13.545  19.597  0.00  0.00    +0.075 C 
ATOM      4  C   UNL     1      53.796  14.001  19.546  0.00  0.00    -0.055 C 
ENDBRANCH   5   4
ENDBRANCH   6   5
ENDBRANCH   7   6
BRANCH   7   8
ATOM      8  C   UNL     1      51.212  16.360  18.119  0.00  0.00    +0.091 C 
BRANCH   8   9
ATOM      9  C   UNL     1      50.374  17.233  17.181  0.00  0.00    +0.040 C 
BRANCH   9  10
ATOM     10  C   UNL     1      50.362  18.651  17.692  0.00  0.00    -0.058 C 
ATOM     11  C   UNL     1      51.115  19.559  17.122  0.00  0.00    -0.121 C 
ATOM     12  C   UNL     1      51.233  20.931  17.733  0.00  0.00    +0.076 C 
ATOM     13  C   UNL     1      51.864  19.231  15.855  0.00  0.00    +0.071 C 
ENDBRANCH   9  10
ENDBRANCH   8   9
ENDBRANCH   7   8
TORSDOF 8
ENDMDL
MODEL 9
REMARK VINA RESULT:      -5.6      2.343      5.529
REMARK  Name = ZINC95485978
REMARK  13 active torsions:
REMARK  status: ('A' for Active; 'I' for Inactive)
REMARK    1  A    between atoms: C1_1  and  C2_2
REMARK    2  A    between atoms: C2_2  and  C29_35
REMARK    3  A    between atoms: C3_3  and  C4_4
REMARK    4  A    between atoms: C4_4  and  C5_5
REMARK    5  A    between atoms: C5_5  and  C6_6
REMARK    6  A    between atoms: C6_6  and  C23_29
REMARK    7  A    between atoms: C10_11  and  C12_14
REMARK    8  A    between atoms: C20_24  and  O6_27
REMARK    9  A    between atoms: O6_27  and  C22_28
REMARK   10  A    between atoms: C23_29  and  C24_30
REMARK   11  A    between atoms: C24_30  and  C25_31
REMARK   12  A    between atoms: C26_32  and  C27_33
REMARK   13  A    between atoms: C26_32  and  C28_34
REMARK                            x       y       z     vdW  Elec       q    Type
REMARK                         _______ _______ _______ _____ _____    ______ ____
ROOT
ATOM      7  C   UNL     1      50.901  17.021  19.707  0.00  0.00    -0.040 C 
ATOM     14  C   UNL     1      49.411  17.191  19.616  0.00  0.00    +0.153 A 
ATOM     15  C   UNL     1      48.803  17.560  18.438  0.00  0.00    -0.222 A 
ATOM     16  C   UNL     1      49.574  17.792  17.219  0.00  0.00    +0.039 C 
ATOM     17  C   UNL     1      50.924  17.651  17.235  0.00  0.00    +0.007 C 
ATOM     20  C   UNL     1      47.335  17.723  18.425  0.00  0.00    +0.427 A 
ATOM     21  C   UNL     1      46.678  17.775  19.744  0.00  0.00    -0.223 A 
ATOM     31  C   UNL     1      47.414  17.393  20.823  0.00  0.00    +0.325 A 
ATOM     32  O   UNL     1      46.704  17.809  17.385  0.00  0.00    -0.451 OA
ATOM     33  O   UNL     1      48.670  16.967  20.710  0.00  0.00    -0.198 OA
ATOM     34  C   UNL     1      51.595  17.284  18.411  0.00  0.00    +0.413 C 
ATOM     35  O   UNL     1      52.805  17.173  18.372  0.00  0.00    -0.413 OA
ENDROOT
BRANCH  21  22
ATOM     22  C   UNL     1      45.273  18.227  19.889  0.00  0.00    -0.022 A 
ATOM     23  C   UNL     1      44.414  17.565  20.764  0.00  0.00    +0.067 A 
ATOM     24  C   UNL     1      43.106  17.986  20.898  0.00  0.00    +0.043 A 
ATOM     25  C   UNL     1      42.643  19.066  20.165  0.00  0.00    +0.041 A 
ATOM     26  C   UNL     1      43.497  19.732  19.288  0.00  0.00    +0.033 A 
ATOM     27  O   UNL     1      42.807  20.749  18.692  0.00  0.00    -0.308 OA
ATOM     28  C   UNL     1      41.416  20.444  18.907  0.00  0.00    +0.434 C 
ATOM     29  O   UNL     1      41.418  19.667  20.119  0.00  0.00    -0.307 OA
ATOM     30  C   UNL     1      44.811  19.317  19.154  0.00  0.00    +0.050 A 
ENDBRANCH  21  22
BRANCH  17  18
ATOM     18  O   UNL     1      51.635  17.868  16.095  0.00  0.00    -0.291 OA
ATOM     19  C   UNL     1      51.894  19.229  15.741  0.00  0.00    +0.247 C 
ENDBRANCH  17  18
BRANCH   7   6
ATOM      6  C   UNL     1      51.208  15.589  20.149  0.00  0.00    +0.090 C 
BRANCH   6   5
ATOM      5  C   UNL     1      50.810  14.616  19.038  0.00  0.00    +0.041 C 
BRANCH   5   4
ATOM      1  C   UNL     1      48.622  14.153  17.319  0.00  0.00    +0.071 C 
ATOM      2  C   UNL     1      48.610  13.605  18.723  0.00  0.00    -0.125 C 
ATOM      3  C   UNL     1      47.400  12.864  19.231  0.00  0.00    +0.075 C 
ATOM      4  C   UNL     1      49.651  13.771  19.500  0.00  0.00    -0.055 C 
ENDBRANCH   5   4
ENDBRANCH   6   5
ENDBRANCH   7   6
BRANCH   7   8
ATOM      8  C   UNL     1      51.442  17.988  20.762  0.00  0.00    +0.091 C 
BRANCH   8   9
ATOM      9  C   UNL     1      51.141  19.427  20.336  0.00  0.00    +0.040 C 
BRANCH   9  10
ATOM     10  C   UNL     1      50.118  20.022  21.270  0.00  0.00    -0.058 C 
ATOM     11  C   UNL     1      49.146  20.759  20.792  0.00  0.00    -0.121 C 
ATOM     12  C   UNL     1      48.224  21.492  21.732  0.00  0.00    +0.076 C 
ATOM     13  C   UNL     1      48.950  20.876  19.302  0.00  0.00    +0.071 C 
ENDBRANCH   9  10
ENDBRANCH   8   9
ENDBRANCH   7   8
TORSDOF 8
ENDMDL
