MODEL 1
REMARK VINA RESULT:      -7.4      0.000      0.000
REMARK  Name = ZINC38939738
REMARK  8 active torsions:
REMARK  status: ('A' for Active; 'I' for Inactive)
REMARK    1  A    between atoms: C1_1  and  C2_2
REMARK    2  A    between atoms: C3_3  and  O3_33
REMARK    3  A    between atoms: C11_12  and  C28_32
REMARK    4  A    between atoms: C14_15  and  C27_31
REMARK    5  A    between atoms: C15_16  and  C26_30
REMARK    6  A    between atoms: C18_19  and  C25_29
REMARK    7  A    between atoms: C21_23  and  C24_27
REMARK    8  A    between atoms: C24_27  and  O2_28
REMARK                            x       y       z     vdW  Elec       q    Type
REMARK                         _______ _______ _______ _____ _____    ______ ____
ROOT
ATOM      1  C   UNL     1      40.961  19.656  18.570  0.00  0.00    +0.107 C 
ATOM      2  C   UNL     1      41.988  20.681  18.975  0.00  0.00    -0.069 C 
ATOM      3  C   UNL     1      41.712  22.000  18.779  0.00  0.00    +0.009 C 
ATOM      6  C   UNL     1      42.658  22.981  19.158  0.00  0.00    +0.379 C 
ATOM      7  C   UNL     1      43.851  22.596  19.798  0.00  0.00    -0.111 C 
ATOM      8  C   UNL     1      44.128  21.280  19.999  0.00  0.00    +0.025 C 
ATOM      9  C   UNL     1      45.391  20.913  20.740  0.00  0.00    +0.002 C 
ATOM     10  C   UNL     1      45.106  21.232  22.210  0.00  0.00    +0.069 C 
ATOM     11  C   UNL     1      46.533  21.806  20.265  0.00  0.00    +0.044 C 
ATOM     12  C   UNL     1      47.900  21.300  20.717  0.00  0.00    +0.026 C 
ATOM     13  C   UNL     1      48.125  19.853  20.267  0.00  0.00    -0.028 C 
ATOM     14  C   UNL     1      47.849  19.808  18.758  0.00  0.00    +0.022 C 
ATOM     15  C   UNL     1      47.104  18.965  20.988  0.00  0.00    -0.015 C 
ATOM     16  C   UNL     1      47.276  19.035  22.505  0.00  0.00    +0.046 C 
ATOM     17  C   UNL     1      47.307  17.513  20.553  0.00  0.00    +0.026 C 
ATOM     18  C   UNL     1      48.700  17.046  20.969  0.00  0.00    +0.019 C 
ATOM     19  C   UNL     1      49.792  17.918  20.341  0.00  0.00    -0.038 C 
ATOM     20  C   UNL     1      51.116  17.542  21.046  0.00  0.00    +0.016 C 
ATOM     21  C   UNL     1      49.928  17.562  18.869  0.00  0.00    +0.013 C 
ATOM     22  C   UNL     1      50.989  18.368  18.159  0.00  0.00    +0.018 C 
ATOM     23  C   UNL     1      51.249  19.769  18.644  0.00  0.00    -0.006 C 
ATOM     27  C   UNL     1      50.581  20.267  19.895  0.00  0.00    +0.019 C 
ATOM     28  C   UNL     1      49.541  19.394  20.564  0.00  0.00    +0.015 C 
ATOM     29  C   UNL     1      45.730  19.460  20.585  0.00  0.00    -0.000 C 
ATOM     30  C   UNL     1      44.849  18.577  20.094  0.00  0.00    -0.052 C 
ATOM     31  C   UNL     1      43.581  18.947  19.628  0.00  0.00    +0.153 C 
ATOM     32  O   UNL     1      42.436  24.164  18.937  0.00  0.00    -0.490 OA
ATOM     33  C   UNL     1      43.228  20.294  19.533  0.00  0.00    -0.107 C 
ENDROOT
BRANCH   3   4
ATOM      4  O   UNL     1      40.529  22.369  18.220  0.00  0.00    -0.464 OA
ATOM      5  H   UNL     1      40.235  23.254  18.472  0.00  0.00    +0.402 HD
ENDBRANCH   3   4
BRANCH  23  24
ATOM     24  C   UNL     1      50.978  20.760  17.492  0.00  0.00    +0.162 C 
BRANCH  24  25
ATOM     25  O   UNL     1      52.221  21.213  16.951  0.00  0.00    -0.573 OA
ATOM     26  H   UNL     1      52.980  21.066  17.532  0.00  0.00    +0.380 HD
ENDBRANCH  24  25
ENDBRANCH  23  24
TORSDOF 3
ENDMDL
MODEL 2
REMARK VINA RESULT:      -6.8      4.402      7.573
REMARK  Name = ZINC38939738
REMARK  8 active torsions:
REMARK  status: ('A' for Active; 'I' for Inactive)
REMARK    1  A    between atoms: C1_1  and  C2_2
REMARK    2  A    between atoms: C3_3  and  O3_33
REMARK    3  A    between atoms: C11_12  and  C28_32
REMARK    4  A    between atoms: C14_15  and  C27_31
REMARK    5  A    between atoms: C15_16  and  C26_30
REMARK    6  A    between atoms: C18_19  and  C25_29
REMARK    7  A    between atoms: C21_23  and  C24_27
REMARK    8  A    between atoms: C24_27  and  O2_28
REMARK                            x       y       z     vdW  Elec       q    Type
REMARK                         _______ _______ _______ _____ _____    ______ ____
ROOT
ATOM      1  C   UNL     1      49.148  12.896  14.826  0.00  0.00    +0.107 C 
ATOM      2  C   UNL     1      48.029  12.953  15.833  0.00  0.00    -0.069 C 
ATOM      3  C   UNL     1      47.032  12.030  15.759  0.00  0.00    +0.009 C 
ATOM      6  C   UNL     1      45.975  12.058  16.698  0.00  0.00    +0.379 C 
ATOM      7  C   UNL     1      45.991  12.998  17.746  0.00  0.00    -0.111 C 
ATOM      8  C   UNL     1      46.988  13.919  17.825  0.00  0.00    +0.025 C 
ATOM      9  C   UNL     1      46.999  14.871  18.996  0.00  0.00    +0.002 C 
ATOM     10  C   UNL     1      47.470  14.039  20.192  0.00  0.00    +0.069 C 
ATOM     11  C   UNL     1      45.577  15.350  19.272  0.00  0.00    +0.044 C 
ATOM     12  C   UNL     1      45.535  16.547  20.218  0.00  0.00    +0.026 C 
ATOM     13  C   UNL     1      46.396  17.696  19.687  0.00  0.00    -0.028 C 
ATOM     14  C   UNL     1      45.950  17.957  18.241  0.00  0.00    +0.022 C 
ATOM     15  C   UNL     1      47.859  17.234  19.681  0.00  0.00    -0.015 C 
ATOM     16  C   UNL     1      48.336  16.878  21.090  0.00  0.00    +0.046 C 
ATOM     17  C   UNL     1      48.740  18.366  19.152  0.00  0.00    +0.026 C 
ATOM     18  C   UNL     1      48.640  19.570  20.085  0.00  0.00    +0.019 C 
ATOM     19  C   UNL     1      47.196  20.068  20.201  0.00  0.00    -0.038 C 
ATOM     20  C   UNL     1      47.171  21.082  21.369  0.00  0.00    +0.016 C 
ATOM     21  C   UNL     1      46.822  20.811  18.929  0.00  0.00    +0.013 C 
ATOM     22  C   UNL     1      45.412  21.348  18.948  0.00  0.00    +0.018 C 
ATOM     23  C   UNL     1      44.378  20.582  19.728  0.00  0.00    -0.006 C 
ATOM     27  C   UNL     1      44.794  19.419  20.585  0.00  0.00    +0.019 C 
ATOM     28  C   UNL     1      46.232  18.948  20.529  0.00  0.00    +0.015 C 
ATOM     29  C   UNL     1      47.933  16.024  18.773  0.00  0.00    -0.000 C 
ATOM     30  C   UNL     1      48.837  16.020  17.784  0.00  0.00    -0.052 C 
ATOM     31  C   UNL     1      48.938  14.982  16.849  0.00  0.00    +0.153 C 
ATOM     32  O   UNL     1      45.050  11.262  16.604  0.00  0.00    -0.490 OA
ATOM     33  C   UNL     1      47.994  13.954  16.831  0.00  0.00    -0.107 C 
ENDROOT
BRANCH   3   4
ATOM      4  O   UNL     1      47.056  11.084  14.783  0.00  0.00    -0.464 OA
ATOM      5  H   UNL     1      46.831  10.195  15.091  0.00  0.00    +0.402 HD
ENDBRANCH   3   4
BRANCH  23  24
ATOM     24  C   UNL     1      43.252  20.134  18.773  0.00  0.00    +0.162 C 
BRANCH  24  25
ATOM     25  O   UNL     1      42.325  21.206  18.593  0.00  0.00    -0.573 OA
ATOM     26  H   UNL     1      42.470  21.721  17.788  0.00  0.00    +0.380 HD
ENDBRANCH  24  25
ENDBRANCH  23  24
TORSDOF 3
ENDMDL
MODEL 3
REMARK VINA RESULT:      -6.3      4.874      8.156
REMARK  Name = ZINC38939738
REMARK  8 active torsions:
REMARK  status: ('A' for Active; 'I' for Inactive)
REMARK    1  A    between atoms: C1_1  and  C2_2
REMARK    2  A    between atoms: C3_3  and  O3_33
REMARK    3  A    between atoms: C11_12  and  C28_32
REMARK    4  A    between atoms: C14_15  and  C27_31
REMARK    5  A    between atoms: C15_16  and  C26_30
REMARK    6  A    between atoms: C18_19  and  C25_29
REMARK    7  A    between atoms: C21_23  and  C24_27
REMARK    8  A    between atoms: C24_27  and  O2_28
REMARK                            x       y       z     vdW  Elec       q    Type
REMARK                         _______ _______ _______ _____ _____    ______ ____
ROOT
ATOM      1  C   UNL     1      49.512  20.776  19.381  0.00  0.00    +0.107 C 
ATOM      2  C   UNL     1      50.296  19.878  18.460  0.00  0.00    -0.069 C 
ATOM      3  C   UNL     1      51.084  20.443  17.505  0.00  0.00    +0.009 C 
ATOM      6  C   UNL     1      51.836  19.621  16.634  0.00  0.00    +0.379 C 
ATOM      7  C   UNL     1      51.820  18.223  16.800  0.00  0.00    -0.111 C 
ATOM      8  C   UNL     1      51.037  17.655  17.755  0.00  0.00    +0.025 C 
ATOM      9  C   UNL     1      51.093  16.157  17.937  0.00  0.00    +0.002 C 
ATOM     10  C   UNL     1      52.420  15.884  18.650  0.00  0.00    +0.069 C 
ATOM     11  C   UNL     1      51.133  15.483  16.569  0.00  0.00    +0.044 C 
ATOM     12  C   UNL     1      50.868  13.982  16.648  0.00  0.00    +0.026 C 
ATOM     13  C   UNL     1      49.538  13.696  17.351  0.00  0.00    -0.028 C 
ATOM     14  C   UNL     1      48.468  14.538  16.641  0.00  0.00    +0.022 C 
ATOM     15  C   UNL     1      49.656  14.165  18.806  0.00  0.00    -0.015 C 
ATOM     16  C   UNL     1      50.767  13.417  19.544  0.00  0.00    +0.046 C 
ATOM     17  C   UNL     1      48.337  13.891  19.530  0.00  0.00    +0.026 C 
ATOM     18  C   UNL     1      48.067  12.389  19.549  0.00  0.00    +0.019 C 
ATOM     19  C   UNL     1      47.991  11.817  18.131  0.00  0.00    -0.038 C 
ATOM     20  C   UNL     1      48.004  10.277  18.274  0.00  0.00    +0.016 C 
ATOM     21  C   UNL     1      46.666  12.217  17.502  0.00  0.00    +0.013 C 
ATOM     22  C   UNL     1      46.493  11.693  16.097  0.00  0.00    +0.018 C 
ATOM     23  C   UNL     1      47.728  11.522  15.254  0.00  0.00    -0.006 C 
ATOM     27  C   UNL     1      49.087  11.712  15.866  0.00  0.00    +0.019 C 
ATOM     28  C   UNL     1      49.183  12.222  17.288  0.00  0.00    +0.015 C 
ATOM     29  C   UNL     1      49.951  15.650  18.767  0.00  0.00    -0.000 C 
ATOM     30  C   UNL     1      49.171  16.477  19.477  0.00  0.00    -0.052 C 
ATOM     31  C   UNL     1      49.317  17.870  19.451  0.00  0.00    +0.153 C 
ATOM     32  O   UNL     1      52.506  20.123  15.742  0.00  0.00    -0.490 OA
ATOM     33  C   UNL     1      50.211  18.470  18.563  0.00  0.00    -0.107 C 
ENDROOT
BRANCH   3   4
ATOM      4  O   UNL     1      51.146  21.797  17.393  0.00  0.00    -0.464 OA
ATOM      5  H   UNL     1      51.469  22.106  16.535  0.00  0.00    +0.402 HD
ENDBRANCH   3   4
BRANCH  23  24
ATOM     24  C   UNL     1      47.607  12.405  13.994  0.00  0.00    +0.162 C 
BRANCH  24  25
ATOM     25  O   UNL     1      48.913  12.742  13.522  0.00  0.00    -0.573 OA
ATOM     26  H   UNL     1      49.286  13.535  13.931  0.00  0.00    +0.380 HD
ENDBRANCH  24  25
ENDBRANCH  23  24
TORSDOF 3
ENDMDL
MODEL 4
REMARK VINA RESULT:      -6.3      4.676      7.209
REMARK  Name = ZINC38939738
REMARK  8 active torsions:
REMARK  status: ('A' for Active; 'I' for Inactive)
REMARK    1  A    between atoms: C1_1  and  C2_2
REMARK    2  A    between atoms: C3_3  and  O3_33
REMARK    3  A    between atoms: C11_12  and  C28_32
REMARK    4  A    between atoms: C14_15  and  C27_31
REMARK    5  A    between atoms: C15_16  and  C26_30
REMARK    6  A    between atoms: C18_19  and  C25_29
REMARK    7  A    between atoms: C21_23  and  C24_27
REMARK    8  A    between atoms: C24_27  and  O2_28
REMARK                            x       y       z     vdW  Elec       q    Type
REMARK                         _______ _______ _______ _____ _____    ______ ____
ROOT
ATOM      1  C   UNL     1      50.021  10.894  18.286  0.00  0.00    +0.107 C 
ATOM      2  C   UNL     1      49.290  12.026  17.613  0.00  0.00    -0.069 C 
ATOM      3  C   UNL     1      48.730  11.812  16.391  0.00  0.00    +0.009 C 
ATOM      6  C   UNL     1      48.032  12.858  15.742  0.00  0.00    +0.379 C 
ATOM      7  C   UNL     1      47.861  14.096  16.391  0.00  0.00    -0.111 C 
ATOM      8  C   UNL     1      48.415  14.312  17.613  0.00  0.00    +0.025 C 
ATOM      9  C   UNL     1      48.160  15.632  18.298  0.00  0.00    +0.002 C 
ATOM     10  C   UNL     1      46.715  15.555  18.802  0.00  0.00    +0.069 C 
ATOM     11  C   UNL     1      48.255  16.759  17.275  0.00  0.00    +0.044 C 
ATOM     12  C   UNL     1      48.329  18.137  17.927  0.00  0.00    +0.026 C 
ATOM     13  C   UNL     1      49.492  18.212  18.920  0.00  0.00    -0.028 C 
ATOM     14  C   UNL     1      50.749  17.746  18.170  0.00  0.00    +0.022 C 
ATOM     15  C   UNL     1      49.205  17.236  20.067  0.00  0.00    -0.015 C 
ATOM     16  C   UNL     1      47.914  17.602  20.800  0.00  0.00    +0.046 C 
ATOM     17  C   UNL     1      50.355  17.291  21.072  0.00  0.00    +0.026 C 
ATOM     18  C   UNL     1      50.443  18.693  21.671  0.00  0.00    +0.019 C 
ATOM     19  C   UNL     1      50.671  19.750  20.586  0.00  0.00    -0.038 C 
ATOM     20  C   UNL     1      50.459  21.126  21.259  0.00  0.00    +0.016 C 
ATOM     21  C   UNL     1      52.115  19.677  20.115  0.00  0.00    +0.013 C 
ATOM     22  C   UNL     1      52.442  20.689  19.044  0.00  0.00    +0.018 C 
ATOM     23  C   UNL     1      51.341  21.096  18.102  0.00  0.00    -0.006 C 
ATOM     27  C   UNL     1      49.935  20.624  18.342  0.00  0.00    +0.019 C 
ATOM     28  C   UNL     1      49.680  19.623  19.449  0.00  0.00    +0.015 C 
ATOM     29  C   UNL     1      49.093  15.856  19.451  0.00  0.00    -0.000 C 
ATOM     30  C   UNL     1      49.843  14.867  19.956  0.00  0.00    -0.052 C 
ATOM     31  C   UNL     1      49.866  13.576  19.413  0.00  0.00    +0.153 C 
ATOM     32  O   UNL     1      47.571  12.685  14.622  0.00  0.00    -0.490 OA
ATOM     33  C   UNL     1      49.195  13.300  18.220  0.00  0.00    -0.107 C 
ENDROOT
BRANCH   3   4
ATOM      4  O   UNL     1      48.843  10.594  15.798  0.00  0.00    -0.464 OA
ATOM      5  H   UNL     1      48.044  10.306  15.335  0.00  0.00    +0.402 HD
ENDBRANCH   3   4
BRANCH  23  24
ATOM     24  C   UNL     1      51.757  20.746  16.657  0.00  0.00    +0.162 C 
BRANCH  24  25
ATOM     25  O   UNL     1      51.745  21.930  15.858  0.00  0.00    -0.573 OA
ATOM     26  H   UNL     1      51.762  21.762  14.906  0.00  0.00    +0.380 HD
ENDBRANCH  24  25
ENDBRANCH  23  24
TORSDOF 3
ENDMDL
MODEL 5
REMARK VINA RESULT:      -6.2      5.159      8.735
REMARK  Name = ZINC38939738
REMARK  8 active torsions:
REMARK  status: ('A' for Active; 'I' for Inactive)
REMARK    1  A    between atoms: C1_1  and  C2_2
REMARK    2  A    between atoms: C3_3  and  O3_33
REMARK    3  A    between atoms: C11_12  and  C28_32
REMARK    4  A    between atoms: C14_15  and  C27_31
REMARK    5  A    between atoms: C15_16  and  C26_30
REMARK    6  A    between atoms: C18_19  and  C25_29
REMARK    7  A    between atoms: C21_23  and  C24_27
REMARK    8  A    between atoms: C24_27  and  O2_28
REMARK                            x       y       z     vdW  Elec       q    Type
REMARK                         _______ _______ _______ _____ _____    ______ ____
ROOT
ATOM      1  C   UNL     1      53.514  11.056  18.414  0.00  0.00    +0.107 C 
ATOM      2  C   UNL     1      52.555  11.890  17.606  0.00  0.00    -0.069 C 
ATOM      3  C   UNL     1      52.284  11.523  16.324  0.00  0.00    +0.009 C 
ATOM      6  C   UNL     1      51.380  12.285  15.548  0.00  0.00    +0.379 C 
ATOM      7  C   UNL     1      50.713  13.383  16.125  0.00  0.00    -0.111 C 
ATOM      8  C   UNL     1      50.978  13.750  17.407  0.00  0.00    +0.025 C 
ATOM      9  C   UNL     1      50.199  14.896  18.005  0.00  0.00    +0.002 C 
ATOM     10  C   UNL     1      48.805  14.331  18.297  0.00  0.00    +0.069 C 
ATOM     11  C   UNL     1      50.061  16.008  16.970  0.00  0.00    +0.044 C 
ATOM     12  C   UNL     1      49.575  17.320  17.581  0.00  0.00    +0.026 C 
ATOM     13  C   UNL     1      50.487  17.762  18.728  0.00  0.00    -0.028 C 
ATOM     14  C   UNL     1      51.923  17.757  18.183  0.00  0.00    +0.022 C 
ATOM     15  C   UNL     1      50.377  16.725  19.853  0.00  0.00    -0.015 C 
ATOM     16  C   UNL     1      48.946  16.625  20.380  0.00  0.00    +0.046 C 
ATOM     17  C   UNL     1      51.283  17.144  21.011  0.00  0.00    +0.026 C 
ATOM     18  C   UNL     1      50.809  18.484  21.570  0.00  0.00    +0.019 C 
ATOM     19  C   UNL     1      50.828  19.575  20.496  0.00  0.00    -0.038 C 
ATOM     20  C   UNL     1      50.072  20.789  21.087  0.00  0.00    +0.016 C 
ATOM     21  C   UNL     1      52.265  19.999  20.242  0.00  0.00    +0.013 C 
ATOM     22  C   UNL     1      52.389  21.081  19.197  0.00  0.00    +0.018 C 
ATOM     23  C   UNL     1      51.367  21.112  18.093  0.00  0.00    -0.006 C 
ATOM     27  C   UNL     1      50.179  20.192  18.143  0.00  0.00    +0.019 C 
ATOM     28  C   UNL     1      50.114  19.144  19.233  0.00  0.00    +0.015 C 
ATOM     29  C   UNL     1      50.824  15.399  19.272  0.00  0.00    -0.000 C 
ATOM     30  C   UNL     1      51.779  14.710  19.911  0.00  0.00    -0.052 C 
ATOM     31  C   UNL     1      52.310  13.510  19.419  0.00  0.00    +0.153 C 
ATOM     32  O   UNL     1      51.173  11.989  14.380  0.00  0.00    -0.490 OA
ATOM     33  C   UNL     1      51.953  13.047  18.152  0.00  0.00    -0.107 C 
ENDROOT
BRANCH   3   4
ATOM      4  O   UNL     1      52.883  10.423  15.794  0.00  0.00    -0.464 OA
ATOM      5  H   UNL     1      53.811  10.556  15.559  0.00  0.00    +0.402 HD
ENDBRANCH   3   4
BRANCH  23  24
ATOM     24  C   UNL     1      52.082  20.948  16.735  0.00  0.00    +0.162 C 
BRANCH  24  25
ATOM     25  O   UNL     1      51.587  21.922  15.814  0.00  0.00    -0.573 OA
ATOM     26  H   UNL     1      50.856  21.608  15.266  0.00  0.00    +0.380 HD
ENDBRANCH  24  25
ENDBRANCH  23  24
TORSDOF 3
ENDMDL
MODEL 6
REMARK VINA RESULT:      -6.0      4.609      7.458
REMARK  Name = ZINC38939738
REMARK  8 active torsions:
REMARK  status: ('A' for Active; 'I' for Inactive)
REMARK    1  A    between atoms: C1_1  and  C2_2
REMARK    2  A    between atoms: C3_3  and  O3_33
REMARK    3  A    between atoms: C11_12  and  C28_32
REMARK    4  A    between atoms: C14_15  and  C27_31
REMARK    5  A    between atoms: C15_16  and  C26_30
REMARK    6  A    between atoms: C18_19  and  C25_29
REMARK    7  A    between atoms: C21_23  and  C24_27
REMARK    8  A    between atoms: C24_27  and  O2_28
REMARK                            x       y       z     vdW  Elec       q    Type
REMARK                         _______ _______ _______ _____ _____    ______ ____
ROOT
ATOM      1  C   UNL     1      48.890  11.912  14.236  0.00  0.00    +0.107 C 
ATOM      2  C   UNL     1      48.191  12.413  15.473  0.00  0.00    -0.069 C 
ATOM      3  C   UNL     1      46.918  11.999  15.721  0.00  0.00    +0.009 C 
ATOM      6  C   UNL     1      46.244  12.449  16.881  0.00  0.00    +0.379 C 
ATOM      7  C   UNL     1      46.915  13.270  17.808  0.00  0.00    -0.111 C 
ATOM      8  C   UNL     1      48.187  13.681  17.566  0.00  0.00    +0.025 C 
ATOM      9  C   UNL     1      48.889  14.512  18.612  0.00  0.00    +0.002 C 
ATOM     10  C   UNL     1      49.260  13.531  19.728  0.00  0.00    +0.069 C 
ATOM     11  C   UNL     1      47.914  15.540  19.178  0.00  0.00    +0.044 C 
ATOM     12  C   UNL     1      48.613  16.621  19.999  0.00  0.00    +0.026 C 
ATOM     13  C   UNL     1      49.707  17.310  19.178  0.00  0.00    -0.028 C 
ATOM     14  C   UNL     1      49.057  17.769  17.865  0.00  0.00    +0.022 C 
ATOM     15  C   UNL     1      50.792  16.274  18.862  0.00  0.00    -0.015 C 
ATOM     16  C   UNL     1      51.420  15.718  20.141  0.00  0.00    +0.046 C 
ATOM     17  C   UNL     1      51.896  16.940  18.041  0.00  0.00    +0.026 C 
ATOM     18  C   UNL     1      52.545  18.051  18.862  0.00  0.00    +0.019 C 
ATOM     19  C   UNL     1      51.519  19.110  19.277  0.00  0.00    -0.038 C 
ATOM     20  C   UNL     1      52.214  20.012  20.324  0.00  0.00    +0.016 C 
ATOM     21  C   UNL     1      51.175  19.970  18.072  0.00  0.00    +0.013 C 
ATOM     22  C   UNL     1      50.170  21.053  18.382  0.00  0.00    +0.018 C 
ATOM     23  C   UNL     1      49.148  20.776  19.452  0.00  0.00    -0.006 C 
ATOM     27  C   UNL     1      49.248  19.528  20.282  0.00  0.00    +0.019 C 
ATOM     28  C   UNL     1      50.295  18.495  19.923  0.00  0.00    +0.015 C 
ATOM     29  C   UNL     1      50.125  15.167  18.072  0.00  0.00    -0.000 C 
ATOM     30  C   UNL     1      50.663  14.805  16.899  0.00  0.00    -0.052 C 
ATOM     31  C   UNL     1      50.083  13.843  16.061  0.00  0.00    +0.153 C 
ATOM     32  O   UNL     1      45.083  12.121  17.081  0.00  0.00    -0.490 OA
ATOM     33  C   UNL     1      48.828  13.311  16.360  0.00  0.00    -0.107 C 
ENDROOT
BRANCH   3   4
ATOM      4  O   UNL     1      46.300  11.154  14.854  0.00  0.00    -0.464 OA
ATOM      5  H   UNL     1      46.538  10.224  14.974  0.00  0.00    +0.402 HD
ENDBRANCH   3   4
BRANCH  23  24
ATOM     24  C   UNL     1      47.735  20.868  18.837  0.00  0.00    +0.162 C 
BRANCH  24  25
ATOM     25  O   UNL     1      46.853  19.989  19.537  0.00  0.00    -0.573 OA
ATOM     26  H   UNL     1      45.933  20.040  19.244  0.00  0.00    +0.380 HD
ENDBRANCH  24  25
ENDBRANCH  23  24
TORSDOF 3
ENDMDL
MODEL 7
REMARK VINA RESULT:      -6.0      3.643      7.904
REMARK  Name = ZINC38939738
REMARK  8 active torsions:
REMARK  status: ('A' for Active; 'I' for Inactive)
REMARK    1  A    between atoms: C1_1  and  C2_2
REMARK    2  A    between atoms: C3_3  and  O3_33
REMARK    3  A    between atoms: C11_12  and  C28_32
REMARK    4  A    between atoms: C14_15  and  C27_31
REMARK    5  A    between atoms: C15_16  and  C26_30
REMARK    6  A    between atoms: C18_19  and  C25_29
REMARK    7  A    between atoms: C21_23  and  C24_27
REMARK    8  A    between atoms: C24_27  and  O2_28
REMARK                            x       y       z     vdW  Elec       q    Type
REMARK                         _______ _______ _______ _____ _____    ______ ____
ROOT
ATOM      1  C   UNL     1      49.283  13.646  16.373  0.00  0.00    +0.107 C 
ATOM      2  C   UNL     1      48.887  13.837  17.814  0.00  0.00    -0.069 C 
ATOM      3  C   UNL     1      48.934  12.768  18.655  0.00  0.00    +0.009 C 
ATOM      6  C   UNL     1      48.575  12.924  20.014  0.00  0.00    +0.379 C 
ATOM      7  C   UNL     1      48.234  14.198  20.508  0.00  0.00    -0.111 C 
ATOM      8  C   UNL     1      48.191  15.269  19.673  0.00  0.00    +0.025 C 
ATOM      9  C   UNL     1      47.878  16.626  20.254  0.00  0.00    +0.002 C 
ATOM     10  C   UNL     1      49.153  17.059  20.984  0.00  0.00    +0.069 C 
ATOM     11  C   UNL     1      46.757  16.490  21.280  0.00  0.00    +0.044 C 
ATOM     12  C   UNL     1      46.162  17.837  21.679  0.00  0.00    +0.026 C 
ATOM     13  C   UNL     1      45.674  18.607  20.448  0.00  0.00    -0.028 C 
ATOM     14  C   UNL     1      44.751  17.661  19.667  0.00  0.00    +0.022 C 
ATOM     15  C   UNL     1      46.893  18.943  19.581  0.00  0.00    -0.015 C 
ATOM     16  C   UNL     1      47.892  19.818  20.339  0.00  0.00    +0.046 C 
ATOM     17  C   UNL     1      46.432  19.712  18.343  0.00  0.00    +0.026 C 
ATOM     18  C   UNL     1      45.792  21.030  18.770  0.00  0.00    +0.019 C 
ATOM     19  C   UNL     1      44.593  20.796  19.693  0.00  0.00    -0.038 C 
ATOM     20  C   UNL     1      44.211  22.175  20.281  0.00  0.00    +0.016 C 
ATOM     21  C   UNL     1      43.417  20.299  18.868  0.00  0.00    +0.013 C 
ATOM     22  C   UNL     1      42.178  20.043  19.691  0.00  0.00    +0.018 C 
ATOM     23  C   UNL     1      42.363  19.601  21.118  0.00  0.00    -0.006 C 
ATOM     27  C   UNL     1      43.736  19.583  21.727  0.00  0.00    +0.019 C 
ATOM     28  C   UNL     1      44.931  19.870  20.843  0.00  0.00    +0.015 C 
ATOM     29  C   UNL     1      47.530  17.625  19.191  0.00  0.00    -0.000 C 
ATOM     30  C   UNL     1      47.764  17.386  17.893  0.00  0.00    -0.052 C 
ATOM     31  C   UNL     1      48.282  16.173  17.424  0.00  0.00    +0.153 C 
ATOM     32  O   UNL     1      48.566  11.955  20.761  0.00  0.00    -0.490 OA
ATOM     33  C   UNL     1      48.455  15.095  18.294  0.00  0.00    -0.107 C 
ENDROOT
BRANCH   3   4
ATOM      4  O   UNL     1      49.326  11.554  18.185  0.00  0.00    -0.464 OA
ATOM      5  H   UNL     1      48.716  10.834  18.398  0.00  0.00    +0.402 HD
ENDBRANCH   3   4
BRANCH  23  24
ATOM     24  C   UNL     1      41.703  18.219  21.309  0.00  0.00    +0.162 C 
BRANCH  24  25
ATOM     25  O   UNL     1      42.469  17.448  22.237  0.00  0.00    -0.573 OA
ATOM     26  H   UNL     1      41.967  17.143  23.004  0.00  0.00    +0.380 HD
ENDBRANCH  24  25
ENDBRANCH  23  24
TORSDOF 3
ENDMDL
MODEL 8
REMARK VINA RESULT:      -5.8      4.142      7.311
REMARK  Name = ZINC38939738
REMARK  8 active torsions:
REMARK  status: ('A' for Active; 'I' for Inactive)
REMARK    1  A    between atoms: C1_1  and  C2_2
REMARK    2  A    between atoms: C3_3  and  O3_33
REMARK    3  A    between atoms: C11_12  and  C28_32
REMARK    4  A    between atoms: C14_15  and  C27_31
REMARK    5  A    between atoms: C15_16  and  C26_30
REMARK    6  A    between atoms: C18_19  and  C25_29
REMARK    7  A    between atoms: C21_23  and  C24_27
REMARK    8  A    between atoms: C24_27  and  O2_28
REMARK                            x       y       z     vdW  Elec       q    Type
REMARK                         _______ _______ _______ _____ _____    ______ ____
ROOT
ATOM      1  C   UNL     1      52.539  20.771  17.074  0.00  0.00    +0.107 C 
ATOM      2  C   UNL     1      51.703  20.470  18.290  0.00  0.00    -0.069 C 
ATOM      3  C   UNL     1      51.980  21.119  19.455  0.00  0.00    +0.009 C 
ATOM      6  C   UNL     1      51.204  20.859  20.608  0.00  0.00    +0.379 C 
ATOM      7  C   UNL     1      50.106  19.981  20.532  0.00  0.00    -0.111 C 
ATOM      8  C   UNL     1      49.823  19.335  19.370  0.00  0.00    +0.025 C 
ATOM      9  C   UNL     1      48.604  18.448  19.316  0.00  0.00    +0.002 C 
ATOM     10  C   UNL     1      47.409  19.404  19.249  0.00  0.00    +0.069 C 
ATOM     11  C   UNL     1      48.506  17.643  20.608  0.00  0.00    +0.044 C 
ATOM     12  C   UNL     1      47.500  16.499  20.511  0.00  0.00    +0.026 C 
ATOM     13  C   UNL     1      47.825  15.582  19.329  0.00  0.00    -0.028 C 
ATOM     14  C   UNL     1      49.300  15.179  19.470  0.00  0.00    +0.022 C 
ATOM     15  C   UNL     1      47.649  16.387  18.037  0.00  0.00    -0.015 C 
ATOM     16  C   UNL     1      46.213  16.889  17.884  0.00  0.00    +0.046 C 
ATOM     17  C   UNL     1      47.970  15.492  16.840  0.00  0.00    +0.026 C 
ATOM     18  C   UNL     1      46.985  14.327  16.795  0.00  0.00    +0.019 C 
ATOM     19  C   UNL     1      47.047  13.493  18.079  0.00  0.00    -0.038 C 
ATOM     20  C   UNL     1      45.832  12.537  18.044  0.00  0.00    +0.016 C 
ATOM     21  C   UNL     1      48.309  12.646  18.063  0.00  0.00    +0.013 C 
ATOM     22  C   UNL     1      48.459  11.780  19.290  0.00  0.00    +0.018 C 
ATOM     23  C   UNL     1      47.888  12.292  20.585  0.00  0.00    -0.006 C 
ATOM     27  C   UNL     1      47.057  13.545  20.596  0.00  0.00    +0.019 C 
ATOM     28  C   UNL     1      46.936  14.352  19.321  0.00  0.00    +0.015 C 
ATOM     29  C   UNL     1      48.614  17.553  18.112  0.00  0.00    -0.000 C 
ATOM     30  C   UNL     1      49.459  17.751  17.091  0.00  0.00    -0.052 C 
ATOM     31  C   UNL     1      50.436  18.755  17.096  0.00  0.00    +0.153 C 
ATOM     32  O   UNL     1      51.482  21.401  21.669  0.00  0.00    -0.490 OA
ATOM     33  C   UNL     1      50.657  19.520  18.243  0.00  0.00    -0.107 C 
ENDROOT
BRANCH   3   4
ATOM      4  O   UNL     1      53.002  22.014  19.504  0.00  0.00    -0.464 OA
ATOM      5  H   UNL     1      53.008  22.644  18.771  0.00  0.00    +0.402 HD
ENDBRANCH   3   4
BRANCH  23  24
ATOM     24  C   UNL     1      49.023  12.424  21.622  0.00  0.00    +0.162 C 
BRANCH  24  25
ATOM     25  O   UNL     1      48.738  13.510  22.505  0.00  0.00    -0.573 OA
ATOM     26  H   UNL     1      49.356  14.250  22.432  0.00  0.00    +0.380 HD
ENDBRANCH  24  25
ENDBRANCH  23  24
TORSDOF 3
ENDMDL
MODEL 9
REMARK VINA RESULT:      -5.8      6.274      8.705
REMARK  Name = ZINC38939738
REMARK  8 active torsions:
REMARK  status: ('A' for Active; 'I' for Inactive)
REMARK    1  A    between atoms: C1_1  and  C2_2
REMARK    2  A    between atoms: C3_3  and  O3_33
REMARK    3  A    between atoms: C11_12  and  C28_32
REMARK    4  A    between atoms: C14_15  and  C27_31
REMARK    5  A    between atoms: C15_16  and  C26_30
REMARK    6  A    between atoms: C18_19  and  C25_29
REMARK    7  A    between atoms: C21_23  and  C24_27
REMARK    8  A    between atoms: C24_27  and  O2_28
REMARK                            x       y       z     vdW  Elec       q    Type
REMARK                         _______ _______ _______ _____ _____    ______ ____
ROOT
ATOM      1  C   UNL     1      51.467  19.164  15.418  0.00  0.00    +0.107 C 
ATOM      2  C   UNL     1      51.752  19.198  16.897  0.00  0.00    -0.069 C 
ATOM      3  C   UNL     1      51.921  20.404  17.506  0.00  0.00    +0.009 C 
ATOM      6  C   UNL     1      52.181  20.463  18.895  0.00  0.00    +0.379 C 
ATOM      7  C   UNL     1      52.198  19.278  19.656  0.00  0.00    -0.111 C 
ATOM      8  C   UNL     1      52.026  18.073  19.053  0.00  0.00    +0.025 C 
ATOM      9  C   UNL     1      51.993  16.833  19.913  0.00  0.00    +0.002 C 
ATOM     10  C   UNL     1      50.625  16.852  20.602  0.00  0.00    +0.069 C 
ATOM     11  C   UNL     1      53.074  16.934  20.985  0.00  0.00    +0.044 C 
ATOM     12  C   UNL     1      53.326  15.603  21.689  0.00  0.00    +0.026 C 
ATOM     13  C   UNL     1      53.670  14.505  20.680  0.00  0.00    -0.028 C 
ATOM     14  C   UNL     1      54.816  15.041  19.810  0.00  0.00    +0.022 C 
ATOM     15  C   UNL     1      52.441  14.268  19.794  0.00  0.00    -0.015 C 
ATOM     16  C   UNL     1      51.238  13.812  20.620  0.00  0.00    +0.046 C 
ATOM     17  C   UNL     1      52.761  13.175  18.774  0.00  0.00    +0.026 C 
ATOM     18  C   UNL     1      53.061  11.868  19.504  0.00  0.00    +0.019 C 
ATOM     19  C   UNL     1      54.245  12.024  20.463  0.00  0.00    -0.038 C 
ATOM     20  C   UNL     1      54.274  10.750  21.340  0.00  0.00    +0.016 C 
ATOM     21  C   UNL     1      55.535  12.068  19.659  0.00  0.00    +0.013 C 
ATOM     22  C   UNL     1      56.766  12.215  20.520  0.00  0.00    +0.018 C 
ATOM     23  C   UNL     1      56.634  12.976  21.811  0.00  0.00    -0.006 C 
ATOM     27  C   UNL     1      55.279  13.420  22.286  0.00  0.00    +0.019 C 
ATOM     28  C   UNL     1      54.085  13.222  21.376  0.00  0.00    +0.015 C 
ATOM     29  C   UNL     1      52.141  15.581  19.100  0.00  0.00    -0.000 C 
ATOM     30  C   UNL     1      52.020  15.587  17.765  0.00  0.00    -0.052 C 
ATOM     31  C   UNL     1      51.815  16.758  17.025  0.00  0.00    +0.153 C 
ATOM     32  O   UNL     1      52.384  21.541  19.436  0.00  0.00    -0.490 OA
ATOM     33  C   UNL     1      51.862  18.006  17.649  0.00  0.00    -0.107 C 
ENDROOT
BRANCH   3   4
ATOM      4  O   UNL     1      51.838  21.548  16.776  0.00  0.00    -0.464 OA
ATOM      5  H   UNL     1      52.167  22.333  17.236  0.00  0.00    +0.402 HD
ENDBRANCH   3   4
BRANCH  23  24
ATOM     24  C   UNL     1      57.587  14.189  21.784  0.00  0.00    +0.162 C 
BRANCH  24  25
ATOM     25  O   UNL     1      58.190  14.293  20.492  0.00  0.00    -0.573 OA
ATOM     26  H   UNL     1      59.133  14.504  20.514  0.00  0.00    +0.380 HD
ENDBRANCH  24  25
ENDBRANCH  23  24
TORSDOF 3
ENDMDL
