MODEL 1
REMARK VINA RESULT:      -6.6      0.000      0.000
REMARK  Name = ZINC95486366
REMARK  7 active torsions:
REMARK  status: ('A' for Active; 'I' for Inactive)
REMARK    1  A    between atoms: C1_1  and  C2_2
REMARK    2  A    between atoms: C7_7  and  C8_8
REMARK    3  A    between atoms: C8_8  and  C9_9
REMARK    4  A    between atoms: C15_17  and  C22_26
REMARK    5  A    between atoms: C19_21  and  C20_22
REMARK    6  A    between atoms: C19_21  and  C21_23
REMARK    7  A    between atoms: C25_30  and  C27_33
REMARK                            x       y       z     vdW  Elec       q    Type
REMARK                         _______ _______ _______ _____ _____    ______ ____
ROOT
ATOM     16  C   UNL     1      48.614  16.563  19.482  0.00  0.00    +0.089 C 
ENDROOT
BRANCH  16  15
ATOM      1  C   UNL     1      47.376  18.105  21.592  0.00  0.00    +0.092 C 
ATOM      2  C   UNL     1      48.289  18.783  20.602  0.00  0.00    -0.076 A 
ATOM      3  C   UNL     1      48.534  20.138  20.712  0.00  0.00    +0.012 A 
ATOM      4  C   UNL     1      49.371  20.777  19.810  0.00  0.00    +0.035 A 
ATOM      5  C   UNL     1      49.968  20.049  18.788  0.00  0.00    -0.100 A 
ATOM      6  C   UNL     1      49.718  18.670  18.676  0.00  0.00    -0.125 A 
ATOM      7  C   UNL     1      50.359  17.905  17.586  0.00  0.00    +0.384 C 
ATOM      8  C   UNL     1      51.251  18.600  16.628  0.00  0.00    +0.253 C 
ATOM      9  O   UNL     1      51.838  17.900  15.631  0.00  0.00    -0.648 OA
ATOM     10  C   UNL     1      51.486  19.923  16.743  0.00  0.00    -0.449 C 
ATOM     11  C   UNL     1      52.399  20.604  15.756  0.00  0.00    +0.067 C 
ATOM     12  O   UNL     1      50.153  16.713  17.475  0.00  0.00    -0.415 OA
ATOM     13  C   UNL     1      50.866  20.708  17.814  0.00  0.00    +0.427 C 
ATOM     14  O   UNL     1      51.089  21.901  17.902  0.00  0.00    -0.527 OA
ATOM     15  C   UNL     1      48.881  18.043  19.593  0.00  0.00    -0.025 A 
ENDBRANCH  16  15
BRANCH  16  17
ATOM     17  C   UNL     1      47.119  16.330  19.262  0.00  0.00    +0.043 C 
ATOM     18  C   UNL     1      46.657  17.041  18.020  0.00  0.00    -0.087 C 
ATOM     19  C   UNL     1      47.095  16.466  16.692  0.00  0.00    +0.037 C 
ATOM     20  C   UNL     1      46.660  14.996  16.666  0.00  0.00    +0.018 C 
ATOM     21  C   UNL     1      47.275  14.221  17.839  0.00  0.00    +0.035 C 
ATOM     22  C   UNL     1      46.888  12.749  17.692  0.00  0.00    -0.121 C 
ATOM     26  C   UNL     1      47.756  11.822  18.546  0.00  0.00    +0.012 C 
ATOM     27  C   UNL     1      45.411  12.526  18.006  0.00  0.00    +0.023 C 
ATOM     28  C   UNL     1      45.036  13.096  19.370  0.00  0.00    -0.016 C 
ATOM     29  C   UNL     1      45.351  14.589  19.409  0.00  0.00    +0.007 C 
ATOM     30  C   UNL     1      45.908  18.113  18.079  0.00  0.00    -0.035 C 
ATOM     31  C   UNL     1      46.844  14.821  19.168  0.00  0.00    -0.033 C 
ATOM     32  C   UNL     1      47.630  14.216  20.345  0.00  0.00    +0.025 C 
BRANCH  22  23
ATOM     23  C   UNL     1      47.114  12.298  16.254  0.00  0.00    +0.506 C 
ATOM     24  O   UNL     1      48.185  12.506  15.711  0.00  0.00    -0.704 OA
ATOM     25  O   UNL     1      46.224  11.728  15.647  0.00  0.00    -0.703 OA
ENDBRANCH  22  23
ENDBRANCH  16  17
TORSDOF 3
ENDMDL
MODEL 2
REMARK VINA RESULT:      -6.3      3.119      6.180
REMARK  Name = ZINC95486366
REMARK  7 active torsions:
REMARK  status: ('A' for Active; 'I' for Inactive)
REMARK    1  A    between atoms: C1_1  and  C2_2
REMARK    2  A    between atoms: C7_7  and  C8_8
REMARK    3  A    between atoms: C8_8  and  C9_9
REMARK    4  A    between atoms: C15_17  and  C22_26
REMARK    5  A    between atoms: C19_21  and  C20_22
REMARK    6  A    between atoms: C19_21  and  C21_23
REMARK    7  A    between atoms: C25_30  and  C27_33
REMARK                            x       y       z     vdW  Elec       q    Type
REMARK                         _______ _______ _______ _____ _____    ______ ____
ROOT
ATOM     16  C   UNL     1      47.728  17.562  20.588  0.00  0.00    +0.089 C 
ENDROOT
BRANCH  16  15
ATOM      1  C   UNL     1      46.860  15.241  22.077  0.00  0.00    +0.092 C 
ATOM      2  C   UNL     1      45.854  16.282  21.655  0.00  0.00    -0.076 A 
ATOM      3  C   UNL     1      44.523  16.125  21.988  0.00  0.00    +0.012 A 
ATOM      4  C   UNL     1      43.586  17.074  21.607  0.00  0.00    +0.035 A 
ATOM      5  C   UNL     1      43.989  18.191  20.887  0.00  0.00    -0.100 A 
ATOM      6  C   UNL     1      45.344  18.351  20.548  0.00  0.00    -0.125 A 
ATOM      7  C   UNL     1      45.763  19.544  19.781  0.00  0.00    +0.384 C 
ATOM      8  C   UNL     1      44.752  20.550  19.381  0.00  0.00    +0.253 C 
ATOM      9  O   UNL     1      45.134  21.642  18.680  0.00  0.00    -0.648 OA
ATOM     10  C   UNL     1      43.454  20.389  19.711  0.00  0.00    -0.449 C 
ATOM     11  C   UNL     1      42.446  21.429  19.291  0.00  0.00    +0.067 C 
ATOM     12  O   UNL     1      46.930  19.697  19.481  0.00  0.00    -0.415 OA
ATOM     13  C   UNL     1      43.008  19.218  20.470  0.00  0.00    +0.427 C 
ATOM     14  O   UNL     1      41.833  19.089  20.758  0.00  0.00    -0.527 OA
ATOM     15  C   UNL     1      46.273  17.393  20.942  0.00  0.00    -0.025 A 
ENDBRANCH  16  15
BRANCH  16  17
ATOM     17  C   UNL     1      48.173  16.405  19.693  0.00  0.00    +0.043 C 
ATOM     18  C   UNL     1      47.342  16.366  18.439  0.00  0.00    -0.087 C 
ATOM     19  C   UNL     1      47.586  17.449  17.415  0.00  0.00    +0.037 C 
ATOM     20  C   UNL     1      49.081  17.425  17.072  0.00  0.00    +0.018 C 
ATOM     21  C   UNL     1      49.935  17.642  18.329  0.00  0.00    +0.035 C 
ATOM     22  C   UNL     1      51.401  17.711  17.900  0.00  0.00    -0.121 C 
ATOM     26  C   UNL     1      52.303  18.322  18.976  0.00  0.00    +0.012 C 
ATOM     27  C   UNL     1      51.927  16.340  17.488  0.00  0.00    +0.023 C 
ATOM     28  C   UNL     1      51.684  15.296  18.573  0.00  0.00    -0.016 C 
ATOM     29  C   UNL     1      50.190  15.205  18.874  0.00  0.00    +0.007 C 
ATOM     30  C   UNL     1      46.443  15.435  18.239  0.00  0.00    -0.035 C 
ATOM     31  C   UNL     1      49.665  16.558  19.360  0.00  0.00    -0.033 C 
ATOM     32  C   UNL     1      50.325  16.883  20.711  0.00  0.00    +0.025 C 
BRANCH  22  23
ATOM     23  C   UNL     1      51.543  18.628  16.692  0.00  0.00    +0.506 C 
ATOM     24  O   UNL     1      51.302  19.818  16.798  0.00  0.00    -0.704 OA
ATOM     25  O   UNL     1      51.898  18.171  15.619  0.00  0.00    -0.703 OA
ENDBRANCH  22  23
ENDBRANCH  16  17
TORSDOF 3
ENDMDL
MODEL 3
REMARK VINA RESULT:      -5.9      3.592      5.272
REMARK  Name = ZINC95486366
REMARK  7 active torsions:
REMARK  status: ('A' for Active; 'I' for Inactive)
REMARK    1  A    between atoms: C1_1  and  C2_2
REMARK    2  A    between atoms: C7_7  and  C8_8
REMARK    3  A    between atoms: C8_8  and  C9_9
REMARK    4  A    between atoms: C15_17  and  C22_26
REMARK    5  A    between atoms: C19_21  and  C20_22
REMARK    6  A    between atoms: C19_21  and  C21_23
REMARK    7  A    between atoms: C25_30  and  C27_33
REMARK                            x       y       z     vdW  Elec       q    Type
REMARK                         _______ _______ _______ _____ _____    ______ ____
ROOT
ATOM     16  C   UNL     1      47.599  14.639  19.821  0.00  0.00    +0.089 C 
ENDROOT
BRANCH  16  15
ATOM      1  C   UNL     1      46.707  13.117  22.113  0.00  0.00    +0.092 C 
ATOM      2  C   UNL     1      45.987  14.384  21.726  0.00  0.00    -0.076 A 
ATOM      3  C   UNL     1      44.908  14.815  22.473  0.00  0.00    +0.012 A 
ATOM      4  C   UNL     1      44.235  15.978  22.130  0.00  0.00    +0.035 A 
ATOM      5  C   UNL     1      44.650  16.716  21.028  0.00  0.00    -0.100 A 
ATOM      6  C   UNL     1      45.748  16.277  20.268  0.00  0.00    -0.125 A 
ATOM      7  C   UNL     1      46.181  17.069  19.097  0.00  0.00    +0.384 C 
ATOM      8  C   UNL     1      45.454  18.310  18.742  0.00  0.00    +0.253 C 
ATOM      9  O   UNL     1      45.850  19.036  17.672  0.00  0.00    -0.648 OA
ATOM     10  C   UNL     1      44.401  18.725  19.477  0.00  0.00    -0.449 C 
ATOM     11  C   UNL     1      43.680  19.991  19.093  0.00  0.00    +0.067 C 
ATOM     12  O   UNL     1      47.129  16.704  18.430  0.00  0.00    -0.415 OA
ATOM     13  C   UNL     1      43.949  17.960  20.643  0.00  0.00    +0.427 C 
ATOM     14  O   UNL     1      42.997  18.349  21.293  0.00  0.00    -0.527 OA
ATOM     15  C   UNL     1      46.416  15.111  20.628  0.00  0.00    -0.025 A 
ENDBRANCH  16  15
BRANCH  16  17
ATOM     17  C   UNL     1      47.315  13.241  19.271  0.00  0.00    +0.043 C 
ATOM     18  C   UNL     1      46.326  13.316  18.140  0.00  0.00    -0.087 C 
ATOM     19  C   UNL     1      46.816  13.894  16.832  0.00  0.00    +0.037 C 
ATOM     20  C   UNL     1      48.054  13.092  16.414  0.00  0.00    +0.018 C 
ATOM     21  C   UNL     1      49.141  13.159  17.495  0.00  0.00    +0.035 C 
ATOM     22  C   UNL     1      50.379  12.431  16.970  0.00  0.00    -0.121 C 
ATOM     26  C   UNL     1      51.644  12.770  17.762  0.00  0.00    +0.012 C 
ATOM     27  C   UNL     1      50.166  10.920  16.937  0.00  0.00    +0.023 C 
ATOM     28  C   UNL     1      49.706  10.390  18.291  0.00  0.00    -0.016 C 
ATOM     29  C   UNL     1      48.410  11.083  18.703  0.00  0.00    +0.007 C 
ATOM     30  C   UNL     1      45.092  12.901  18.276  0.00  0.00    -0.035 C 
ATOM     31  C   UNL     1      48.630  12.593  18.811  0.00  0.00    -0.033 C 
ATOM     32  C   UNL     1      49.612  12.865  19.964  0.00  0.00    +0.025 C 
BRANCH  22  23
ATOM     23  C   UNL     1      50.670  12.874  15.542  0.00  0.00    +0.506 C 
ATOM     24  O   UNL     1      50.482  12.105  14.615  0.00  0.00    -0.704 OA
ATOM     25  O   UNL     1      51.091  13.997  15.326  0.00  0.00    -0.703 OA
ENDBRANCH  22  23
ENDBRANCH  16  17
TORSDOF 3
ENDMDL
MODEL 4
REMARK VINA RESULT:      -5.7      3.064      6.981
REMARK  Name = ZINC95486366
REMARK  7 active torsions:
REMARK  status: ('A' for Active; 'I' for Inactive)
REMARK    1  A    between atoms: C1_1  and  C2_2
REMARK    2  A    between atoms: C7_7  and  C8_8
REMARK    3  A    between atoms: C8_8  and  C9_9
REMARK    4  A    between atoms: C15_17  and  C22_26
REMARK    5  A    between atoms: C19_21  and  C20_22
REMARK    6  A    between atoms: C19_21  and  C21_23
REMARK    7  A    between atoms: C25_30  and  C27_33
REMARK                            x       y       z     vdW  Elec       q    Type
REMARK                         _______ _______ _______ _____ _____    ______ ____
ROOT
ATOM     16  C   UNL     1      47.011  16.300  20.405  0.00  0.00    +0.089 C 
ENDROOT
BRANCH  16  15
ATOM      1  C   UNL     1      49.760  16.716  21.198  0.00  0.00    +0.092 C 
ATOM      2  C   UNL     1      49.389  15.504  20.382  0.00  0.00    -0.076 A 
ATOM      3  C   UNL     1      50.364  14.594  20.023  0.00  0.00    +0.012 A 
ATOM      4  C   UNL     1      50.039  13.474  19.272  0.00  0.00    +0.035 A 
ATOM      5  C   UNL     1      48.723  13.266  18.879  0.00  0.00    -0.100 A 
ATOM      6  C   UNL     1      47.730  14.192  19.245  0.00  0.00    -0.125 A 
ATOM      7  C   UNL     1      46.333  13.960  18.822  0.00  0.00    +0.384 C 
ATOM      8  C   UNL     1      45.999  12.759  18.021  0.00  0.00    +0.253 C 
ATOM      9  O   UNL     1      44.720  12.547  17.634  0.00  0.00    -0.648 OA
ATOM     10  C   UNL     1      46.957  11.875  17.675  0.00  0.00    -0.449 C 
ATOM     11  C   UNL     1      46.589  10.662  16.859  0.00  0.00    +0.067 C 
ATOM     12  O   UNL     1      45.463  14.751  19.130  0.00  0.00    -0.415 OA
ATOM     13  C   UNL     1      48.351  12.078  18.079  0.00  0.00    +0.427 C 
ATOM     14  O   UNL     1      49.202  11.270  17.757  0.00  0.00    -0.527 OA
ATOM     15  C   UNL     1      48.071  15.307  20.003  0.00  0.00    -0.025 A 
ENDBRANCH  16  15
BRANCH  16  17
ATOM     17  C   UNL     1      47.388  17.687  19.883  0.00  0.00    +0.043 C 
ATOM     18  C   UNL     1      47.243  17.740  18.387  0.00  0.00    -0.087 C 
ATOM     19  C   UNL     1      45.839  17.748  17.830  0.00  0.00    +0.037 C 
ATOM     20  C   UNL     1      45.094  18.918  18.485  0.00  0.00    +0.018 C 
ATOM     21  C   UNL     1      45.087  18.775  20.013  0.00  0.00    +0.035 C 
ATOM     22  C   UNL     1      44.244  19.911  20.592  0.00  0.00    -0.121 C 
ATOM     26  C   UNL     1      43.824  19.656  22.042  0.00  0.00    +0.012 C 
ATOM     27  C   UNL     1      44.962  21.253  20.480  0.00  0.00    +0.023 C 
ATOM     28  C   UNL     1      46.359  21.194  21.089  0.00  0.00    -0.016 C 
ATOM     29  C   UNL     1      47.179  20.111  20.391  0.00  0.00    +0.007 C 
ATOM     30  C   UNL     1      48.286  17.776  17.595  0.00  0.00    -0.035 C 
ATOM     31  C   UNL     1      46.506  18.748  20.560  0.00  0.00    -0.033 C 
ATOM     32  C   UNL     1      46.532  18.369  22.051  0.00  0.00    +0.025 C 
BRANCH  22  23
ATOM     23  C   UNL     1      42.940  20.034  19.814  0.00  0.00    +0.506 C 
ATOM     24  O   UNL     1      42.728  21.021  19.131  0.00  0.00    -0.704 OA
ATOM     25  O   UNL     1      42.108  19.145  19.874  0.00  0.00    -0.703 OA
ENDBRANCH  22  23
ENDBRANCH  16  17
TORSDOF 3
ENDMDL
MODEL 5
REMARK VINA RESULT:      -5.7      2.658      4.319
REMARK  Name = ZINC95486366
REMARK  7 active torsions:
REMARK  status: ('A' for Active; 'I' for Inactive)
REMARK    1  A    between atoms: C1_1  and  C2_2
REMARK    2  A    between atoms: C7_7  and  C8_8
REMARK    3  A    between atoms: C8_8  and  C9_9
REMARK    4  A    between atoms: C15_17  and  C22_26
REMARK    5  A    between atoms: C19_21  and  C20_22
REMARK    6  A    between atoms: C19_21  and  C21_23
REMARK    7  A    between atoms: C25_30  and  C27_33
REMARK                            x       y       z     vdW  Elec       q    Type
REMARK                         _______ _______ _______ _____ _____    ______ ____
ROOT
ATOM     16  C   UNL     1      47.920  17.383  18.340  0.00  0.00    +0.089 C 
ENDROOT
BRANCH  16  15
ATOM      1  C   UNL     1      50.486  18.244  19.357  0.00  0.00    +0.092 C 
ATOM      2  C   UNL     1      49.279  19.134  19.514  0.00  0.00    -0.076 A 
ATOM      3  C   UNL     1      49.407  20.359  20.138  0.00  0.00    +0.012 A 
ATOM      4  C   UNL     1      48.306  21.189  20.291  0.00  0.00    +0.035 A 
ATOM      5  C   UNL     1      47.066  20.785  19.812  0.00  0.00    -0.100 A 
ATOM      6  C   UNL     1      46.936  19.537  19.177  0.00  0.00    -0.125 A 
ATOM      7  C   UNL     1      45.613  19.117  18.671  0.00  0.00    +0.384 C 
ATOM      8  C   UNL     1      44.445  20.013  18.840  0.00  0.00    +0.253 C 
ATOM      9  O   UNL     1      43.233  19.629  18.376  0.00  0.00    -0.648 OA
ATOM     10  C   UNL     1      44.578  21.209  19.450  0.00  0.00    -0.449 C 
ATOM     11  C   UNL     1      43.373  22.100  19.608  0.00  0.00    +0.067 C 
ATOM     12  O   UNL     1      45.484  18.042  18.120  0.00  0.00    -0.415 OA
ATOM     13  C   UNL     1      45.877  21.653  19.962  0.00  0.00    +0.427 C 
ATOM     14  O   UNL     1      45.978  22.734  20.510  0.00  0.00    -0.527 OA
ATOM     15  C   UNL     1      48.051  18.719  19.026  0.00  0.00    -0.025 A 
ENDBRANCH  16  15
BRANCH  16  17
ATOM     17  C   UNL     1      48.449  16.283  19.261  0.00  0.00    +0.043 C 
ATOM     18  C   UNL     1      47.438  15.965  20.328  0.00  0.00    -0.087 C 
ATOM     19  C   UNL     1      46.196  15.217  19.902  0.00  0.00    +0.037 C 
ATOM     20  C   UNL     1      46.655  13.937  19.194  0.00  0.00    +0.018 C 
ATOM     21  C   UNL     1      47.549  14.266  17.991  0.00  0.00    +0.035 C 
ATOM     22  C   UNL     1      47.881  12.957  17.274  0.00  0.00    -0.121 C 
ATOM     26  C   UNL     1      48.413  13.179  15.855  0.00  0.00    +0.012 C 
ATOM     27  C   UNL     1      48.865  12.113  18.079  0.00  0.00    +0.023 C 
ATOM     28  C   UNL     1      50.112  12.909  18.452  0.00  0.00    -0.016 C 
ATOM     29  C   UNL     1      49.714  14.143  19.256  0.00  0.00    +0.007 C 
ATOM     30  C   UNL     1      47.620  16.319  21.576  0.00  0.00    -0.035 C 
ATOM     31  C   UNL     1      48.785  15.035  18.430  0.00  0.00    -0.033 C 
ATOM     32  C   UNL     1      49.572  15.580  17.225  0.00  0.00    +0.025 C 
BRANCH  22  23
ATOM     23  C   UNL     1      46.615  12.127  17.102  0.00  0.00    +0.506 C 
ATOM     24  O   UNL     1      45.626  12.623  16.591  0.00  0.00    -0.704 OA
ATOM     25  O   UNL     1      46.592  10.967  17.474  0.00  0.00    -0.703 OA
ENDBRANCH  22  23
ENDBRANCH  16  17
TORSDOF 3
ENDMDL
MODEL 6
REMARK VINA RESULT:      -5.6      3.302      6.340
REMARK  Name = ZINC95486366
REMARK  7 active torsions:
REMARK  status: ('A' for Active; 'I' for Inactive)
REMARK    1  A    between atoms: C1_1  and  C2_2
REMARK    2  A    between atoms: C7_7  and  C8_8
REMARK    3  A    between atoms: C8_8  and  C9_9
REMARK    4  A    between atoms: C15_17  and  C22_26
REMARK    5  A    between atoms: C19_21  and  C20_22
REMARK    6  A    between atoms: C19_21  and  C21_23
REMARK    7  A    between atoms: C25_30  and  C27_33
REMARK                            x       y       z     vdW  Elec       q    Type
REMARK                         _______ _______ _______ _____ _____    ______ ____
ROOT
ATOM     16  C   UNL     1      48.017  18.299  20.764  0.00  0.00    +0.089 C 
ENDROOT
BRANCH  16  15
ATOM      1  C   UNL     1      50.438  19.211  22.054  0.00  0.00    +0.092 C 
ATOM      2  C   UNL     1      50.514  18.181  20.956  0.00  0.00    -0.076 A 
ATOM      3  C   UNL     1      51.741  17.674  20.575  0.00  0.00    +0.012 A 
ATOM      4  C   UNL     1      51.828  16.727  19.566  0.00  0.00    +0.035 A 
ATOM      5  C   UNL     1      50.673  16.284  18.934  0.00  0.00    -0.100 A 
ATOM      6  C   UNL     1      49.424  16.801  19.322  0.00  0.00    -0.125 A 
ATOM      7  C   UNL     1      48.201  16.323  18.643  0.00  0.00    +0.384 C 
ATOM      8  C   UNL     1      48.308  15.310  17.567  0.00  0.00    +0.253 C 
ATOM      9  O   UNL     1      47.188  14.871  16.946  0.00  0.00    -0.648 OA
ATOM     10  C   UNL     1      49.510  14.819  17.202  0.00  0.00    -0.449 C 
ATOM     11  C   UNL     1      49.589  13.789  16.104  0.00  0.00    +0.067 C 
ATOM     12  O   UNL     1      47.114  16.759  18.966  0.00  0.00    -0.415 OA
ATOM     13  C   UNL     1      50.740  15.273  17.856  0.00  0.00    +0.427 C 
ATOM     14  O   UNL     1      51.815  14.819  17.512  0.00  0.00    -0.527 OA
ATOM     15  C   UNL     1      49.353  17.746  20.339  0.00  0.00    -0.025 A 
ENDBRANCH  16  15
BRANCH  16  17
ATOM     17  C   UNL     1      48.017  19.819  20.595  0.00  0.00    +0.043 C 
ATOM     18  C   UNL     1      48.200  20.183  19.147  0.00  0.00    -0.087 C 
ATOM     19  C   UNL     1      47.035  19.930  18.219  0.00  0.00    +0.037 C 
ATOM     20  C   UNL     1      45.817  20.653  18.808  0.00  0.00    +0.018 C 
ATOM     21  C   UNL     1      45.517  20.155  20.228  0.00  0.00    +0.035 C 
ATOM     22  C   UNL     1      44.237  20.838  20.710  0.00  0.00    -0.121 C 
ATOM     26  C   UNL     1      43.614  20.137  21.921  0.00  0.00    +0.012 C 
ATOM     27  C   UNL     1      44.473  22.313  21.019  0.00  0.00    +0.023 C 
ATOM     28  C   UNL     1      45.637  22.505  21.985  0.00  0.00    -0.016 C 
ATOM     29  C   UNL     1      46.904  21.894  21.393  0.00  0.00    +0.007 C 
ATOM     30  C   UNL     1      49.320  20.697  18.703  0.00  0.00    -0.035 C 
ATOM     31  C   UNL     1      46.704  20.397  21.147  0.00  0.00    -0.033 C 
ATOM     32  C   UNL     1      46.522  19.697  22.505  0.00  0.00    +0.025 C 
BRANCH  22  23
ATOM     23  C   UNL     1      43.175  20.772  19.620  0.00  0.00    +0.506 C 
ATOM     24  O   UNL     1      42.703  21.799  19.166  0.00  0.00    -0.704 OA
ATOM     25  O   UNL     1      42.798  19.691  19.201  0.00  0.00    -0.703 OA
ENDBRANCH  22  23
ENDBRANCH  16  17
TORSDOF 3
ENDMDL
MODEL 7
REMARK VINA RESULT:      -5.5      1.579      7.148
REMARK  Name = ZINC95486366
REMARK  7 active torsions:
REMARK  status: ('A' for Active; 'I' for Inactive)
REMARK    1  A    between atoms: C1_1  and  C2_2
REMARK    2  A    between atoms: C7_7  and  C8_8
REMARK    3  A    between atoms: C8_8  and  C9_9
REMARK    4  A    between atoms: C15_17  and  C22_26
REMARK    5  A    between atoms: C19_21  and  C20_22
REMARK    6  A    between atoms: C19_21  and  C21_23
REMARK    7  A    between atoms: C25_30  and  C27_33
REMARK                            x       y       z     vdW  Elec       q    Type
REMARK                         _______ _______ _______ _____ _____    ______ ____
ROOT
ATOM     16  C   UNL     1      49.008  15.767  18.960  0.00  0.00    +0.089 C 
ENDROOT
BRANCH  16  15
ATOM      1  C   UNL     1      47.118  16.379  21.060  0.00  0.00    +0.092 C 
ATOM      2  C   UNL     1      46.776  15.343  20.021  0.00  0.00    -0.076 A 
ATOM      3  C   UNL     1      45.557  14.695  20.074  0.00  0.00    +0.012 A 
ATOM      4  C   UNL     1      45.227  13.738  19.125  0.00  0.00    +0.035 A 
ATOM      5  C   UNL     1      46.129  13.430  18.114  0.00  0.00    -0.100 A 
ATOM      6  C   UNL     1      47.369  14.089  18.061  0.00  0.00    -0.125 A 
ATOM      7  C   UNL     1      48.321  13.755  16.980  0.00  0.00    +0.384 C 
ATOM      8  C   UNL     1      47.956  12.731  15.973  0.00  0.00    +0.253 C 
ATOM      9  O   UNL     1      48.826  12.425  14.983  0.00  0.00    -0.648 OA
ATOM     10  C   UNL     1      46.763  12.103  16.031  0.00  0.00    -0.449 C 
ATOM     11  C   UNL     1      46.418  11.066  14.993  0.00  0.00    +0.067 C 
ATOM     12  O   UNL     1      49.397  14.315  16.919  0.00  0.00    -0.415 OA
ATOM     13  C   UNL     1      45.799  12.414  17.090  0.00  0.00    +0.427 C 
ATOM     14  O   UNL     1      44.728  11.837  17.127  0.00  0.00    -0.527 OA
ATOM     15  C   UNL     1      47.683  15.051  19.016  0.00  0.00    -0.025 A 
ENDBRANCH  16  15
BRANCH  16  17
ATOM     17  C   UNL     1      49.004  16.756  17.794  0.00  0.00    +0.043 C 
ATOM     18  C   UNL     1      47.869  17.732  17.941  0.00  0.00    -0.087 C 
ATOM     19  C   UNL     1      47.994  18.778  19.024  0.00  0.00    +0.037 C 
ATOM     20  C   UNL     1      49.316  19.520  18.792  0.00  0.00    +0.018 C 
ATOM     21  C   UNL     1      50.502  18.547  18.817  0.00  0.00    +0.035 C 
ATOM     22  C   UNL     1      51.788  19.362  18.685  0.00  0.00    -0.121 C 
ATOM     26  C   UNL     1      53.033  18.573  19.100  0.00  0.00    +0.012 C 
ATOM     27  C   UNL     1      51.959  19.911  17.271  0.00  0.00    +0.023 C 
ATOM     28  C   UNL     1      51.857  18.806  16.225  0.00  0.00    -0.016 C 
ATOM     29  C   UNL     1      50.507  18.106  16.345  0.00  0.00    +0.007 C 
ATOM     30  C   UNL     1      46.813  17.681  17.167  0.00  0.00    -0.035 C 
ATOM     31  C   UNL     1      50.354  17.487  17.736  0.00  0.00    -0.033 C 
ATOM     32  C   UNL     1      51.399  16.368  17.892  0.00  0.00    +0.025 C 
BRANCH  22  23
ATOM     23  C   UNL     1      51.740  20.558  19.628  0.00  0.00    +0.506 C 
ATOM     24  O   UNL     1      51.661  20.382  20.831  0.00  0.00    -0.704 OA
ATOM     25  O   UNL     1      51.781  21.690  19.178  0.00  0.00    -0.703 OA
ENDBRANCH  22  23
ENDBRANCH  16  17
TORSDOF 3
ENDMDL
MODEL 8
REMARK VINA RESULT:      -5.4      2.679      7.189
REMARK  Name = ZINC95486366
REMARK  7 active torsions:
REMARK  status: ('A' for Active; 'I' for Inactive)
REMARK    1  A    between atoms: C1_1  and  C2_2
REMARK    2  A    between atoms: C7_7  and  C8_8
REMARK    3  A    between atoms: C8_8  and  C9_9
REMARK    4  A    between atoms: C15_17  and  C22_26
REMARK    5  A    between atoms: C19_21  and  C20_22
REMARK    6  A    between atoms: C19_21  and  C21_23
REMARK    7  A    between atoms: C25_30  and  C27_33
REMARK                            x       y       z     vdW  Elec       q    Type
REMARK                         _______ _______ _______ _____ _____    ______ ____
ROOT
ATOM     16  C   UNL     1      48.372  15.943  18.908  0.00  0.00    +0.089 C 
ENDROOT
BRANCH  16  15
ATOM      1  C   UNL     1      51.055  16.243  17.874  0.00  0.00    +0.092 C 
ATOM      2  C   UNL     1      50.172  15.134  17.361  0.00  0.00    -0.076 A 
ATOM      3  C   UNL     1      50.652  14.263  16.403  0.00  0.00    +0.012 A 
ATOM      4  C   UNL     1      49.852  13.238  15.921  0.00  0.00    +0.035 A 
ATOM      5  C   UNL     1      48.559  13.086  16.405  0.00  0.00    -0.100 A 
ATOM      6  C   UNL     1      48.070  13.973  17.380  0.00  0.00    -0.125 A 
ATOM      7  C   UNL     1      46.693  13.802  17.888  0.00  0.00    +0.384 C 
ATOM      8  C   UNL     1      45.849  12.702  17.365  0.00  0.00    +0.253 C 
ATOM      9  O   UNL     1      44.589  12.545  17.830  0.00  0.00    -0.648 OA
ATOM     10  C   UNL     1      46.326  11.855  16.430  0.00  0.00    -0.449 C 
ATOM     11  C   UNL     1      45.445  10.745  15.915  0.00  0.00    +0.067 C 
ATOM     12  O   UNL     1      46.256  14.560  18.731  0.00  0.00    -0.415 OA
ATOM     13  C   UNL     1      47.687  11.999  15.906  0.00  0.00    +0.427 C 
ATOM     14  O   UNL     1      48.100  11.226  15.062  0.00  0.00    -0.527 OA
ATOM     15  C   UNL     1      48.887  14.992  17.858  0.00  0.00    -0.025 A 
ENDBRANCH  16  15
BRANCH  16  17
ATOM     17  C   UNL     1      48.367  17.366  18.349  0.00  0.00    +0.043 C 
ATOM     18  C   UNL     1      47.208  17.554  17.409  0.00  0.00    -0.087 C 
ATOM     19  C   UNL     1      45.828  17.629  18.019  0.00  0.00    +0.037 C 
ATOM     20  C   UNL     1      45.855  18.744  19.071  0.00  0.00    +0.018 C 
ATOM     21  C   UNL     1      46.922  18.466  20.138  0.00  0.00    +0.035 C 
ATOM     22  C   UNL     1      46.822  19.556  21.206  0.00  0.00    -0.121 C 
ATOM     26  C   UNL     1      47.537  19.177  22.505  0.00  0.00    +0.012 C 
ATOM     27  C   UNL     1      47.344  20.894  20.688  0.00  0.00    +0.023 C 
ATOM     28  C   UNL     1      48.751  20.763  20.116  0.00  0.00    -0.016 C 
ATOM     29  C   UNL     1      48.755  19.737  18.986  0.00  0.00    +0.007 C 
ATOM     30  C   UNL     1      47.382  17.648  16.114  0.00  0.00    -0.035 C 
ATOM     31  C   UNL     1      48.303  18.373  19.509  0.00  0.00    -0.033 C 
ATOM     32  C   UNL     1      49.351  17.862  20.514  0.00  0.00    +0.025 C 
BRANCH  22  23
ATOM     23  C   UNL     1      45.364  19.763  21.596  0.00  0.00    +0.506 C 
ATOM     24  O   UNL     1      44.752  18.874  22.160  0.00  0.00    -0.704 OA
ATOM     25  O   UNL     1      44.811  20.820  21.344  0.00  0.00    -0.703 OA
ENDBRANCH  22  23
ENDBRANCH  16  17
TORSDOF 3
ENDMDL
MODEL 9
REMARK VINA RESULT:      -5.4      2.627      4.302
REMARK  Name = ZINC95486366
REMARK  7 active torsions:
REMARK  status: ('A' for Active; 'I' for Inactive)
REMARK    1  A    between atoms: C1_1  and  C2_2
REMARK    2  A    between atoms: C7_7  and  C8_8
REMARK    3  A    between atoms: C8_8  and  C9_9
REMARK    4  A    between atoms: C15_17  and  C22_26
REMARK    5  A    between atoms: C19_21  and  C20_22
REMARK    6  A    between atoms: C19_21  and  C21_23
REMARK    7  A    between atoms: C25_30  and  C27_33
REMARK                            x       y       z     vdW  Elec       q    Type
REMARK                         _______ _______ _______ _____ _____    ______ ____
ROOT
ATOM     16  C   UNL     1      49.761  16.632  17.299  0.00  0.00    +0.089 C 
ENDROOT
BRANCH  16  15
ATOM      1  C   UNL     1      52.372  17.243  18.382  0.00  0.00    +0.092 C 
ATOM      2  C   UNL     1      51.187  18.100  18.749  0.00  0.00    -0.076 A 
ATOM      3  C   UNL     1      51.356  19.177  19.597  0.00  0.00    +0.012 A 
ATOM      4  C   UNL     1      50.276  19.974  19.945  0.00  0.00    +0.035 A 
ATOM      5  C   UNL     1      49.015  19.688  19.437  0.00  0.00    -0.100 A 
ATOM      6  C   UNL     1      48.843  18.591  18.574  0.00  0.00    -0.125 A 
ATOM      7  C   UNL     1      47.498  18.296  18.038  0.00  0.00    +0.384 C 
ATOM      8  C   UNL     1      46.352  19.156  18.418  0.00  0.00    +0.253 C 
ATOM      9  O   UNL     1      45.121  18.887  17.927  0.00  0.00    -0.648 OA
ATOM     10  C   UNL     1      46.526  20.207  19.246  0.00  0.00    -0.449 C 
ATOM     11  C   UNL     1      45.343  21.065  19.615  0.00  0.00    +0.067 C 
ATOM     12  O   UNL     1      47.332  17.352  17.291  0.00  0.00    -0.415 OA
ATOM     13  C   UNL     1      47.848  20.524  19.793  0.00  0.00    +0.427 C 
ATOM     14  O   UNL     1      47.985  21.476  20.539  0.00  0.00    -0.527 OA
ATOM     15  C   UNL     1      49.937  17.805  18.230  0.00  0.00    -0.025 A 
ENDBRANCH  16  15
BRANCH  16  17
ATOM     17  C   UNL     1      50.146  15.342  18.026  0.00  0.00    +0.043 C 
ATOM     18  C   UNL     1      49.012  14.875  18.896  0.00  0.00    -0.087 C 
ATOM     19  C   UNL     1      47.801  14.298  18.201  0.00  0.00    +0.037 C 
ATOM     20  C   UNL     1      48.293  13.160  17.297  0.00  0.00    +0.018 C 
ATOM     21  C   UNL     1      49.326  13.672  16.285  0.00  0.00    +0.035 C 
ATOM     22  C   UNL     1      49.692  12.515  15.354  0.00  0.00    -0.121 C 
ATOM     26  C   UNL     1      50.386  12.986  14.073  0.00  0.00    +0.012 C 
ATOM     27  C   UNL     1      50.551  11.475  16.067  0.00  0.00    +0.023 C 
ATOM     28  C   UNL     1      51.774  12.110  16.720  0.00  0.00    -0.016 C 
ATOM     29  C   UNL     1      51.331  13.180  17.714  0.00  0.00    +0.007 C 
ATOM     30  C   UNL     1      49.066  14.962  20.202  0.00  0.00    -0.035 C 
ATOM     31  C   UNL     1      50.530  14.268  16.997  0.00  0.00    -0.033 C 
ATOM     32  C   UNL     1      51.465  14.998  16.015  0.00  0.00    +0.025 C 
BRANCH  22  23
ATOM     23  C   UNL     1      48.426  11.809  14.887  0.00  0.00    +0.506 C 
ATOM     24  O   UNL     1      48.211  10.657  15.224  0.00  0.00    -0.704 OA
ATOM     25  O   UNL     1      47.627  12.395  14.177  0.00  0.00    -0.703 OA
ENDBRANCH  22  23
ENDBRANCH  16  17
TORSDOF 3
ENDMDL
