MODEL 1
REMARK VINA RESULT:      -6.1      0.000      0.000
REMARK  Name = ZINC03872315
REMARK  9 active torsions:
REMARK  status: ('A' for Active; 'I' for Inactive)
REMARK    1  A    between atoms: C1_1  and  C2_2
REMARK    2  A    between atoms: C4_4  and  O3_28
REMARK    3  A    between atoms: C7_7  and  C8_8
REMARK    4  A    between atoms: C13_13  and  O1_14
REMARK    5  A    between atoms: C14_15  and  C18_21
REMARK    6  A    between atoms: C15_17  and  C17_20
REMARK    7  A    between atoms: C22_25  and  O2_26
REMARK    8  A    between atoms: O2_26  and  C23_27
REMARK    9  A    between atoms: O3_28  and  C24_29
REMARK                            x       y       z     vdW  Elec       q    Type
REMARK                         _______ _______ _______ _____ _____    ______ ____
ROOT
ATOM     16  C   UNL     1      47.019  19.394  20.587  0.00  0.00    -0.026 A 
ATOM     17  C   UNL     1      46.817  18.397  21.541  0.00  0.00    +0.073 A 
ATOM     18  C   UNL     1      45.536  18.062  21.920  0.00  0.00    +0.027 A 
ATOM     19  C   UNL     1      44.441  18.708  21.361  0.00  0.00    -0.077 A 
ATOM     20  C   UNL     1      44.628  19.694  20.415  0.00  0.00    -0.154 A 
ATOM     21  C   UNL     1      43.468  20.410  19.776  0.00  0.00    +0.238 C 
ATOM     22  N   UNL     1      42.247  20.233  20.571  0.00  0.00    -0.510 N 
ATOM     23  H   UNL     1      42.350  20.723  21.468  0.00  0.00    +0.434 HD
ATOM     24  H   UNL     1      41.446  20.623  20.059  0.00  0.00    +0.435 HD
ATOM     25  C   UNL     1      42.015  18.798  20.821  0.00  0.00    +0.170 C 
ATOM     26  C   UNL     1      40.615  18.603  21.406  0.00  0.00    +0.093 C 
ATOM     27  C   UNL     1      43.242  19.852  18.369  0.00  0.00    +0.093 C 
ATOM     28  C   UNL     1      43.062  18.302  21.818  0.00  0.00    +0.130 C 
ATOM     29  C   UNL     1      45.916  20.042  20.026  0.00  0.00    +0.146 A 
ENDROOT
BRANCH  16  15
ATOM      1  C   UNL     1      48.446  21.413  22.053  0.00  0.00    +0.094 C 
ATOM      2  C   UNL     1      49.090  20.736  20.870  0.00  0.00    +0.000 A 
ATOM      3  C   UNL     1      50.378  21.092  20.492  0.00  0.00    -0.112 A 
ATOM      4  C   UNL     1      50.993  20.489  19.415  0.00  0.00    +0.192 A 
ATOM      7  C   UNL     1      50.310  19.497  18.683  0.00  0.00    -0.105 A 
ATOM      8  C   UNL     1      48.999  19.125  19.067  0.00  0.00    +0.051 A 
ATOM      9  C   UNL     1      48.318  18.143  18.334  0.00  0.00    -0.047 A 
ATOM     10  C   UNL     1      48.923  17.546  17.268  0.00  0.00    +0.079 A 
ATOM     11  C   UNL     1      50.212  17.900  16.886  0.00  0.00    -0.110 A 
ATOM     12  C   UNL     1      50.912  18.865  17.578  0.00  0.00    +0.177 A 
ATOM     15  C   UNL     1      48.391  19.765  20.174  0.00  0.00    -0.119 A 
BRANCH   4   5
ATOM      5  O   UNL     1      52.252  20.850  19.061  0.00  0.00    -0.287 OA
ATOM      6  C   UNL     1      52.946  21.733  19.944  0.00  0.00    +0.246 C 
ENDBRANCH   4   5
BRANCH  12  13
ATOM     13  O   UNL     1      52.171  19.203  17.197  0.00  0.00    -0.290 OA
ATOM     14  C   UNL     1      52.343  19.650  15.851  0.00  0.00    +0.245 C 
ENDBRANCH  12  13
ENDBRANCH  16  15
BRANCH  29  30
ATOM     30  O   UNL     1      46.102  21.020  19.100  0.00  0.00    -0.483 OA
ATOM     31  H   UNL     1      46.029  20.715  18.186  0.00  0.00    +0.394 HD
ENDBRANCH  29  30
TORSDOF 4
ENDMDL
MODEL 2
REMARK VINA RESULT:      -6.0      3.541      6.124
REMARK  Name = ZINC03872315
REMARK  9 active torsions:
REMARK  status: ('A' for Active; 'I' for Inactive)
REMARK    1  A    between atoms: C1_1  and  C2_2
REMARK    2  A    between atoms: C4_4  and  O3_28
REMARK    3  A    between atoms: C7_7  and  C8_8
REMARK    4  A    between atoms: C13_13  and  O1_14
REMARK    5  A    between atoms: C14_15  and  C18_21
REMARK    6  A    between atoms: C15_17  and  C17_20
REMARK    7  A    between atoms: C22_25  and  O2_26
REMARK    8  A    between atoms: O2_26  and  C23_27
REMARK    9  A    between atoms: O3_28  and  C24_29
REMARK                            x       y       z     vdW  Elec       q    Type
REMARK                         _______ _______ _______ _____ _____    ______ ____
ROOT
ATOM     16  C   UNL     1      46.096  17.164  19.600  0.00  0.00    -0.026 A 
ATOM     17  C   UNL     1      45.394  16.275  20.413  0.00  0.00    +0.073 A 
ATOM     18  C   UNL     1      45.227  14.967  20.012  0.00  0.00    +0.027 A 
ATOM     19  C   UNL     1      45.753  14.525  18.806  0.00  0.00    -0.077 A 
ATOM     20  C   UNL     1      46.452  15.394  17.995  0.00  0.00    -0.154 A 
ATOM     21  C   UNL     1      47.048  14.952  16.685  0.00  0.00    +0.238 C 
ATOM     22  N   UNL     1      46.438  13.694  16.236  0.00  0.00    -0.510 N 
ATOM     23  H   UNL     1      45.454  13.860  15.993  0.00  0.00    +0.434 HD
ATOM     24  H   UNL     1      46.940  13.347  15.409  0.00  0.00    +0.435 HD
ATOM     25  C   UNL     1      46.513  12.688  17.311  0.00  0.00    +0.170 C 
ATOM     26  C   UNL     1      46.130  11.316  16.753  0.00  0.00    +0.093 C 
ATOM     27  C   UNL     1      48.555  14.750  16.857  0.00  0.00    +0.093 C 
ATOM     28  C   UNL     1      45.535  13.084  18.418  0.00  0.00    +0.130 C 
ATOM     29  C   UNL     1      46.625  16.716  18.387  0.00  0.00    +0.146 A 
ENDROOT
BRANCH  16  15
ATOM      1  C   UNL     1      48.527  17.948  20.918  0.00  0.00    +0.094 C 
ATOM      2  C   UNL     1      47.444  18.964  20.655  0.00  0.00    +0.000 A 
ATOM      3  C   UNL     1      47.629  20.281  21.052  0.00  0.00    -0.112 A 
ATOM      4  C   UNL     1      46.656  21.232  20.825  0.00  0.00    +0.192 A 
ATOM      7  C   UNL     1      45.457  20.869  20.181  0.00  0.00    -0.105 A 
ATOM      8  C   UNL     1      45.266  19.528  19.767  0.00  0.00    +0.051 A 
ATOM      9  C   UNL     1      44.069  19.166  19.132  0.00  0.00    -0.047 A 
ATOM     10  C   UNL     1      43.106  20.103  18.907  0.00  0.00    +0.079 A 
ATOM     11  C   UNL     1      43.286  21.424  19.304  0.00  0.00    -0.110 A 
ATOM     12  C   UNL     1      44.446  21.818  19.935  0.00  0.00    +0.177 A 
ATOM     15  C   UNL     1      46.279  18.572  20.019  0.00  0.00    -0.119 A 
BRANCH   4   5
ATOM      5  O   UNL     1      46.854  22.516  21.220  0.00  0.00    -0.287 OA
ATOM      6  C   UNL     1      47.505  22.714  22.476  0.00  0.00    +0.246 C 
ENDBRANCH   4   5
BRANCH  12  13
ATOM     13  O   UNL     1      44.612  23.110  20.319  0.00  0.00    -0.290 OA
ATOM     14  C   UNL     1      44.508  24.107  19.301  0.00  0.00    +0.245 C 
ENDBRANCH  12  13
ENDBRANCH  16  15
BRANCH  29  30
ATOM     30  O   UNL     1      47.305  17.577  17.585  0.00  0.00    -0.483 OA
ATOM     31  H   UNL     1      47.668  17.167  16.788  0.00  0.00    +0.394 HD
ENDBRANCH  29  30
TORSDOF 4
ENDMDL
MODEL 3
REMARK VINA RESULT:      -5.8      1.268      3.016
REMARK  Name = ZINC03872315
REMARK  9 active torsions:
REMARK  status: ('A' for Active; 'I' for Inactive)
REMARK    1  A    between atoms: C1_1  and  C2_2
REMARK    2  A    between atoms: C4_4  and  O3_28
REMARK    3  A    between atoms: C7_7  and  C8_8
REMARK    4  A    between atoms: C13_13  and  O1_14
REMARK    5  A    between atoms: C14_15  and  C18_21
REMARK    6  A    between atoms: C15_17  and  C17_20
REMARK    7  A    between atoms: C22_25  and  O2_26
REMARK    8  A    between atoms: O2_26  and  C23_27
REMARK    9  A    between atoms: O3_28  and  C24_29
REMARK                            x       y       z     vdW  Elec       q    Type
REMARK                         _______ _______ _______ _____ _____    ______ ____
ROOT
ATOM     16  C   UNL     1      46.199  18.052  19.417  0.00  0.00    -0.026 A 
ATOM     17  C   UNL     1      45.940  17.191  20.483  0.00  0.00    +0.073 A 
ATOM     18  C   UNL     1      44.748  17.287  21.167  0.00  0.00    +0.027 A 
ATOM     19  C   UNL     1      43.800  18.234  20.805  0.00  0.00    -0.077 A 
ATOM     20  C   UNL     1      44.043  19.090  19.751  0.00  0.00    -0.154 A 
ATOM     21  C   UNL     1      43.037  20.123  19.319  0.00  0.00    +0.238 C 
ATOM     22  N   UNL     1      42.048  20.359  20.378  0.00  0.00    -0.510 N 
ATOM     23  H   UNL     1      42.507  20.810  21.179  0.00  0.00    +0.434 HD
ATOM     24  H   UNL     1      41.304  20.971  20.021  0.00  0.00    +0.435 HD
ATOM     25  C   UNL     1      41.460  19.077  20.810  0.00  0.00    +0.170 C 
ATOM     26  C   UNL     1      40.250  19.348  21.707  0.00  0.00    +0.093 C 
ATOM     27  C   UNL     1      42.321  19.635  18.058  0.00  0.00    +0.093 C 
ATOM     28  C   UNL     1      42.515  18.296  21.593  0.00  0.00    +0.130 C 
ATOM     29  C   UNL     1      45.242  19.004  19.054  0.00  0.00    +0.146 A 
ENDROOT
BRANCH  16  15
ATOM      1  C   UNL     1      46.552  15.988  17.449  0.00  0.00    +0.094 C 
ATOM      2  C   UNL     1      47.662  16.970  17.726  0.00  0.00    +0.000 A 
ATOM      3  C   UNL     1      48.856  16.873  17.024  0.00  0.00    -0.112 A 
ATOM      4  C   UNL     1      49.888  17.758  17.256  0.00  0.00    +0.192 A 
ATOM      7  C   UNL     1      49.735  18.777  18.217  0.00  0.00    -0.105 A 
ATOM      8  C   UNL     1      48.517  18.885  18.932  0.00  0.00    +0.051 A 
ATOM      9  C   UNL     1      48.369  19.895  19.893  0.00  0.00    -0.047 A 
ATOM     10  C   UNL     1      49.387  20.770  20.125  0.00  0.00    +0.079 A 
ATOM     11  C   UNL     1      50.586  20.677  19.425  0.00  0.00    -0.110 A 
ATOM     12  C   UNL     1      50.772  19.694  18.476  0.00  0.00    +0.177 A 
ATOM     15  C   UNL     1      47.477  17.960  18.676  0.00  0.00    -0.119 A 
BRANCH   4   5
ATOM      5  O   UNL     1      51.048  17.648  16.560  0.00  0.00    -0.287 OA
ATOM      6  C   UNL     1      51.732  16.396  16.635  0.00  0.00    +0.246 C 
ENDBRANCH   4   5
BRANCH  12  13
ATOM     13  O   UNL     1      51.945  19.611  17.798  0.00  0.00    -0.290 OA
ATOM     14  C   UNL     1      52.239  20.664  16.878  0.00  0.00    +0.245 C 
ENDBRANCH  12  13
ENDBRANCH  16  15
BRANCH  29  30
ATOM     30  O   UNL     1      45.488  19.852  18.022  0.00  0.00    -0.483 OA
ATOM     31  H   UNL     1      45.845  20.709  18.293  0.00  0.00    +0.394 HD
ENDBRANCH  29  30
TORSDOF 4
ENDMDL
MODEL 4
REMARK VINA RESULT:      -5.8      3.877      5.838
REMARK  Name = ZINC03872315
REMARK  9 active torsions:
REMARK  status: ('A' for Active; 'I' for Inactive)
REMARK    1  A    between atoms: C1_1  and  C2_2
REMARK    2  A    between atoms: C4_4  and  O3_28
REMARK    3  A    between atoms: C7_7  and  C8_8
REMARK    4  A    between atoms: C13_13  and  O1_14
REMARK    5  A    between atoms: C14_15  and  C18_21
REMARK    6  A    between atoms: C15_17  and  C17_20
REMARK    7  A    between atoms: C22_25  and  O2_26
REMARK    8  A    between atoms: O2_26  and  C23_27
REMARK    9  A    between atoms: O3_28  and  C24_29
REMARK                            x       y       z     vdW  Elec       q    Type
REMARK                         _______ _______ _______ _____ _____    ______ ____
ROOT
ATOM     16  C   UNL     1      47.575  17.647  19.018  0.00  0.00    -0.026 A 
ATOM     17  C   UNL     1      48.231  17.997  20.198  0.00  0.00    +0.073 A 
ATOM     18  C   UNL     1      47.930  19.188  20.819  0.00  0.00    +0.027 A 
ATOM     19  C   UNL     1      46.978  20.045  20.284  0.00  0.00    -0.077 A 
ATOM     20  C   UNL     1      46.321  19.709  19.119  0.00  0.00    -0.154 A 
ATOM     21  C   UNL     1      45.273  20.603  18.511  0.00  0.00    +0.238 C 
ATOM     22  N   UNL     1      45.379  21.965  19.050  0.00  0.00    -0.510 N 
ATOM     23  H   UNL     1      46.257  22.392  18.728  0.00  0.00    +0.434 HD
ATOM     24  H   UNL     1      44.585  22.526  18.718  0.00  0.00    +0.435 HD
ATOM     25  C   UNL     1      45.366  21.924  20.523  0.00  0.00    +0.170 C 
ATOM     26  C   UNL     1      45.202  23.344  21.071  0.00  0.00    +0.093 C 
ATOM     27  C   UNL     1      43.885  20.042  18.823  0.00  0.00    +0.093 C 
ATOM     28  C   UNL     1      46.693  21.338  21.006  0.00  0.00    +0.130 C 
ATOM     29  C   UNL     1      46.617  18.510  18.481  0.00  0.00    +0.146 A 
ENDROOT
BRANCH  16  15
ATOM      1  C   UNL     1      49.864  17.491  17.286  0.00  0.00    +0.094 C 
ATOM      2  C   UNL     1      48.991  16.280  17.501  0.00  0.00    +0.000 A 
ATOM      3  C   UNL     1      49.300  15.089  16.859  0.00  0.00    -0.112 A 
ATOM      4  C   UNL     1      48.520  13.966  17.036  0.00  0.00    +0.192 A 
ATOM      7  C   UNL     1      47.393  14.021  17.881  0.00  0.00    -0.105 A 
ATOM      8  C   UNL     1      47.077  15.232  18.544  0.00  0.00    +0.051 A 
ATOM      9  C   UNL     1      45.952  15.288  19.379  0.00  0.00    -0.047 A 
ATOM     10  C   UNL     1      45.179  14.179  19.556  0.00  0.00    +0.079 A 
ATOM     11  C   UNL     1      45.483  12.984  18.914  0.00  0.00    -0.110 A 
ATOM     12  C   UNL     1      46.578  12.891  18.081  0.00  0.00    +0.177 A 
ATOM     15  C   UNL     1      47.893  16.370  18.338  0.00  0.00    -0.119 A 
BRANCH   4   5
ATOM      5  O   UNL     1      48.837  12.809  16.400  0.00  0.00    -0.287 OA
ATOM      6  C   UNL     1      49.144  12.899  15.008  0.00  0.00    +0.246 C 
ENDBRANCH   4   5
BRANCH  12  13
ATOM     13  O   UNL     1      46.867  11.718  17.459  0.00  0.00    -0.290 OA
ATOM     14  C   UNL     1      45.909  11.229  16.519  0.00  0.00    +0.245 C 
ENDBRANCH  12  13
ENDBRANCH  16  15
BRANCH  29  30
ATOM     30  O   UNL     1      45.978  18.181  17.328  0.00  0.00    -0.483 OA
ATOM     31  H   UNL     1      46.312  17.376  16.909  0.00  0.00    +0.394 HD
ENDBRANCH  29  30
TORSDOF 4
ENDMDL
MODEL 5
REMARK VINA RESULT:      -5.8      4.921      7.952
REMARK  Name = ZINC03872315
REMARK  9 active torsions:
REMARK  status: ('A' for Active; 'I' for Inactive)
REMARK    1  A    between atoms: C1_1  and  C2_2
REMARK    2  A    between atoms: C4_4  and  O3_28
REMARK    3  A    between atoms: C7_7  and  C8_8
REMARK    4  A    between atoms: C13_13  and  O1_14
REMARK    5  A    between atoms: C14_15  and  C18_21
REMARK    6  A    between atoms: C15_17  and  C17_20
REMARK    7  A    between atoms: C22_25  and  O2_26
REMARK    8  A    between atoms: O2_26  and  C23_27
REMARK    9  A    between atoms: O3_28  and  C24_29
REMARK                            x       y       z     vdW  Elec       q    Type
REMARK                         _______ _______ _______ _____ _____    ______ ____
ROOT
ATOM     16  C   UNL     1      46.376  15.209  20.228  0.00  0.00    -0.026 A 
ATOM     17  C   UNL     1      47.666  15.338  20.741  0.00  0.00    +0.073 A 
ATOM     18  C   UNL     1      48.640  14.434  20.379  0.00  0.00    +0.027 A 
ATOM     19  C   UNL     1      48.351  13.395  19.505  0.00  0.00    -0.077 A 
ATOM     20  C   UNL     1      47.080  13.259  18.987  0.00  0.00    -0.154 A 
ATOM     21  C   UNL     1      46.727  12.154  18.027  0.00  0.00    +0.238 C 
ATOM     22  N   UNL     1      47.730  11.082  18.080  0.00  0.00    -0.510 N 
ATOM     23  H   UNL     1      47.681  10.614  18.993  0.00  0.00    +0.434 HD
ATOM     24  H   UNL     1      47.539  10.400  17.336  0.00  0.00    +0.435 HD
ATOM     25  C   UNL     1      49.079  11.647  17.891  0.00  0.00    +0.170 C 
ATOM     26  C   UNL     1      50.081  10.512  17.675  0.00  0.00    +0.093 C 
ATOM     27  C   UNL     1      46.664  12.719  16.607  0.00  0.00    +0.093 C 
ATOM     28  C   UNL     1      49.457  12.434  19.147  0.00  0.00    +0.130 C 
ATOM     29  C   UNL     1      46.088  14.163  19.347  0.00  0.00    +0.146 A 
ENDROOT
BRANCH  16  15
ATOM      1  C   UNL     1      44.713  14.657  22.505  0.00  0.00    +0.094 C 
ATOM      2  C   UNL     1      44.511  15.919  21.707  0.00  0.00    +0.000 A 
ATOM      3  C   UNL     1      43.517  16.815  22.078  0.00  0.00    -0.112 A 
ATOM      4  C   UNL     1      43.309  17.978  21.366  0.00  0.00    +0.192 A 
ATOM      7  C   UNL     1      44.114  18.267  20.246  0.00  0.00    -0.105 A 
ATOM      8  C   UNL     1      45.133  17.361  19.866  0.00  0.00    +0.051 A 
ATOM      9  C   UNL     1      45.929  17.647  18.747  0.00  0.00    -0.047 A 
ATOM     10  C   UNL     1      45.725  18.794  18.042  0.00  0.00    +0.079 A 
ATOM     11  C   UNL     1      44.730  19.695  18.409  0.00  0.00    -0.110 A 
ATOM     12  C   UNL     1      43.925  19.446  19.500  0.00  0.00    +0.177 A 
ATOM     15  C   UNL     1      45.320  16.173  20.612  0.00  0.00    -0.119 A 
BRANCH   4   5
ATOM      5  O   UNL     1      42.333  18.842  21.744  0.00  0.00    -0.287 OA
ATOM      6  C   UNL     1      40.986  18.462  21.458  0.00  0.00    +0.246 C 
ENDBRANCH   4   5
BRANCH  12  13
ATOM     13  O   UNL     1      42.956  20.332  19.851  0.00  0.00    -0.290 OA
ATOM     14  C   UNL     1      42.099  20.802  18.809  0.00  0.00    +0.245 C 
ENDBRANCH  12  13
ENDBRANCH  16  15
BRANCH  29  30
ATOM     30  O   UNL     1      44.832  14.026  18.846  0.00  0.00    -0.483 OA
ATOM     31  H   UNL     1      44.142  14.410  19.404  0.00  0.00    +0.394 HD
ENDBRANCH  29  30
TORSDOF 4
ENDMDL
MODEL 6
REMARK VINA RESULT:      -5.5      3.684      6.168
REMARK  Name = ZINC03872315
REMARK  9 active torsions:
REMARK  status: ('A' for Active; 'I' for Inactive)
REMARK    1  A    between atoms: C1_1  and  C2_2
REMARK    2  A    between atoms: C4_4  and  O3_28
REMARK    3  A    between atoms: C7_7  and  C8_8
REMARK    4  A    between atoms: C13_13  and  O1_14
REMARK    5  A    between atoms: C14_15  and  C18_21
REMARK    6  A    between atoms: C15_17  and  C17_20
REMARK    7  A    between atoms: C22_25  and  O2_26
REMARK    8  A    between atoms: O2_26  and  C23_27
REMARK    9  A    between atoms: O3_28  and  C24_29
REMARK                            x       y       z     vdW  Elec       q    Type
REMARK                         _______ _______ _______ _____ _____    ______ ____
ROOT
ATOM     16  C   UNL     1      44.764  18.879  20.292  0.00  0.00    -0.026 A 
ATOM     17  C   UNL     1      43.813  19.494  19.480  0.00  0.00    +0.073 A 
ATOM     18  C   UNL     1      43.734  20.869  19.439  0.00  0.00    +0.027 A 
ATOM     19  C   UNL     1      44.595  21.649  20.198  0.00  0.00    -0.077 A 
ATOM     20  C   UNL     1      45.543  21.052  21.003  0.00  0.00    -0.154 A 
ATOM     21  C   UNL     1      46.503  21.861  21.834  0.00  0.00    +0.238 C 
ATOM     22  N   UNL     1      46.021  23.240  21.988  0.00  0.00    -0.510 N 
ATOM     23  H   UNL     1      45.169  23.241  22.562  0.00  0.00    +0.434 HD
ATOM     24  H   UNL     1      46.744  23.805  22.450  0.00  0.00    +0.435 HD
ATOM     25  C   UNL     1      45.721  23.818  20.665  0.00  0.00    +0.170 C 
ATOM     26  C   UNL     1      45.484  25.323  20.808  0.00  0.00    +0.093 C 
ATOM     27  C   UNL     1      47.873  21.878  21.151  0.00  0.00    +0.093 C 
ATOM     28  C   UNL     1      44.460  23.149  20.116  0.00  0.00    +0.130 C 
ATOM     29  C   UNL     1      45.630  19.666  21.055  0.00  0.00    +0.146 A 
ENDROOT
BRANCH  16  15
ATOM      1  C   UNL     1      43.595  17.465  22.505  0.00  0.00    +0.094 C 
ATOM      2  C   UNL     1      44.298  16.708  21.407  0.00  0.00    +0.000 A 
ATOM      3  C   UNL     1      44.377  15.323  21.469  0.00  0.00    -0.112 A 
ATOM      4  C   UNL     1      45.014  14.604  20.480  0.00  0.00    +0.192 A 
ATOM      7  C   UNL     1      45.594  15.278  19.387  0.00  0.00    -0.105 A 
ATOM      8  C   UNL     1      45.511  16.690  19.314  0.00  0.00    +0.051 A 
ATOM      9  C   UNL     1      46.095  17.360  18.229  0.00  0.00    -0.047 A 
ATOM     10  C   UNL     1      46.725  16.653  17.250  0.00  0.00    +0.079 A 
ATOM     11  C   UNL     1      46.808  15.265  17.309  0.00  0.00    -0.110 A 
ATOM     12  C   UNL     1      46.251  14.571  18.362  0.00  0.00    +0.177 A 
ATOM     15  C   UNL     1      44.856  17.402  20.347  0.00  0.00    -0.119 A 
BRANCH   4   5
ATOM      5  O   UNL     1      45.081  13.251  20.558  0.00  0.00    -0.287 OA
ATOM      6  C   UNL     1      45.119  12.679  21.867  0.00  0.00    +0.246 C 
ENDBRANCH   4   5
BRANCH  12  13
ATOM     13  O   UNL     1      46.337  13.217  18.410  0.00  0.00    -0.290 OA
ATOM     14  C   UNL     1      45.969  12.501  17.230  0.00  0.00    +0.245 C 
ENDBRANCH  12  13
ENDBRANCH  16  15
BRANCH  29  30
ATOM     30  O   UNL     1      46.557  19.075  21.855  0.00  0.00    -0.483 OA
ATOM     31  H   UNL     1      46.341  18.165  22.099  0.00  0.00    +0.394 HD
ENDBRANCH  29  30
TORSDOF 4
ENDMDL
MODEL 7
REMARK VINA RESULT:      -5.5      5.169      8.681
REMARK  Name = ZINC03872315
REMARK  9 active torsions:
REMARK  status: ('A' for Active; 'I' for Inactive)
REMARK    1  A    between atoms: C1_1  and  C2_2
REMARK    2  A    between atoms: C4_4  and  O3_28
REMARK    3  A    between atoms: C7_7  and  C8_8
REMARK    4  A    between atoms: C13_13  and  O1_14
REMARK    5  A    between atoms: C14_15  and  C18_21
REMARK    6  A    between atoms: C15_17  and  C17_20
REMARK    7  A    between atoms: C22_25  and  O2_26
REMARK    8  A    between atoms: O2_26  and  C23_27
REMARK    9  A    between atoms: O3_28  and  C24_29
REMARK                            x       y       z     vdW  Elec       q    Type
REMARK                         _______ _______ _______ _____ _____    ______ ____
ROOT
ATOM     16  C   UNL     1      47.884  14.000  17.933  0.00  0.00    -0.026 A 
ATOM     17  C   UNL     1      49.238  14.040  18.264  0.00  0.00    +0.073 A 
ATOM     18  C   UNL     1      50.152  13.363  17.487  0.00  0.00    +0.027 A 
ATOM     19  C   UNL     1      49.739  12.642  16.375  0.00  0.00    -0.077 A 
ATOM     20  C   UNL     1      48.403  12.598  16.035  0.00  0.00    -0.154 A 
ATOM     21  C   UNL     1      47.913  11.839  14.831  0.00  0.00    +0.238 C 
ATOM     22  N   UNL     1      48.923  10.872  14.383  0.00  0.00    -0.510 N 
ATOM     23  H   UNL     1      49.027  10.134  15.090  0.00  0.00    +0.434 HD
ATOM     24  H   UNL     1      48.624  10.453  13.493  0.00  0.00    +0.435 HD
ATOM     25  C   UNL     1      50.218  11.552  14.191  0.00  0.00    +0.170 C 
ATOM     26  C   UNL     1      51.186  10.610  13.471  0.00  0.00    +0.093 C 
ATOM     27  C   UNL     1      47.616  12.823  13.698  0.00  0.00    +0.093 C 
ATOM     28  C   UNL     1      50.783  11.917  15.563  0.00  0.00    +0.130 C 
ATOM     29  C   UNL     1      47.470  13.275  16.813  0.00  0.00    +0.146 A 
ENDROOT
BRANCH  16  15
ATOM      1  C   UNL     1      46.630  12.651  20.139  0.00  0.00    +0.094 C 
ATOM      2  C   UNL     1      46.280  14.084  19.828  0.00  0.00    +0.000 A 
ATOM      3  C   UNL     1      45.348  14.749  20.614  0.00  0.00    -0.112 A 
ATOM      4  C   UNL     1      45.008  16.060  20.353  0.00  0.00    +0.192 A 
ATOM      7  C   UNL     1      45.611  16.740  19.276  0.00  0.00    -0.105 A 
ATOM      8  C   UNL     1      46.567  16.069  18.475  0.00  0.00    +0.051 A 
ATOM      9  C   UNL     1      47.162  16.744  17.399  0.00  0.00    -0.047 A 
ATOM     10  C   UNL     1      46.827  18.039  17.139  0.00  0.00    +0.079 A 
ATOM     11  C   UNL     1      45.894  18.709  17.923  0.00  0.00    -0.110 A 
ATOM     12  C   UNL     1      45.284  18.078  18.985  0.00  0.00    +0.177 A 
ATOM     15  C   UNL     1      46.892  14.722  18.763  0.00  0.00    -0.119 A 
BRANCH   4   5
ATOM      5  O   UNL     1      44.095  16.694  21.132  0.00  0.00    -0.287 OA
ATOM      6  C   UNL     1      44.032  16.304  22.505  0.00  0.00    +0.246 C 
ENDBRANCH   4   5
BRANCH  12  13
ATOM     13  O   UNL     1      44.374  18.741  19.745  0.00  0.00    -0.290 OA
ATOM     14  C   UNL     1      43.663  19.810  19.119  0.00  0.00    +0.245 C 
ENDBRANCH  12  13
ENDBRANCH  16  15
BRANCH  29  30
ATOM     30  O   UNL     1      46.152  13.226  16.486  0.00  0.00    -0.483 OA
ATOM     31  H   UNL     1      45.623  12.669  17.073  0.00  0.00    +0.394 HD
ENDBRANCH  29  30
TORSDOF 4
ENDMDL
MODEL 8
REMARK VINA RESULT:      -5.5      4.238      7.721
REMARK  Name = ZINC03872315
REMARK  9 active torsions:
REMARK  status: ('A' for Active; 'I' for Inactive)
REMARK    1  A    between atoms: C1_1  and  C2_2
REMARK    2  A    between atoms: C4_4  and  O3_28
REMARK    3  A    between atoms: C7_7  and  C8_8
REMARK    4  A    between atoms: C13_13  and  O1_14
REMARK    5  A    between atoms: C14_15  and  C18_21
REMARK    6  A    between atoms: C15_17  and  C17_20
REMARK    7  A    between atoms: C22_25  and  O2_26
REMARK    8  A    between atoms: O2_26  and  C23_27
REMARK    9  A    between atoms: O3_28  and  C24_29
REMARK                            x       y       z     vdW  Elec       q    Type
REMARK                         _______ _______ _______ _____ _____    ______ ____
ROOT
ATOM     16  C   UNL     1      49.681  17.343  17.575  0.00  0.00    -0.026 A 
ATOM     17  C   UNL     1      50.338  18.037  16.559  0.00  0.00    +0.073 A 
ATOM     18  C   UNL     1      51.082  19.155  16.866  0.00  0.00    +0.027 A 
ATOM     19  C   UNL     1      51.185  19.598  18.178  0.00  0.00    -0.077 A 
ATOM     20  C   UNL     1      50.541  18.919  19.191  0.00  0.00    -0.154 A 
ATOM     21  C   UNL     1      50.636  19.359  20.628  0.00  0.00    +0.238 C 
ATOM     22  N   UNL     1      51.099  20.750  20.714  0.00  0.00    -0.510 N 
ATOM     23  H   UNL     1      50.377  21.374  20.333  0.00  0.00    +0.434 HD
ATOM     24  H   UNL     1      51.274  20.991  21.697  0.00  0.00    +0.435 HD
ATOM     25  C   UNL     1      52.345  20.912  19.943  0.00  0.00    +0.170 C 
ATOM     26  C   UNL     1      52.963  22.276  20.255  0.00  0.00    +0.093 C 
ATOM     27  C   UNL     1      51.618  18.451  21.371  0.00  0.00    +0.093 C 
ATOM     28  C   UNL     1      52.009  20.831  18.453  0.00  0.00    +0.130 C 
ATOM     29  C   UNL     1      49.786  17.790  18.894  0.00  0.00    +0.146 A 
ENDROOT
BRANCH  16  15
ATOM      1  C   UNL     1      46.834  17.584  17.256  0.00  0.00    +0.094 C 
ATOM      2  C   UNL     1      47.504  16.242  17.101  0.00  0.00    +0.000 A 
ATOM      3  C   UNL     1      46.739  15.123  16.803  0.00  0.00    -0.112 A 
ATOM      4  C   UNL     1      47.324  13.883  16.656  0.00  0.00    +0.192 A 
ATOM      7  C   UNL     1      48.718  13.743  16.808  0.00  0.00    -0.105 A 
ATOM      8  C   UNL     1      49.505  14.882  17.106  0.00  0.00    +0.051 A 
ATOM      9  C   UNL     1      50.891  14.740  17.264  0.00  0.00    -0.047 A 
ATOM     10  C   UNL     1      51.472  13.516  17.120  0.00  0.00    +0.079 A 
ATOM     11  C   UNL     1      50.709  12.392  16.822  0.00  0.00    -0.110 A 
ATOM     12  C   UNL     1      49.343  12.490  16.664  0.00  0.00    +0.177 A 
ATOM     15  C   UNL     1      48.876  16.141  17.257  0.00  0.00    -0.119 A 
BRANCH   4   5
ATOM      5  O   UNL     1      46.559  12.800  16.364  0.00  0.00    -0.287 OA
ATOM      6  C   UNL     1      45.464  12.526  17.239  0.00  0.00    +0.246 C 
ENDBRANCH   4   5
BRANCH  12  13
ATOM     13  O   UNL     1      48.607  11.386  16.373  0.00  0.00    -0.290 OA
ATOM     14  C   UNL     1      49.001  10.626  15.229  0.00  0.00    +0.245 C 
ENDBRANCH  12  13
ENDBRANCH  16  15
BRANCH  29  30
ATOM     30  O   UNL     1      49.143  17.124  19.889  0.00  0.00    -0.483 OA
ATOM     31  H   UNL     1      49.372  17.430  20.777  0.00  0.00    +0.394 HD
ENDBRANCH  29  30
TORSDOF 4
ENDMDL
MODEL 9
REMARK VINA RESULT:      -5.4      3.261      7.502
REMARK  Name = ZINC03872315
REMARK  9 active torsions:
REMARK  status: ('A' for Active; 'I' for Inactive)
REMARK    1  A    between atoms: C1_1  and  C2_2
REMARK    2  A    between atoms: C4_4  and  O3_28
REMARK    3  A    between atoms: C7_7  and  C8_8
REMARK    4  A    between atoms: C13_13  and  O1_14
REMARK    5  A    between atoms: C14_15  and  C18_21
REMARK    6  A    between atoms: C15_17  and  C17_20
REMARK    7  A    between atoms: C22_25  and  O2_26
REMARK    8  A    between atoms: O2_26  and  C23_27
REMARK    9  A    between atoms: O3_28  and  C24_29
REMARK                            x       y       z     vdW  Elec       q    Type
REMARK                         _______ _______ _______ _____ _____    ______ ____
ROOT
ATOM     16  C   UNL     1      48.573  18.047  19.641  0.00  0.00    -0.026 A 
ATOM     17  C   UNL     1      48.688  17.129  20.685  0.00  0.00    +0.073 A 
ATOM     18  C   UNL     1      49.871  16.448  20.870  0.00  0.00    +0.027 A 
ATOM     19  C   UNL     1      50.953  16.668  20.028  0.00  0.00    -0.077 A 
ATOM     20  C   UNL     1      50.853  17.575  18.994  0.00  0.00    -0.154 A 
ATOM     21  C   UNL     1      52.005  17.852  18.065  0.00  0.00    +0.238 C 
ATOM     22  N   UNL     1      53.002  16.777  18.143  0.00  0.00    -0.510 N 
ATOM     23  H   UNL     1      52.603  15.913  17.758  0.00  0.00    +0.434 HD
ATOM     24  H   UNL     1      53.832  17.042  17.598  0.00  0.00    +0.435 HD
ATOM     25  C   UNL     1      53.391  16.554  19.548  0.00  0.00    +0.170 C 
ATOM     26  C   UNL     1      54.614  15.636  19.598  0.00  0.00    +0.093 C 
ATOM     27  C   UNL     1      52.660  19.180  18.453  0.00  0.00    +0.093 C 
ATOM     28  C   UNL     1      52.222  15.891  20.276  0.00  0.00    +0.130 C 
ATOM     29  C   UNL     1      49.663  18.267  18.796  0.00  0.00    +0.146 A 
ENDROOT
BRANCH  16  15
ATOM      1  C   UNL     1      46.564  16.943  17.908  0.00  0.00    +0.094 C 
ATOM      2  C   UNL     1      46.329  18.263  18.598  0.00  0.00    +0.000 A 
ATOM      3  C   UNL     1      45.136  18.942  18.393  0.00  0.00    -0.112 A 
ATOM      4  C   UNL     1      44.894  20.151  19.010  0.00  0.00    +0.192 A 
ATOM      7  C   UNL     1      45.866  20.710  19.864  0.00  0.00    -0.105 A 
ATOM      8  C   UNL     1      47.082  20.018  20.082  0.00  0.00    +0.051 A 
ATOM      9  C   UNL     1      48.052  20.578  20.926  0.00  0.00    -0.047 A 
ATOM     10  C   UNL     1      47.816  21.773  21.537  0.00  0.00    +0.079 A 
ATOM     11  C   UNL     1      46.622  22.458  21.334  0.00  0.00    -0.110 A 
ATOM     12  C   UNL     1      45.647  21.943  20.507  0.00  0.00    +0.177 A 
ATOM     15  C   UNL     1      47.305  18.782  19.431  0.00  0.00    -0.119 A 
BRANCH   4   5
ATOM      5  O   UNL     1      43.721  20.801  18.797  0.00  0.00    -0.287 OA
ATOM      6  C   UNL     1      42.520  20.051  18.990  0.00  0.00    +0.246 C 
ENDBRANCH   4   5
BRANCH  12  13
ATOM     13  O   UNL     1      44.485  22.619  20.315  0.00  0.00    -0.290 OA
ATOM     14  C   UNL     1      44.564  23.857  19.607  0.00  0.00    +0.245 C 
ENDBRANCH  12  13
ENDBRANCH  16  15
BRANCH  29  30
ATOM     30  O   UNL     1      49.559  19.155  17.772  0.00  0.00    -0.483 OA
ATOM     31  H   UNL     1      48.722  19.639  17.757  0.00  0.00    +0.394 HD
ENDBRANCH  29  30
TORSDOF 4
ENDMDL
