MODEL 1
REMARK VINA RESULT:      -5.5      0.000      0.000
REMARK  Name = ZINC95485920
REMARK  6 active torsions:
REMARK  status: ('A' for Active; 'I' for Inactive)
REMARK    1  A    between atoms: C1_1  and  O1_2
REMARK    2  A    between atoms: O1_2  and  C2_3
REMARK    3  A    between atoms: C10_12  and  O5_22
REMARK    4  A    between atoms: C12_14  and  O4_21
REMARK    5  A    between atoms: C13_15  and  C15_18
REMARK    6  A    between atoms: C15_18  and  C16_19
REMARK                            x       y       z     vdW  Elec       q    Type
REMARK                         _______ _______ _______ _____ _____    ______ ____
ROOT
ATOM      3  C   UNL     1      46.640  13.809  17.280  0.00  0.00    +0.103 A 
ATOM      4  C   UNL     1      46.954  14.889  16.462  0.00  0.00    +0.003 A 
ATOM      5  C   UNL     1      46.695  16.179  16.869  0.00  0.00    +0.050 A 
ATOM      6  C   UNL     1      46.113  16.418  18.110  0.00  0.00    +0.116 A 
ATOM      7  C   UNL     1      45.793  15.327  18.933  0.00  0.00    -0.182 A 
ATOM      8  C   UNL     1      45.160  15.594  20.243  0.00  0.00    +0.443 A 
ATOM      9  C   UNL     1      44.657  16.963  20.448  0.00  0.00    -0.268 A 
ATOM     10  C   UNL     1      43.815  17.269  21.525  0.00  0.00    +0.218 A 
ATOM     13  C   UNL     1      43.350  18.563  21.679  0.00  0.00    -0.055 A 
ATOM     14  C   UNL     1      43.722  19.548  20.772  0.00  0.00    +0.196 A 
ATOM     17  C   UNL     1      44.562  19.252  19.709  0.00  0.00    -0.146 A 
ATOM     21  C   UNL     1      45.041  17.962  19.535  0.00  0.00    +0.200 A 
ATOM     22  O   UNL     1      45.059  14.733  21.099  0.00  0.00    -0.429 OA
ATOM     23  O   UNL     1      45.868  17.684  18.507  0.00  0.00    -0.217 OA
ATOM     24  C   UNL     1      46.056  14.024  18.514  0.00  0.00    +0.087 A 
ENDROOT
BRANCH   3   2
ATOM      1  C   UNL     1      45.787  11.666  16.699  0.00  0.00    +0.246 C 
ATOM      2  O   UNL     1      46.905  12.541  16.864  0.00  0.00    -0.311 OA
ENDBRANCH   3   2
BRANCH  10  11
ATOM     11  O   UNL     1      43.457  16.304  22.409  0.00  0.00    -0.476 OA
ATOM     12  H   UNL     1      43.749  16.473  23.315  0.00  0.00    +0.405 HD
ENDBRANCH  10  11
BRANCH  14  15
ATOM     15  O   UNL     1      43.260  20.814  20.929  0.00  0.00    -0.484 OA
ATOM     16  H   UNL     1      42.366  20.863  21.294  0.00  0.00    +0.402 HD
ENDBRANCH  14  15
BRANCH  17  18
ATOM     18  C   UNL     1      44.954  20.336  18.738  0.00  0.00    +0.133 C 
BRANCH  18  19
ATOM     19  C   UNL     1      46.123  21.108  19.292  0.00  0.00    -0.048 C 
ATOM     20  C   UNL     1      47.346  20.720  19.031  0.00  0.00    +0.016 C 
ENDBRANCH  18  19
ENDBRANCH  17  18
TORSDOF 5
ENDMDL
MODEL 2
REMARK VINA RESULT:      -5.4      2.834      4.586
REMARK  Name = ZINC95485920
REMARK  6 active torsions:
REMARK  status: ('A' for Active; 'I' for Inactive)
REMARK    1  A    between atoms: C1_1  and  O1_2
REMARK    2  A    between atoms: O1_2  and  C2_3
REMARK    3  A    between atoms: C10_12  and  O5_22
REMARK    4  A    between atoms: C12_14  and  O4_21
REMARK    5  A    between atoms: C13_15  and  C15_18
REMARK    6  A    between atoms: C15_18  and  C16_19
REMARK                            x       y       z     vdW  Elec       q    Type
REMARK                         _______ _______ _______ _____ _____    ______ ____
ROOT
ATOM      3  C   UNL     1      50.687  19.139  17.663  0.00  0.00    +0.103 A 
ATOM      4  C   UNL     1      50.596  20.444  18.136  0.00  0.00    +0.003 A 
ATOM      5  C   UNL     1      49.527  20.839  18.909  0.00  0.00    +0.050 A 
ATOM      6  C   UNL     1      48.519  19.933  19.227  0.00  0.00    +0.116 A 
ATOM      7  C   UNL     1      48.610  18.618  18.744  0.00  0.00    -0.182 A 
ATOM      8  C   UNL     1      47.524  17.669  19.076  0.00  0.00    +0.443 A 
ATOM      9  C   UNL     1      46.301  18.263  19.641  0.00  0.00    -0.268 A 
ATOM     10  C   UNL     1      45.119  17.517  19.749  0.00  0.00    +0.218 A 
ATOM     13  C   UNL     1      43.985  18.110  20.272  0.00  0.00    -0.055 A 
ATOM     14  C   UNL     1      44.023  19.436  20.689  0.00  0.00    +0.196 A 
ATOM     17  C   UNL     1      45.191  20.177  20.590  0.00  0.00    -0.146 A 
ATOM     21  C   UNL     1      46.342  19.602  20.070  0.00  0.00    +0.200 A 
ATOM     22  O   UNL     1      47.636  16.470  18.891  0.00  0.00    -0.429 OA
ATOM     23  O   UNL     1      47.478  20.323  19.990  0.00  0.00    -0.217 OA
ATOM     24  C   UNL     1      49.693  18.225  17.961  0.00  0.00    +0.087 A 
ENDROOT
BRANCH   3   2
ATOM      1  C   UNL     1      52.206  19.696  15.920  0.00  0.00    +0.246 C 
ATOM      2  O   UNL     1      51.750  18.764  16.902  0.00  0.00    -0.311 OA
ENDBRANCH   3   2
BRANCH  10  11
ATOM     11  O   UNL     1      45.089  16.222  19.344  0.00  0.00    -0.476 OA
ATOM     12  H   UNL     1      44.346  15.716  19.700  0.00  0.00    +0.405 HD
ENDBRANCH  10  11
BRANCH  14  15
ATOM     15  O   UNL     1      42.904  20.012  21.198  0.00  0.00    -0.484 OA
ATOM     16  H   UNL     1      42.137  19.425  21.223  0.00  0.00    +0.402 HD
ENDBRANCH  14  15
BRANCH  17  18
ATOM     18  C   UNL     1      45.210  21.612  21.048  0.00  0.00    +0.133 C 
BRANCH  18  19
ATOM     19  C   UNL     1      44.961  22.519  19.871  0.00  0.00    -0.048 C 
ATOM     20  C   UNL     1      43.775  23.044  19.688  0.00  0.00    +0.016 C 
ENDBRANCH  18  19
ENDBRANCH  17  18
TORSDOF 5
ENDMDL
MODEL 3
REMARK VINA RESULT:      -5.4     22.723     24.046
REMARK  Name = ZINC95485920
REMARK  6 active torsions:
REMARK  status: ('A' for Active; 'I' for Inactive)
REMARK    1  A    between atoms: C1_1  and  O1_2
REMARK    2  A    between atoms: O1_2  and  C2_3
REMARK    3  A    between atoms: C10_12  and  O5_22
REMARK    4  A    between atoms: C12_14  and  O4_21
REMARK    5  A    between atoms: C13_15  and  C15_18
REMARK    6  A    between atoms: C15_18  and  C16_19
REMARK                            x       y       z     vdW  Elec       q    Type
REMARK                         _______ _______ _______ _____ _____    ______ ____
ROOT
ATOM      3  C   UNL     1      54.012  31.641  -0.131  0.00  0.00    +0.103 A 
ATOM      4  C   UNL     1      55.245  31.553   0.508  0.00  0.00    +0.003 A 
ATOM      5  C   UNL     1      55.355  31.787   1.861  0.00  0.00    +0.050 A 
ATOM      6  C   UNL     1      54.228  32.117   2.608  0.00  0.00    +0.116 A 
ATOM      7  C   UNL     1      52.986  32.209   1.961  0.00  0.00    -0.182 A 
ATOM      8  C   UNL     1      51.799  32.576   2.764  0.00  0.00    +0.443 A 
ATOM      9  C   UNL     1      52.071  33.093   4.116  0.00  0.00    -0.268 A 
ATOM     10  C   UNL     1      51.064  33.714   4.868  0.00  0.00    +0.218 A 
ATOM     13  C   UNL     1      51.358  34.201   6.129  0.00  0.00    -0.055 A 
ATOM     14  C   UNL     1      52.643  34.069   6.642  0.00  0.00    +0.196 A 
ATOM     17  C   UNL     1      53.641  33.449   5.906  0.00  0.00    -0.146 A 
ATOM     21  C   UNL     1      53.369  32.952   4.640  0.00  0.00    +0.200 A 
ATOM     22  O   UNL     1      50.666  32.459   2.332  0.00  0.00    -0.429 OA
ATOM     23  O   UNL     1      54.340  32.338   3.934  0.00  0.00    -0.217 OA
ATOM     24  C   UNL     1      52.882  31.973   0.592  0.00  0.00    +0.087 A 
ENDROOT
BRANCH   3   2
ATOM      1  C   UNL     1      52.607  31.340  -2.026  0.00  0.00    +0.246 C 
ATOM      2  O   UNL     1      53.921  31.404  -1.467  0.00  0.00    -0.311 OA
ENDBRANCH   3   2
BRANCH  10  11
ATOM     11  O   UNL     1      49.811  33.837   4.362  0.00  0.00    -0.476 OA
ATOM     12  H   UNL     1      49.782  34.207   3.469  0.00  0.00    +0.405 HD
ENDBRANCH  10  11
BRANCH  14  15
ATOM     15  O   UNL     1      52.924  34.553   7.879  0.00  0.00    -0.484 OA
ATOM     16  H   UNL     1      53.813  34.339   8.192  0.00  0.00    +0.402 HD
ENDBRANCH  14  15
BRANCH  17  18
ATOM     18  C   UNL     1      55.027  33.316   6.483  0.00  0.00    +0.133 C 
BRANCH  18  19
ATOM     19  C   UNL     1      55.879  34.467   6.013  0.00  0.00    -0.048 C 
ATOM     20  C   UNL     1      56.950  34.238   5.295  0.00  0.00    +0.016 C 
ENDBRANCH  18  19
ENDBRANCH  17  18
TORSDOF 5
ENDMDL
MODEL 4
REMARK VINA RESULT:      -5.4      3.133      6.488
REMARK  Name = ZINC95485920
REMARK  6 active torsions:
REMARK  status: ('A' for Active; 'I' for Inactive)
REMARK    1  A    between atoms: C1_1  and  O1_2
REMARK    2  A    between atoms: O1_2  and  C2_3
REMARK    3  A    between atoms: C10_12  and  O5_22
REMARK    4  A    between atoms: C12_14  and  O4_21
REMARK    5  A    between atoms: C13_15  and  C15_18
REMARK    6  A    between atoms: C15_18  and  C16_19
REMARK                            x       y       z     vdW  Elec       q    Type
REMARK                         _______ _______ _______ _____ _____    ______ ____
ROOT
ATOM      3  C   UNL     1      44.484  19.946  19.797  0.00  0.00    +0.103 A 
ATOM      4  C   UNL     1      45.321  20.973  20.222  0.00  0.00    +0.003 A 
ATOM      5  C   UNL     1      46.654  20.983  19.877  0.00  0.00    +0.050 A 
ATOM      6  C   UNL     1      47.183  19.960  19.096  0.00  0.00    +0.116 A 
ATOM      7  C   UNL     1      46.338  18.922  18.672  0.00  0.00    -0.182 A 
ATOM      8  C   UNL     1      46.916  17.832  17.855  0.00  0.00    +0.443 A 
ATOM      9  C   UNL     1      48.387  17.780  17.800  0.00  0.00    -0.268 A 
ATOM     10  C   UNL     1      49.051  16.658  17.285  0.00  0.00    +0.218 A 
ATOM     13  C   UNL     1      50.434  16.637  17.261  0.00  0.00    -0.055 A 
ATOM     14  C   UNL     1      51.154  17.725  17.741  0.00  0.00    +0.196 A 
ATOM     17  C   UNL     1      50.502  18.840  18.244  0.00  0.00    -0.146 A 
ATOM     21  C   UNL     1      49.116  18.884  18.277  0.00  0.00    +0.200 A 
ATOM     22  O   UNL     1      46.217  17.027  17.266  0.00  0.00    -0.429 OA
ATOM     23  O   UNL     1      48.488  19.978  18.755  0.00  0.00    -0.217 OA
ATOM     24  C   UNL     1      44.991  18.917  19.025  0.00  0.00    +0.087 A 
ENDROOT
BRANCH   3   2
ATOM      1  C   UNL     1      42.224  20.203  19.102  0.00  0.00    +0.246 C 
ATOM      2  O   UNL     1      43.169  19.953  20.144  0.00  0.00    -0.311 OA
ENDBRANCH   3   2
BRANCH  10  11
ATOM     11  O   UNL     1      48.342  15.601  16.815  0.00  0.00    -0.476 OA
ATOM     12  H   UNL     1      47.734  15.823  16.097  0.00  0.00    +0.405 HD
ENDBRANCH  10  11
BRANCH  14  15
ATOM     15  O   UNL     1      52.511  17.695  17.716  0.00  0.00    -0.484 OA
ATOM     16  H   UNL     1      52.878  16.987  17.170  0.00  0.00    +0.402 HD
ENDBRANCH  14  15
BRANCH  17  18
ATOM     18  C   UNL     1      51.302  20.009  18.759  0.00  0.00    +0.133 C 
BRANCH  18  19
ATOM     19  C   UNL     1      51.211  21.151  17.780  0.00  0.00    -0.048 C 
ATOM     20  C   UNL     1      51.670  21.008  16.562  0.00  0.00    +0.016 C 
ENDBRANCH  18  19
ENDBRANCH  17  18
TORSDOF 5
ENDMDL
MODEL 5
REMARK VINA RESULT:      -5.3      1.810      6.580
REMARK  Name = ZINC95485920
REMARK  6 active torsions:
REMARK  status: ('A' for Active; 'I' for Inactive)
REMARK    1  A    between atoms: C1_1  and  O1_2
REMARK    2  A    between atoms: O1_2  and  C2_3
REMARK    3  A    between atoms: C10_12  and  O5_22
REMARK    4  A    between atoms: C12_14  and  O4_21
REMARK    5  A    between atoms: C13_15  and  C15_18
REMARK    6  A    between atoms: C15_18  and  C16_19
REMARK                            x       y       z     vdW  Elec       q    Type
REMARK                         _______ _______ _______ _____ _____    ______ ____
ROOT
ATOM      3  C   UNL     1      43.226  20.319  19.614  0.00  0.00    +0.103 A 
ATOM      4  C   UNL     1      42.761  19.547  20.674  0.00  0.00    +0.003 A 
ATOM      5  C   UNL     1      43.286  18.298  20.919  0.00  0.00    +0.050 A 
ATOM      6  C   UNL     1      44.294  17.790  20.104  0.00  0.00    +0.116 A 
ATOM      7  C   UNL     1      44.758  18.568  19.032  0.00  0.00    -0.182 A 
ATOM      8  C   UNL     1      45.819  18.010  18.164  0.00  0.00    +0.443 A 
ATOM      9  C   UNL     1      46.091  16.572  18.325  0.00  0.00    -0.268 A 
ATOM     10  C   UNL     1      46.874  15.876  17.393  0.00  0.00    +0.218 A 
ATOM     13  C   UNL     1      47.098  14.523  17.568  0.00  0.00    -0.055 A 
ATOM     14  C   UNL     1      46.552  13.863  18.663  0.00  0.00    +0.196 A 
ATOM     17  C   UNL     1      45.784  14.548  19.592  0.00  0.00    -0.146 A 
ATOM     21  C   UNL     1      45.546  15.906  19.438  0.00  0.00    +0.200 A 
ATOM     22  O   UNL     1      46.427  18.698  17.364  0.00  0.00    -0.429 OA
ATOM     23  O   UNL     1      44.809  16.569  20.352  0.00  0.00    -0.217 OA
ATOM     24  C   UNL     1      44.222  19.831  18.789  0.00  0.00    +0.087 A 
ENDROOT
BRANCH   3   2
ATOM      1  C   UNL     1      41.420  21.604  18.752  0.00  0.00    +0.246 C 
ATOM      2  O   UNL     1      42.699  21.552  19.388  0.00  0.00    -0.311 OA
ENDBRANCH   3   2
BRANCH  10  11
ATOM     11  O   UNL     1      47.407  16.526  16.328  0.00  0.00    -0.476 OA
ATOM     12  H   UNL     1      46.767  17.050  15.827  0.00  0.00    +0.405 HD
ENDBRANCH  10  11
BRANCH  14  15
ATOM     15  O   UNL     1      46.775  12.534  18.825  0.00  0.00    -0.484 OA
ATOM     16  H   UNL     1      46.144  12.099  19.414  0.00  0.00    +0.402 HD
ENDBRANCH  14  15
BRANCH  17  18
ATOM     18  C   UNL     1      45.202  13.813  20.772  0.00  0.00    +0.133 C 
BRANCH  18  19
ATOM     19  C   UNL     1      46.120  13.962  21.958  0.00  0.00    -0.048 C 
ATOM     20  C   UNL     1      46.811  12.935  22.384  0.00  0.00    +0.016 C 
ENDBRANCH  18  19
ENDBRANCH  17  18
TORSDOF 5
ENDMDL
MODEL 6
REMARK VINA RESULT:      -5.3     22.168     23.977
REMARK  Name = ZINC95485920
REMARK  6 active torsions:
REMARK  status: ('A' for Active; 'I' for Inactive)
REMARK    1  A    between atoms: C1_1  and  O1_2
REMARK    2  A    between atoms: O1_2  and  C2_3
REMARK    3  A    between atoms: C10_12  and  O5_22
REMARK    4  A    between atoms: C12_14  and  O4_21
REMARK    5  A    between atoms: C13_15  and  C15_18
REMARK    6  A    between atoms: C15_18  and  C16_19
REMARK                            x       y       z     vdW  Elec       q    Type
REMARK                         _______ _______ _______ _____ _____    ______ ____
ROOT
ATOM      3  C   UNL     1      56.702  31.330   1.188  0.00  0.00    +0.103 A 
ATOM      4  C   UNL     1      55.518  31.250   0.461  0.00  0.00    +0.003 A 
ATOM      5  C   UNL     1      54.334  31.711   0.992  0.00  0.00    +0.050 A 
ATOM      6  C   UNL     1      54.307  32.263   2.269  0.00  0.00    +0.116 A 
ATOM      7  C   UNL     1      55.501  32.338   3.003  0.00  0.00    -0.182 A 
ATOM      8  C   UNL     1      55.456  32.913   4.365  0.00  0.00    +0.443 A 
ATOM      9  C   UNL     1      54.114  33.092   4.944  0.00  0.00    -0.268 A 
ATOM     10  C   UNL     1      53.946  33.375   6.307  0.00  0.00    +0.218 A 
ATOM     13  C   UNL     1      52.671  33.524   6.819  0.00  0.00    -0.055 A 
ATOM     14  C   UNL     1      51.567  33.395   5.985  0.00  0.00    +0.196 A 
ATOM     17  C   UNL     1      51.726  33.122   4.635  0.00  0.00    -0.146 A 
ATOM     21  C   UNL     1      52.997  32.970   4.098  0.00  0.00    +0.200 A 
ATOM     22  O   UNL     1      56.468  33.218   4.971  0.00  0.00    -0.429 OA
ATOM     23  O   UNL     1      53.145  32.719   2.782  0.00  0.00    -0.217 OA
ATOM     24  C   UNL     1      56.695  31.869   2.460  0.00  0.00    +0.087 A 
ENDROOT
BRANCH   3   2
ATOM      1  C   UNL     1      58.196  29.503   0.888  0.00  0.00    +0.246 C 
ATOM      2  O   UNL     1      57.863  30.872   0.648  0.00  0.00    -0.311 OA
ENDBRANCH   3   2
BRANCH  10  11
ATOM     11  O   UNL     1      55.028  33.503   7.115  0.00  0.00    -0.476 OA
ATOM     12  H   UNL     1      55.825  33.071   6.778  0.00  0.00    +0.405 HD
ENDBRANCH  10  11
BRANCH  14  15
ATOM     15  O   UNL     1      50.318  33.539   6.498  0.00  0.00    -0.484 OA
ATOM     16  H   UNL     1      49.729  34.078   5.952  0.00  0.00    +0.402 HD
ENDBRANCH  14  15
BRANCH  17  18
ATOM     18  C   UNL     1      50.515  32.988   3.748  0.00  0.00    +0.133 C 
BRANCH  18  19
ATOM     19  C   UNL     1      50.099  34.350   3.257  0.00  0.00    -0.048 C 
ATOM     20  C   UNL     1      48.835  34.692   3.271  0.00  0.00    +0.016 C 
ENDBRANCH  18  19
ENDBRANCH  17  18
TORSDOF 5
ENDMDL
MODEL 7
REMARK VINA RESULT:      -5.2     22.590     24.267
REMARK  Name = ZINC95485920
REMARK  6 active torsions:
REMARK  status: ('A' for Active; 'I' for Inactive)
REMARK    1  A    between atoms: C1_1  and  O1_2
REMARK    2  A    between atoms: O1_2  and  C2_3
REMARK    3  A    between atoms: C10_12  and  O5_22
REMARK    4  A    between atoms: C12_14  and  O4_21
REMARK    5  A    between atoms: C13_15  and  C15_18
REMARK    6  A    between atoms: C15_18  and  C16_19
REMARK                            x       y       z     vdW  Elec       q    Type
REMARK                         _______ _______ _______ _____ _____    ______ ____
ROOT
ATOM      3  C   UNL     1      51.471  32.290  -0.447  0.00  0.00    +0.103 A 
ATOM      4  C   UNL     1      52.837  32.086  -0.612  0.00  0.00    +0.003 A 
ATOM      5  C   UNL     1      53.684  32.079   0.474  0.00  0.00    +0.050 A 
ATOM      6  C   UNL     1      53.180  32.277   1.756  0.00  0.00    +0.116 A 
ATOM      7  C   UNL     1      51.803  32.488   1.921  0.00  0.00    -0.182 A 
ATOM      8  C   UNL     1      51.283  32.713   3.287  0.00  0.00    +0.443 A 
ATOM      9  C   UNL     1      52.293  32.984   4.324  0.00  0.00    -0.268 A 
ATOM     10  C   UNL     1      51.921  33.468   5.586  0.00  0.00    +0.218 A 
ATOM     13  C   UNL     1      52.898  33.725   6.531  0.00  0.00    -0.055 A 
ATOM     14  C   UNL     1      54.235  33.499   6.228  0.00  0.00    +0.196 A 
ATOM     17  C   UNL     1      54.608  33.013   4.984  0.00  0.00    -0.146 A 
ATOM     21  C   UNL     1      53.646  32.747   4.020  0.00  0.00    +0.200 A 
ATOM     22  O   UNL     1      50.091  32.678   3.538  0.00  0.00    -0.429 OA
ATOM     23  O   UNL     1      54.014  32.262   2.817  0.00  0.00    -0.217 OA
ATOM     24  C   UNL     1      50.951  32.495   0.818  0.00  0.00    +0.087 A 
ENDROOT
BRANCH   3   2
ATOM      1  C   UNL     1      49.417  33.008  -1.408  0.00  0.00    +0.246 C 
ATOM      2  O   UNL     1      50.648  32.292  -1.529  0.00  0.00    -0.311 OA
ENDBRANCH   3   2
BRANCH  10  11
ATOM     11  O   UNL     1      50.614  33.683   5.877  0.00  0.00    -0.476 OA
ATOM     12  H   UNL     1      50.079  32.878   5.905  0.00  0.00    +0.405 HD
ENDBRANCH  10  11
BRANCH  14  15
ATOM     15  O   UNL     1      55.187  33.757   7.160  0.00  0.00    -0.484 OA
ATOM     16  H   UNL     1      55.623  32.966   7.506  0.00  0.00    +0.402 HD
ENDBRANCH  14  15
BRANCH  17  18
ATOM     18  C   UNL     1      56.064  32.775   4.676  0.00  0.00    +0.133 C 
BRANCH  18  19
ATOM     19  C   UNL     1      56.667  34.030   4.100  0.00  0.00    -0.048 C 
ATOM     20  C   UNL     1      57.593  34.676   4.764  0.00  0.00    +0.016 C 
ENDBRANCH  18  19
ENDBRANCH  17  18
TORSDOF 5
ENDMDL
MODEL 8
REMARK VINA RESULT:      -5.0      2.848      5.505
REMARK  Name = ZINC95485920
REMARK  6 active torsions:
REMARK  status: ('A' for Active; 'I' for Inactive)
REMARK    1  A    between atoms: C1_1  and  O1_2
REMARK    2  A    between atoms: O1_2  and  C2_3
REMARK    3  A    between atoms: C10_12  and  O5_22
REMARK    4  A    between atoms: C12_14  and  O4_21
REMARK    5  A    between atoms: C13_15  and  C15_18
REMARK    6  A    between atoms: C15_18  and  C16_19
REMARK                            x       y       z     vdW  Elec       q    Type
REMARK                         _______ _______ _______ _____ _____    ______ ____
ROOT
ATOM      3  C   UNL     1      49.717  20.306  18.785  0.00  0.00    +0.103 A 
ATOM      4  C   UNL     1      49.770  18.928  18.600  0.00  0.00    +0.003 A 
ATOM      5  C   UNL     1      48.686  18.135  18.905  0.00  0.00    +0.050 A 
ATOM      6  C   UNL     1      47.520  18.705  19.405  0.00  0.00    +0.116 A 
ATOM      7  C   UNL     1      47.469  20.094  19.596  0.00  0.00    -0.182 A 
ATOM      8  C   UNL     1      46.228  20.686  20.144  0.00  0.00    +0.443 A 
ATOM      9  C   UNL     1      45.258  19.734  20.711  0.00  0.00    -0.268 A 
ATOM     10  C   UNL     1      44.179  20.180  21.487  0.00  0.00    +0.218 A 
ATOM     13  C   UNL     1      43.295  19.257  22.016  0.00  0.00    -0.055 A 
ATOM     14  C   UNL     1      43.477  17.901  21.773  0.00  0.00    +0.196 A 
ATOM     17  C   UNL     1      44.538  17.455  21.000  0.00  0.00    -0.146 A 
ATOM     21  C   UNL     1      45.437  18.362  20.458  0.00  0.00    +0.200 A 
ATOM     22  O   UNL     1      46.024  21.886  20.127  0.00  0.00    -0.429 OA
ATOM     23  O   UNL     1      46.459  17.924  19.695  0.00  0.00    -0.217 OA
ATOM     24  C   UNL     1      48.569  20.891  19.287  0.00  0.00    +0.087 A 
ENDROOT
BRANCH   3   2
ATOM      1  C   UNL     1      51.381  20.884  17.188  0.00  0.00    +0.246 C 
ATOM      2  O   UNL     1      50.795  21.076  18.477  0.00  0.00    -0.311 OA
ENDBRANCH   3   2
BRANCH  10  11
ATOM     11  O   UNL     1      44.005  21.505  21.718  0.00  0.00    -0.476 OA
ATOM     12  H   UNL     1      44.651  21.886  22.329  0.00  0.00    +0.405 HD
ENDBRANCH  10  11
BRANCH  14  15
ATOM     15  O   UNL     1      42.605  17.002  22.299  0.00  0.00    -0.484 OA
ATOM     16  H   UNL     1      41.799  16.886  21.778  0.00  0.00    +0.402 HD
ENDBRANCH  14  15
BRANCH  17  18
ATOM     18  C   UNL     1      44.716  15.980  20.749  0.00  0.00    +0.133 C 
BRANCH  18  19
ATOM     19  C   UNL     1      45.462  15.361  21.902  0.00  0.00    -0.048 C 
ATOM     20  C   UNL     1      45.058  14.222  22.407  0.00  0.00    +0.016 C 
ENDBRANCH  18  19
ENDBRANCH  17  18
TORSDOF 5
ENDMDL
MODEL 9
REMARK VINA RESULT:      -5.0      2.686      3.924
REMARK  Name = ZINC95485920
REMARK  6 active torsions:
REMARK  status: ('A' for Active; 'I' for Inactive)
REMARK    1  A    between atoms: C1_1  and  O1_2
REMARK    2  A    between atoms: O1_2  and  C2_3
REMARK    3  A    between atoms: C10_12  and  O5_22
REMARK    4  A    between atoms: C12_14  and  O4_21
REMARK    5  A    between atoms: C13_15  and  C15_18
REMARK    6  A    between atoms: C15_18  and  C16_19
REMARK                            x       y       z     vdW  Elec       q    Type
REMARK                         _______ _______ _______ _____ _____    ______ ____
ROOT
ATOM      3  C   UNL     1      48.567  16.043  17.316  0.00  0.00    +0.103 A 
ATOM      4  C   UNL     1      47.263  15.845  16.875  0.00  0.00    +0.003 A 
ATOM      5  C   UNL     1      46.288  16.787  17.117  0.00  0.00    +0.050 A 
ATOM      6  C   UNL     1      46.597  17.954  17.810  0.00  0.00    +0.116 A 
ATOM      7  C   UNL     1      47.912  18.149  18.260  0.00  0.00    -0.182 A 
ATOM      8  C   UNL     1      48.224  19.386  19.010  0.00  0.00    +0.443 A 
ATOM      9  C   UNL     1      47.065  20.169  19.470  0.00  0.00    -0.268 A 
ATOM     10  C   UNL     1      47.217  21.203  20.403  0.00  0.00    +0.218 A 
ATOM     13  C   UNL     1      46.105  21.910  20.823  0.00  0.00    -0.055 A 
ATOM     14  C   UNL     1      44.849  21.594  20.319  0.00  0.00    +0.196 A 
ATOM     17  C   UNL     1      44.694  20.576  19.390  0.00  0.00    -0.146 A 
ATOM     21  C   UNL     1      45.795  19.855  18.952  0.00  0.00    +0.200 A 
ATOM     22  O   UNL     1      49.370  19.732  19.234  0.00  0.00    -0.429 OA
ATOM     23  O   UNL     1      45.640  18.876  18.038  0.00  0.00    -0.217 OA
ATOM     24  C   UNL     1      48.894  17.191  18.013  0.00  0.00    +0.087 A 
ENDROOT
BRANCH   3   2
ATOM      1  C   UNL     1      49.099  13.920  16.387  0.00  0.00    +0.246 C 
ATOM      2  O   UNL     1      49.519  15.104  17.067  0.00  0.00    -0.311 OA
ENDBRANCH   3   2
BRANCH  10  11
ATOM     11  O   UNL     1      48.446  21.509  20.890  0.00  0.00    -0.476 OA
ATOM     12  H   UNL     1      49.157  20.957  20.538  0.00  0.00    +0.405 HD
ENDBRANCH  10  11
BRANCH  14  15
ATOM     15  O   UNL     1      43.762  22.290  20.739  0.00  0.00    -0.484 OA
ATOM     16  H   UNL     1      43.973  23.032  21.322  0.00  0.00    +0.402 HD
ENDBRANCH  14  15
BRANCH  17  18
ATOM     18  C   UNL     1      43.323  20.251  18.855  0.00  0.00    +0.133 C 
BRANCH  18  19
ATOM     19  C   UNL     1      42.636  19.286  19.786  0.00  0.00    -0.048 C 
ATOM     20  C   UNL     1      41.352  19.397  20.013  0.00  0.00    +0.016 C 
ENDBRANCH  18  19
ENDBRANCH  17  18
TORSDOF 5
ENDMDL
