MODEL 1
REMARK VINA RESULT:      -6.2      0.000      0.000
REMARK  Name = ZINC14779985
REMARK  8 active torsions:
REMARK  status: ('A' for Active; 'I' for Inactive)
REMARK    1  A    between atoms: C1_1  and  C2_2
REMARK    2  A    between atoms: C3_3  and  O4_21
REMARK    3  A    between atoms: C4_4  and  C17_20
REMARK    4  A    between atoms: C5_5  and  O3_19
REMARK    5  A    between atoms: C6_6  and  C8_9
REMARK    6  A    between atoms: C7_7  and  O1_8
REMARK    7  A    between atoms: C8_9  and  C9_11
REMARK    8  A    between atoms: C10_12  and  C11_13
REMARK                            x       y       z     vdW  Elec       q    Type
REMARK                         _______ _______ _______ _____ _____    ______ ____
ROOT
ATOM      1  C   UNL     1      43.535  17.572  21.745  0.00  0.00    +0.114 C 
ATOM      2  C   UNL     1      43.830  18.845  20.996  0.00  0.00    -0.140 A 
ATOM      3  C   UNL     1      42.810  19.508  20.326  0.00  0.00    +0.148 A 
ATOM      6  C   UNL     1      43.072  20.680  19.628  0.00  0.00    -0.140 A 
ATOM      7  C   UNL     1      41.958  21.387  18.900  0.00  0.00    +0.114 C 
ATOM      8  C   UNL     1      44.353  21.202  19.602  0.00  0.00    +0.161 A 
ATOM     11  C   UNL     1      45.391  20.538  20.277  0.00  0.00    -0.200 A 
ATOM     22  C   UNL     1      45.117  19.351  20.976  0.00  0.00    +0.162 A 
ENDROOT
BRANCH   3   4
ATOM      4  O   UNL     1      41.549  19.005  20.349  0.00  0.00    -0.485 OA
ATOM      5  H   UNL     1      41.476  18.112  19.987  0.00  0.00    +0.395 HD
ENDBRANCH   3   4
BRANCH   8   9
ATOM      9  O   UNL     1      44.606  22.348  18.924  0.00  0.00    -0.485 OA
ATOM     10  H   UNL     1      44.442  22.288  17.973  0.00  0.00    +0.397 HD
ENDBRANCH   8   9
BRANCH  11  12
ATOM     12  C   UNL     1      46.757  21.083  20.251  0.00  0.00    +0.453 C 
ATOM     21  O   UNL     1      47.092  21.925  21.066  0.00  0.00    -0.453 OA
BRANCH  12  13
ATOM     13  C   UNL     1      47.714  20.614  19.247  0.00  0.00    -0.090 C 
ATOM     14  C   UNL     1      49.039  20.762  19.458  0.00  0.00    +0.124 C 
BRANCH  14  15
ATOM     15  C   UNL     1      50.001  20.291  18.449  0.00  0.00    -0.083 A 
ATOM     16  C   UNL     1      50.067  18.932  18.120  0.00  0.00    +0.031 A 
ATOM     17  C   UNL     1      50.967  18.501  17.170  0.00  0.00    +0.004 A 
ATOM     18  C   UNL     1      51.813  19.405  16.551  0.00  0.00    +0.021 A 
ATOM     19  C   UNL     1      51.758  20.749  16.875  0.00  0.00    +0.004 A 
ATOM     20  C   UNL     1      50.859  21.197  17.819  0.00  0.00    +0.036 A 
ENDBRANCH  14  15
ENDBRANCH  12  13
ENDBRANCH  11  12
BRANCH  22  23
ATOM     23  O   UNL     1      46.112  18.703  21.631  0.00  0.00    -0.486 OA
ATOM     24  H   UNL     1      46.807  18.361  21.051  0.00  0.00    +0.399 HD
ENDBRANCH  22  23
TORSDOF 6
ENDMDL
MODEL 2
REMARK VINA RESULT:      -6.2      0.047      2.607
REMARK  Name = ZINC14779985
REMARK  8 active torsions:
REMARK  status: ('A' for Active; 'I' for Inactive)
REMARK    1  A    between atoms: C1_1  and  C2_2
REMARK    2  A    between atoms: C3_3  and  O4_21
REMARK    3  A    between atoms: C4_4  and  C17_20
REMARK    4  A    between atoms: C5_5  and  O3_19
REMARK    5  A    between atoms: C6_6  and  C8_9
REMARK    6  A    between atoms: C7_7  and  O1_8
REMARK    7  A    between atoms: C8_9  and  C9_11
REMARK    8  A    between atoms: C10_12  and  C11_13
REMARK                            x       y       z     vdW  Elec       q    Type
REMARK                         _______ _______ _______ _____ _____    ______ ____
ROOT
ATOM      1  C   UNL     1      41.989  21.392  18.878  0.00  0.00    +0.114 C 
ATOM      2  C   UNL     1      43.086  20.675  19.620  0.00  0.00    -0.140 A 
ATOM      3  C   UNL     1      42.802  19.512  20.325  0.00  0.00    +0.148 A 
ATOM      6  C   UNL     1      43.805  18.846  21.018  0.00  0.00    -0.140 A 
ATOM      7  C   UNL     1      43.482  17.589  21.784  0.00  0.00    +0.114 C 
ATOM      8  C   UNL     1      45.100  19.332  21.003  0.00  0.00    +0.161 A 
ATOM     11  C   UNL     1      45.396  20.507  20.294  0.00  0.00    -0.200 A 
ATOM     22  C   UNL     1      44.375  21.176  19.600  0.00  0.00    +0.162 A 
ENDROOT
BRANCH   3   4
ATOM      4  O   UNL     1      41.534  19.026  20.341  0.00  0.00    -0.485 OA
ATOM      5  H   UNL     1      41.367  18.343  19.678  0.00  0.00    +0.395 HD
ENDBRANCH   3   4
BRANCH   8   9
ATOM      9  O   UNL     1      46.078  18.678  21.676  0.00  0.00    -0.485 OA
ATOM     10  H   UNL     1      46.007  17.714  21.638  0.00  0.00    +0.397 HD
ENDBRANCH   8   9
BRANCH  11  12
ATOM     12  C   UNL     1      46.770  21.033  20.276  0.00  0.00    +0.453 C 
ATOM     21  O   UNL     1      47.116  21.862  21.100  0.00  0.00    -0.453 OA
BRANCH  12  13
ATOM     13  C   UNL     1      47.722  20.560  19.269  0.00  0.00    -0.090 C 
ATOM     14  C   UNL     1      49.043  20.790  19.429  0.00  0.00    +0.124 C 
BRANCH  14  15
ATOM     15  C   UNL     1      50.000  20.316  18.417  0.00  0.00    -0.083 A 
ATOM     16  C   UNL     1      50.849  21.221  17.772  0.00  0.00    +0.031 A 
ATOM     17  C   UNL     1      51.746  20.768  16.830  0.00  0.00    +0.004 A 
ATOM     18  C   UNL     1      51.799  19.422  16.510  0.00  0.00    +0.021 A 
ATOM     19  C   UNL     1      50.959  18.521  17.139  0.00  0.00    +0.004 A 
ATOM     20  C   UNL     1      50.060  18.958  18.089  0.00  0.00    +0.036 A 
ENDBRANCH  14  15
ENDBRANCH  12  13
ENDBRANCH  11  12
BRANCH  22  23
ATOM     23  O   UNL     1      44.651  22.311  18.910  0.00  0.00    -0.486 OA
ATOM     24  H   UNL     1      44.366  23.121  19.356  0.00  0.00    +0.399 HD
ENDBRANCH  22  23
TORSDOF 6
ENDMDL
MODEL 3
REMARK VINA RESULT:      -6.2      1.556      2.830
REMARK  Name = ZINC14779985
REMARK  8 active torsions:
REMARK  status: ('A' for Active; 'I' for Inactive)
REMARK    1  A    between atoms: C1_1  and  C2_2
REMARK    2  A    between atoms: C3_3  and  O4_21
REMARK    3  A    between atoms: C4_4  and  C17_20
REMARK    4  A    between atoms: C5_5  and  O3_19
REMARK    5  A    between atoms: C6_6  and  C8_9
REMARK    6  A    between atoms: C7_7  and  O1_8
REMARK    7  A    between atoms: C8_9  and  C9_11
REMARK    8  A    between atoms: C10_12  and  C11_13
REMARK                            x       y       z     vdW  Elec       q    Type
REMARK                         _______ _______ _______ _____ _____    ______ ____
ROOT
ATOM      1  C   UNL     1      45.391  23.942  20.997  0.00  0.00    +0.114 C 
ATOM      2  C   UNL     1      45.226  22.545  20.459  0.00  0.00    -0.140 A 
ATOM      3  C   UNL     1      44.017  22.155  19.899  0.00  0.00    +0.148 A 
ATOM      6  C   UNL     1      43.852  20.867  19.405  0.00  0.00    -0.140 A 
ATOM      7  C   UNL     1      42.533  20.455  18.805  0.00  0.00    +0.114 C 
ATOM      8  C   UNL     1      44.898  19.963  19.459  0.00  0.00    +0.161 A 
ATOM     11  C   UNL     1      46.125  20.349  20.024  0.00  0.00    -0.200 A 
ATOM     22  C   UNL     1      46.280  21.652  20.525  0.00  0.00    +0.162 A 
ENDROOT
BRANCH   3   4
ATOM      4  O   UNL     1      42.986  23.037  19.837  0.00  0.00    -0.485 OA
ATOM      5  H   UNL     1      43.140  23.780  19.238  0.00  0.00    +0.395 HD
ENDBRANCH   3   4
BRANCH   8   9
ATOM      9  O   UNL     1      44.738  18.708  18.972  0.00  0.00    -0.485 OA
ATOM     10  H   UNL     1      44.582  18.039  19.652  0.00  0.00    +0.397 HD
ENDBRANCH   8   9
BRANCH  11  12
ATOM     12  C   UNL     1      47.242  19.393  20.090  0.00  0.00    +0.453 C 
ATOM     21  O   UNL     1      47.365  18.666  21.060  0.00  0.00    -0.453 OA
BRANCH  12  13
ATOM     13  C   UNL     1      48.204  19.315  18.989  0.00  0.00    -0.090 C 
ATOM     14  C   UNL     1      49.372  19.988  19.065  0.00  0.00    +0.124 C 
BRANCH  14  15
ATOM     15  C   UNL     1      50.339  19.910  17.959  0.00  0.00    -0.083 A 
ATOM     16  C   UNL     1      50.965  21.069  17.488  0.00  0.00    +0.031 A 
ATOM     17  C   UNL     1      51.873  20.987  16.455  0.00  0.00    +0.004 A 
ATOM     18  C   UNL     1      52.158  19.762  15.875  0.00  0.00    +0.021 A 
ATOM     19  C   UNL     1      51.539  18.612  16.331  0.00  0.00    +0.004 A 
ATOM     20  C   UNL     1      50.632  18.677  17.367  0.00  0.00    +0.036 A 
ENDBRANCH  14  15
ENDBRANCH  12  13
ENDBRANCH  11  12
BRANCH  22  23
ATOM     23  O   UNL     1      47.462  22.034  21.072  0.00  0.00    -0.486 OA
ATOM     24  H   UNL     1      47.469  22.947  21.392  0.00  0.00    +0.399 HD
ENDBRANCH  22  23
TORSDOF 6
ENDMDL
MODEL 4
REMARK VINA RESULT:      -6.2      3.513      4.847
REMARK  Name = ZINC14779985
REMARK  8 active torsions:
REMARK  status: ('A' for Active; 'I' for Inactive)
REMARK    1  A    between atoms: C1_1  and  C2_2
REMARK    2  A    between atoms: C3_3  and  O4_21
REMARK    3  A    between atoms: C4_4  and  C17_20
REMARK    4  A    between atoms: C5_5  and  O3_19
REMARK    5  A    between atoms: C6_6  and  C8_9
REMARK    6  A    between atoms: C7_7  and  O1_8
REMARK    7  A    between atoms: C8_9  and  C9_11
REMARK    8  A    between atoms: C10_12  and  C11_13
REMARK                            x       y       z     vdW  Elec       q    Type
REMARK                         _______ _______ _______ _____ _____    ______ ____
ROOT
ATOM      1  C   UNL     1      44.281  23.613  19.376  0.00  0.00    +0.114 C 
ATOM      2  C   UNL     1      43.449  22.362  19.494  0.00  0.00    -0.140 A 
ATOM      3  C   UNL     1      42.190  22.309  18.910  0.00  0.00    +0.148 A 
ATOM      6  C   UNL     1      41.413  21.162  19.018  0.00  0.00    -0.140 A 
ATOM      7  C   UNL     1      40.046  21.119  18.385  0.00  0.00    +0.114 C 
ATOM      8  C   UNL     1      41.892  20.059  19.701  0.00  0.00    +0.161 A 
ATOM     11  C   UNL     1      43.164  20.105  20.295  0.00  0.00    -0.200 A 
ATOM     22  C   UNL     1      43.940  21.270  20.185  0.00  0.00    +0.162 A 
ENDROOT
BRANCH   3   4
ATOM      4  O   UNL     1      41.714  23.386  18.234  0.00  0.00    -0.485 OA
ATOM      5  H   UNL     1      40.927  23.199  17.704  0.00  0.00    +0.395 HD
ENDBRANCH   3   4
BRANCH   8   9
ATOM      9  O   UNL     1      41.134  18.940  19.801  0.00  0.00    -0.485 OA
ATOM     10  H   UNL     1      41.311  18.281  19.116  0.00  0.00    +0.397 HD
ENDBRANCH   8   9
BRANCH  11  12
ATOM     12  C   UNL     1      43.680  18.938  21.028  0.00  0.00    +0.453 C 
ATOM     21  O   UNL     1      43.691  18.940  22.246  0.00  0.00    -0.453 OA
BRANCH  12  13
ATOM     13  C   UNL     1      44.180  17.774  20.292  0.00  0.00    -0.090 C 
ATOM     14  C   UNL     1      45.249  17.899  19.479  0.00  0.00    +0.124 C 
BRANCH  14  15
ATOM     15  C   UNL     1      45.751  16.730  18.739  0.00  0.00    -0.083 A 
ATOM     16  C   UNL     1      46.327  16.892  17.475  0.00  0.00    +0.031 A 
ATOM     17  C   UNL     1      46.800  15.792  16.791  0.00  0.00    +0.004 A 
ATOM     18  C   UNL     1      46.694  14.529  17.347  0.00  0.00    +0.021 A 
ATOM     19  C   UNL     1      46.121  14.360  18.596  0.00  0.00    +0.004 A 
ATOM     20  C   UNL     1      45.649  15.451  19.294  0.00  0.00    +0.036 A 
ENDBRANCH  14  15
ENDBRANCH  12  13
ENDBRANCH  11  12
BRANCH  22  23
ATOM     23  O   UNL     1      45.171  21.323  20.755  0.00  0.00    -0.486 OA
ATOM     24  H   UNL     1      45.319  22.111  21.297  0.00  0.00    +0.399 HD
ENDBRANCH  22  23
TORSDOF 6
ENDMDL
MODEL 5
REMARK VINA RESULT:      -5.8      1.562      2.586
REMARK  Name = ZINC14779985
REMARK  8 active torsions:
REMARK  status: ('A' for Active; 'I' for Inactive)
REMARK    1  A    between atoms: C1_1  and  C2_2
REMARK    2  A    between atoms: C3_3  and  O4_21
REMARK    3  A    between atoms: C4_4  and  C17_20
REMARK    4  A    between atoms: C5_5  and  O3_19
REMARK    5  A    between atoms: C6_6  and  C8_9
REMARK    6  A    between atoms: C7_7  and  O1_8
REMARK    7  A    between atoms: C8_9  and  C9_11
REMARK    8  A    between atoms: C10_12  and  C11_13
REMARK                            x       y       z     vdW  Elec       q    Type
REMARK                         _______ _______ _______ _____ _____    ______ ____
ROOT
ATOM      1  C   UNL     1      42.720  19.799  19.180  0.00  0.00    +0.114 C 
ATOM      2  C   UNL     1      44.023  20.367  19.677  0.00  0.00    -0.140 A 
ATOM      3  C   UNL     1      44.097  21.700  20.062  0.00  0.00    +0.148 A 
ATOM      6  C   UNL     1      45.295  22.235  20.516  0.00  0.00    -0.140 A 
ATOM      7  C   UNL     1      45.363  23.684  20.925  0.00  0.00    +0.114 C 
ATOM      8  C   UNL     1      46.425  21.441  20.598  0.00  0.00    +0.161 A 
ATOM     11  C   UNL     1      46.359  20.093  20.210  0.00  0.00    -0.200 A 
ATOM     22  C   UNL     1      45.145  19.561  19.747  0.00  0.00    +0.162 A 
ENDROOT
BRANCH   3   4
ATOM      4  O   UNL     1      42.991  22.485  19.989  0.00  0.00    -0.485 OA
ATOM      5  H   UNL     1      42.661  22.778  20.849  0.00  0.00    +0.395 HD
ENDBRANCH   3   4
BRANCH   8   9
ATOM      9  O   UNL     1      47.592  21.965  21.046  0.00  0.00    -0.485 OA
ATOM     10  H   UNL     1      47.719  21.886  22.002  0.00  0.00    +0.397 HD
ENDBRANCH   8   9
BRANCH  11  12
ATOM     12  C   UNL     1      47.557  19.242  20.290  0.00  0.00    +0.453 C 
ATOM     21  O   UNL     1      47.786  18.606  21.303  0.00  0.00    -0.453 OA
BRANCH  12  13
ATOM     13  C   UNL     1      48.473  19.159  19.150  0.00  0.00    -0.090 C 
ATOM     14  C   UNL     1      49.507  20.021  19.053  0.00  0.00    +0.124 C 
BRANCH  14  15
ATOM     15  C   UNL     1      50.428  19.938  17.908  0.00  0.00    -0.083 A 
ATOM     16  C   UNL     1      51.089  21.084  17.452  0.00  0.00    +0.031 A 
ATOM     17  C   UNL     1      51.953  20.997  16.382  0.00  0.00    +0.004 A 
ATOM     18  C   UNL     1      52.159  19.782  15.751  0.00  0.00    +0.021 A 
ATOM     19  C   UNL     1      51.505  18.645  16.193  0.00  0.00    +0.004 A 
ATOM     20  C   UNL     1      50.642  18.715  17.264  0.00  0.00    +0.036 A 
ENDBRANCH  14  15
ENDBRANCH  12  13
ENDBRANCH  11  12
BRANCH  22  23
ATOM     23  O   UNL     1      45.071  18.259  19.372  0.00  0.00    -0.486 OA
ATOM     24  H   UNL     1      44.311  17.787  19.738  0.00  0.00    +0.399 HD
ENDBRANCH  22  23
TORSDOF 6
ENDMDL
MODEL 6
REMARK VINA RESULT:      -5.5      2.950      7.145
REMARK  Name = ZINC14779985
REMARK  8 active torsions:
REMARK  status: ('A' for Active; 'I' for Inactive)
REMARK    1  A    between atoms: C1_1  and  C2_2
REMARK    2  A    between atoms: C3_3  and  O4_21
REMARK    3  A    between atoms: C4_4  and  C17_20
REMARK    4  A    between atoms: C5_5  and  O3_19
REMARK    5  A    between atoms: C6_6  and  C8_9
REMARK    6  A    between atoms: C7_7  and  O1_8
REMARK    7  A    between atoms: C8_9  and  C9_11
REMARK    8  A    between atoms: C10_12  and  C11_13
REMARK                            x       y       z     vdW  Elec       q    Type
REMARK                         _______ _______ _______ _____ _____    ______ ____
ROOT
ATOM      1  C   UNL     1      50.964  15.918  17.166  0.00  0.00    +0.114 C 
ATOM      2  C   UNL     1      50.920  17.397  17.449  0.00  0.00    -0.140 A 
ATOM      3  C   UNL     1      51.564  18.285  16.596  0.00  0.00    +0.148 A 
ATOM      6  C   UNL     1      51.535  19.650  16.851  0.00  0.00    -0.140 A 
ATOM      7  C   UNL     1      52.242  20.603  15.921  0.00  0.00    +0.114 C 
ATOM      8  C   UNL     1      50.855  20.138  17.952  0.00  0.00    +0.161 A 
ATOM     11  C   UNL     1      50.202  19.247  18.820  0.00  0.00    -0.200 A 
ATOM     22  C   UNL     1      50.241  17.868  18.557  0.00  0.00    +0.162 A 
ENDROOT
BRANCH   3   4
ATOM      4  O   UNL     1      52.230  17.815  15.510  0.00  0.00    -0.485 OA
ATOM      5  H   UNL     1      51.760  17.947  14.675  0.00  0.00    +0.395 HD
ENDBRANCH   3   4
BRANCH   8   9
ATOM      9  O   UNL     1      50.825  21.471  18.196  0.00  0.00    -0.485 OA
ATOM     10  H   UNL     1      50.586  21.700  19.105  0.00  0.00    +0.397 HD
ENDBRANCH   8   9
BRANCH  11  12
ATOM     12  C   UNL     1      49.481  19.756  19.996  0.00  0.00    +0.453 C 
ATOM     21  O   UNL     1      50.100  20.108  20.986  0.00  0.00    -0.453 OA
BRANCH  12  13
ATOM     13  C   UNL     1      48.019  19.842  19.979  0.00  0.00    -0.090 C 
ATOM     14  C   UNL     1      47.409  20.814  19.268  0.00  0.00    +0.124 C 
BRANCH  14  15
ATOM     15  C   UNL     1      45.940  20.901  19.250  0.00  0.00    -0.083 A 
ATOM     16  C   UNL     1      45.296  22.035  19.755  0.00  0.00    +0.031 A 
ATOM     17  C   UNL     1      43.921  22.110  19.730  0.00  0.00    +0.004 A 
ATOM     18  C   UNL     1      43.175  21.061  19.218  0.00  0.00    +0.021 A 
ATOM     19  C   UNL     1      43.805  19.934  18.722  0.00  0.00    +0.004 A 
ATOM     20  C   UNL     1      45.180  19.846  18.735  0.00  0.00    +0.036 A 
ENDBRANCH  14  15
ENDBRANCH  12  13
ENDBRANCH  11  12
BRANCH  22  23
ATOM     23  O   UNL     1      49.612  16.999  19.389  0.00  0.00    -0.486 OA
ATOM     24  H   UNL     1      49.284  16.203  18.949  0.00  0.00    +0.399 HD
ENDBRANCH  22  23
TORSDOF 6
ENDMDL
MODEL 7
REMARK VINA RESULT:      -5.5      3.051      4.601
REMARK  Name = ZINC14779985
REMARK  8 active torsions:
REMARK  status: ('A' for Active; 'I' for Inactive)
REMARK    1  A    between atoms: C1_1  and  C2_2
REMARK    2  A    between atoms: C3_3  and  O4_21
REMARK    3  A    between atoms: C4_4  and  C17_20
REMARK    4  A    between atoms: C5_5  and  O3_19
REMARK    5  A    between atoms: C6_6  and  C8_9
REMARK    6  A    between atoms: C7_7  and  O1_8
REMARK    7  A    between atoms: C8_9  and  C9_11
REMARK    8  A    between atoms: C10_12  and  C11_13
REMARK                            x       y       z     vdW  Elec       q    Type
REMARK                         _______ _______ _______ _____ _____    ______ ____
ROOT
ATOM      1  C   UNL     1      43.826  18.780  20.062  0.00  0.00    +0.114 C 
ATOM      2  C   UNL     1      44.686  17.566  19.822  0.00  0.00    -0.140 A 
ATOM      3  C   UNL     1      44.695  16.529  20.746  0.00  0.00    +0.148 A 
ATOM      6  C   UNL     1      45.488  15.408  20.537  0.00  0.00    -0.140 A 
ATOM      7  C   UNL     1      45.493  14.292  21.549  0.00  0.00    +0.114 C 
ATOM      8  C   UNL     1      46.270  15.311  19.400  0.00  0.00    +0.161 A 
ATOM     11  C   UNL     1      46.268  16.356  18.461  0.00  0.00    -0.200 A 
ATOM     22  C   UNL     1      45.467  17.488  18.683  0.00  0.00    +0.162 A 
ENDROOT
BRANCH   3   4
ATOM      4  O   UNL     1      43.926  16.613  21.862  0.00  0.00    -0.485 OA
ATOM      5  H   UNL     1      43.234  17.287  21.812  0.00  0.00    +0.395 HD
ENDBRANCH   3   4
BRANCH   8   9
ATOM      9  O   UNL     1      47.040  14.215  19.196  0.00  0.00    -0.485 OA
ATOM     10  H   UNL     1      47.990  14.397  19.181  0.00  0.00    +0.397 HD
ENDBRANCH   8   9
BRANCH  11  12
ATOM     12  C   UNL     1      47.100  16.264  17.251  0.00  0.00    +0.453 C 
ATOM     21  O   UNL     1      46.959  15.328  16.485  0.00  0.00    -0.453 OA
BRANCH  12  13
ATOM     13  C   UNL     1      48.097  17.299  16.969  0.00  0.00    -0.090 C 
ATOM     14  C   UNL     1      49.089  17.539  17.852  0.00  0.00    +0.124 C 
BRANCH  14  15
ATOM     15  C   UNL     1      50.091  18.579  17.568  0.00  0.00    -0.083 A 
ATOM     16  C   UNL     1      50.142  19.739  18.349  0.00  0.00    +0.031 A 
ATOM     17  C   UNL     1      51.086  20.705  18.080  0.00  0.00    +0.004 A 
ATOM     18  C   UNL     1      51.975  20.537  17.032  0.00  0.00    +0.021 A 
ATOM     19  C   UNL     1      51.928  19.395  16.252  0.00  0.00    +0.004 A 
ATOM     20  C   UNL     1      50.993  18.417  16.512  0.00  0.00    +0.036 A 
ENDBRANCH  14  15
ENDBRANCH  12  13
ENDBRANCH  11  12
BRANCH  22  23
ATOM     23  O   UNL     1      45.457  18.502  17.781  0.00  0.00    -0.486 OA
ATOM     24  H   UNL     1      45.796  18.255  16.909  0.00  0.00    +0.399 HD
ENDBRANCH  22  23
TORSDOF 6
ENDMDL
MODEL 8
REMARK VINA RESULT:      -5.5      5.340      6.955
REMARK  Name = ZINC14779985
REMARK  8 active torsions:
REMARK  status: ('A' for Active; 'I' for Inactive)
REMARK    1  A    between atoms: C1_1  and  C2_2
REMARK    2  A    between atoms: C3_3  and  O4_21
REMARK    3  A    between atoms: C4_4  and  C17_20
REMARK    4  A    between atoms: C5_5  and  O3_19
REMARK    5  A    between atoms: C6_6  and  C8_9
REMARK    6  A    between atoms: C7_7  and  O1_8
REMARK    7  A    between atoms: C8_9  and  C9_11
REMARK    8  A    between atoms: C10_12  and  C11_13
REMARK                            x       y       z     vdW  Elec       q    Type
REMARK                         _______ _______ _______ _____ _____    ______ ____
ROOT
ATOM      1  C   UNL     1      47.695  12.106  14.516  0.00  0.00    +0.114 C 
ATOM      2  C   UNL     1      47.740  12.851  15.824  0.00  0.00    -0.140 A 
ATOM      3  C   UNL     1      46.631  12.851  16.661  0.00  0.00    +0.148 A 
ATOM      6  C   UNL     1      46.660  13.539  17.867  0.00  0.00    -0.140 A 
ATOM      7  C   UNL     1      45.449  13.536  18.763  0.00  0.00    +0.114 C 
ATOM      8  C   UNL     1      47.800  14.224  18.250  0.00  0.00    +0.161 A 
ATOM     11  C   UNL     1      48.925  14.230  17.410  0.00  0.00    -0.200 A 
ATOM     22  C   UNL     1      48.885  13.535  16.190  0.00  0.00    +0.162 A 
ENDROOT
BRANCH   3   4
ATOM      4  O   UNL     1      45.510  12.178  16.295  0.00  0.00    -0.485 OA
ATOM      5  H   UNL     1      44.965  11.890  17.040  0.00  0.00    +0.395 HD
ENDBRANCH   3   4
BRANCH   8   9
ATOM      9  O   UNL     1      47.828  14.891  19.429  0.00  0.00    -0.485 OA
ATOM     10  H   UNL     1      48.337  15.713  19.406  0.00  0.00    +0.397 HD
ENDBRANCH   8   9
BRANCH  11  12
ATOM     12  C   UNL     1      50.140  14.959  17.806  0.00  0.00    +0.453 C 
ATOM     21  O   UNL     1      50.908  14.468  18.615  0.00  0.00    -0.453 OA
BRANCH  12  13
ATOM     13  C   UNL     1      50.427  16.273  17.228  0.00  0.00    -0.090 C 
ATOM     14  C   UNL     1      50.791  17.297  18.028  0.00  0.00    +0.124 C 
BRANCH  14  15
ATOM     15  C   UNL     1      51.078  18.618  17.447  0.00  0.00    -0.083 A 
ATOM     16  C   UNL     1      50.735  19.783  18.143  0.00  0.00    +0.031 A 
ATOM     17  C   UNL     1      51.012  21.016  17.594  0.00  0.00    +0.004 A 
ATOM     18  C   UNL     1      51.618  21.105  16.352  0.00  0.00    +0.021 A 
ATOM     19  C   UNL     1      51.956  19.958  15.656  0.00  0.00    +0.004 A 
ATOM     20  C   UNL     1      51.690  18.717  16.194  0.00  0.00    +0.036 A 
ENDBRANCH  14  15
ENDBRANCH  12  13
ENDBRANCH  11  12
BRANCH  22  23
ATOM     23  O   UNL     1      49.968  13.534  15.371  0.00  0.00    -0.486 OA
ATOM     24  H   UNL     1      50.495  12.724  15.418  0.00  0.00    +0.399 HD
ENDBRANCH  22  23
TORSDOF 6
ENDMDL
MODEL 9
REMARK VINA RESULT:      -5.4      5.357      6.859
REMARK  Name = ZINC14779985
REMARK  8 active torsions:
REMARK  status: ('A' for Active; 'I' for Inactive)
REMARK    1  A    between atoms: C1_1  and  C2_2
REMARK    2  A    between atoms: C3_3  and  O4_21
REMARK    3  A    between atoms: C4_4  and  C17_20
REMARK    4  A    between atoms: C5_5  and  O3_19
REMARK    5  A    between atoms: C6_6  and  C8_9
REMARK    6  A    between atoms: C7_7  and  O1_8
REMARK    7  A    between atoms: C8_9  and  C9_11
REMARK    8  A    between atoms: C10_12  and  C11_13
REMARK                            x       y       z     vdW  Elec       q    Type
REMARK                         _______ _______ _______ _____ _____    ______ ____
ROOT
ATOM      1  C   UNL     1      45.393  13.451  18.750  0.00  0.00    +0.114 C 
ATOM      2  C   UNL     1      46.618  13.499  17.874  0.00  0.00    -0.140 A 
ATOM      3  C   UNL     1      46.623  12.839  16.652  0.00  0.00    +0.148 A 
ATOM      6  C   UNL     1      47.749  12.873  15.839  0.00  0.00    -0.140 A 
ATOM      7  C   UNL     1      47.744  12.149  14.518  0.00  0.00    +0.114 C 
ATOM      8  C   UNL     1      48.873  13.574  16.237  0.00  0.00    +0.161 A 
ATOM     11  C   UNL     1      48.877  14.244  17.472  0.00  0.00    -0.200 A 
ATOM     22  C   UNL     1      47.736  14.200  18.289  0.00  0.00    +0.162 A 
ENDROOT
BRANCH   3   4
ATOM      4  O   UNL     1      45.522  12.153  16.251  0.00  0.00    -0.485 OA
ATOM      5  H   UNL     1      44.760  12.256  16.838  0.00  0.00    +0.395 HD
ENDBRANCH   3   4
BRANCH   8   9
ATOM      9  O   UNL     1      49.969  13.610  15.441  0.00  0.00    -0.485 OA
ATOM     10  H   UNL     1      49.889  13.080  14.636  0.00  0.00    +0.397 HD
ENDBRANCH   8   9
BRANCH  11  12
ATOM     12  C   UNL     1      50.069  14.988  17.906  0.00  0.00    +0.453 C 
ATOM     21  O   UNL     1      50.795  14.526  18.768  0.00  0.00    -0.453 OA
BRANCH  12  13
ATOM     13  C   UNL     1      50.384  16.284  17.300  0.00  0.00    -0.090 C 
ATOM     14  C   UNL     1      50.721  17.330  18.084  0.00  0.00    +0.124 C 
BRANCH  14  15
ATOM     15  C   UNL     1      51.037  18.632  17.475  0.00  0.00    -0.083 A 
ATOM     16  C   UNL     1      51.644  18.692  16.216  0.00  0.00    +0.031 A 
ATOM     17  C   UNL     1      51.932  19.915  15.651  0.00  0.00    +0.004 A 
ATOM     18  C   UNL     1      51.633  21.084  16.332  0.00  0.00    +0.021 A 
ATOM     19  C   UNL     1      51.038  21.033  17.580  0.00  0.00    +0.004 A 
ATOM     20  C   UNL     1      50.739  19.817  18.156  0.00  0.00    +0.036 A 
ENDBRANCH  14  15
ENDBRANCH  12  13
ENDBRANCH  11  12
BRANCH  22  23
ATOM     23  O   UNL     1      47.729  14.845  19.483  0.00  0.00    -0.486 OA
ATOM     24  H   UNL     1      48.457  15.472  19.595  0.00  0.00    +0.399 HD
ENDBRANCH  22  23
TORSDOF 6
ENDMDL
