MODEL 1
REMARK VINA RESULT:      -6.3      0.000      0.000
REMARK  Name = ZINC95486196
REMARK  14 active torsions:
REMARK  status: ('A' for Active; 'I' for Inactive)
REMARK    1  A    between atoms: C3_3  and  O12_46
REMARK    2  A    between atoms: C6_6  and  C7_7
REMARK    3  A    between atoms: C8_8  and  C9_9
REMARK    4  A    between atoms: C9_9  and  O2_11
REMARK    5  A    between atoms: O2_11  and  C10_12
REMARK    6  A    between atoms: C14_19  and  O6_29
REMARK    7  A    between atoms: C16_23  and  C18_27
REMARK    8  A    between atoms: C18_27  and  O5_28
REMARK    9  A    between atoms: O6_29  and  C19_30
REMARK   10  A    between atoms: C20_32  and  O11_45
REMARK   11  A    between atoms: C21_34  and  O10_44
REMARK   12  A    between atoms: C22_36  and  O9_43
REMARK   13  A    between atoms: C23_38  and  C24_41
REMARK   14  A    between atoms: C24_41  and  O8_42
REMARK                            x       y       z     vdW  Elec       q    Type
REMARK                         _______ _______ _______ _____ _____    ______ ____
ROOT
ATOM     13  C   UNL     1      47.697  16.472  18.997  0.00  0.00    +0.224 C 
ATOM     14  C   UNL     1      48.482  15.194  19.277  0.00  0.00    +0.043 C 
ATOM     15  C   UNL     1      49.957  15.288  19.455  0.00  0.00    -0.128 C 
ATOM     16  C   UNL     1      50.689  14.272  19.028  0.00  0.00    +0.249 C 
ATOM     17  O   UNL     1      50.209  13.166  18.422  0.00  0.00    -0.346 OA
ATOM     18  C   UNL     1      48.794  13.008  18.206  0.00  0.00    +0.379 C 
ATOM     35  C   UNL     1      48.242  14.394  17.964  0.00  0.00    +0.005 C 
ATOM     36  C   UNL     1      46.746  14.567  17.730  0.00  0.00    +0.024 C 
ATOM     40  O   UNL     1      46.318  15.705  16.970  0.00  0.00    -0.283 OA
ATOM     41  C   UNL     1      46.379  15.934  18.375  0.00  0.00    +0.149 C 
ENDROOT
BRANCH  13  12
ATOM     12  O   UNL     1      48.394  17.304  18.069  0.00  0.00    -0.326 OA
BRANCH  12  11
ATOM     11  C   UNL     1      48.823  18.501  18.519  0.00  0.00    +0.505 C 
ATOM     42  O   UNL     1      49.923  18.911  18.204  0.00  0.00    -0.512 OA
BRANCH  11  10
ATOM      9  C   UNL     1      47.306  20.329  18.848  0.00  0.00    +0.158 C 
ATOM     10  C   UNL     1      47.989  19.282  19.359  0.00  0.00    -0.072 C 
BRANCH   9   8
ATOM      1  C   UNL     1      46.855  21.460  21.017  0.00  0.00    +0.067 A 
ATOM      2  C   UNL     1      46.043  22.219  21.827  0.00  0.00    -0.015 A 
ATOM      3  C   UNL     1      44.813  22.667  21.358  0.00  0.00    +0.127 A 
ATOM      6  C   UNL     1      44.397  22.352  20.070  0.00  0.00    -0.014 A 
ATOM      7  C   UNL     1      45.203  21.593  19.250  0.00  0.00    +0.060 A 
ATOM      8  C   UNL     1      46.442  21.139  19.718  0.00  0.00    -0.100 A 
BRANCH   3   4
ATOM      4  O   UNL     1      44.015  23.417  22.161  0.00  0.00    -0.498 OA
ATOM      5  H   UNL     1      44.134  23.244  23.105  0.00  0.00    +0.396 HD
ENDBRANCH   3   4
ENDBRANCH   9   8
ENDBRANCH  11  10
ENDBRANCH  12  11
ENDBRANCH  13  12
BRANCH  18  19
ATOM     19  O   UNL     1      48.560  12.177  17.068  0.00  0.00    -0.336 OA
BRANCH  19  20
ATOM     20  C   UNL     1      49.439  12.431  15.971  0.00  0.00    +0.303 C 
ATOM     21  C   UNL     1      48.620  12.602  14.689  0.00  0.00    +0.144 C 
ATOM     24  C   UNL     1      49.573  12.814  13.508  0.00  0.00    +0.163 C 
ATOM     27  C   UNL     1      50.540  11.628  13.427  0.00  0.00    +0.171 C 
ATOM     30  C   UNL     1      51.284  11.495  14.758  0.00  0.00    +0.195 C 
ATOM     34  O   UNL     1      50.338  11.331  15.817  0.00  0.00    -0.381 OA
BRANCH  21  22
ATOM     22  O   UNL     1      47.760  13.736  14.819  0.00  0.00    -0.553 OA
ATOM     23  H   UNL     1      46.872  13.521  15.139  0.00  0.00    +0.396 HD
ENDBRANCH  21  22
BRANCH  24  25
ATOM     25  O   UNL     1      48.821  12.904  12.297  0.00  0.00    -0.555 OA
ATOM     26  H   UNL     1      48.821  13.785  11.898  0.00  0.00    +0.396 HD
ENDBRANCH  24  25
BRANCH  27  28
ATOM     28  O   UNL     1      51.479  11.849  12.373  0.00  0.00    -0.550 OA
ATOM     29  H   UNL     1      51.080  12.162  11.549  0.00  0.00    +0.396 HD
ENDBRANCH  27  28
BRANCH  30  31
ATOM     31  C   UNL     1      52.208  10.277  14.705  0.00  0.00    +0.226 C 
BRANCH  31  32
ATOM     32  O   UNL     1      53.566  10.713  14.617  0.00  0.00    -0.567 OA
ATOM     33  H   UNL     1      54.174  10.225  15.190  0.00  0.00    +0.385 HD
ENDBRANCH  31  32
ENDBRANCH  30  31
ENDBRANCH  19  20
ENDBRANCH  18  19
BRANCH  36  37
ATOM     37  C   UNL     1      45.859  13.323  17.813  0.00  0.00    +0.256 C 
BRANCH  37  38
ATOM     38  O   UNL     1      45.684  12.775  16.504  0.00  0.00    -0.564 OA
ATOM     39  H   UNL     1      44.862  13.044  16.071  0.00  0.00    +0.386 HD
ENDBRANCH  37  38
ENDBRANCH  36  37
TORSDOF 14
ENDMDL
MODEL 2
REMARK VINA RESULT:      -6.3      3.339      8.467
REMARK  Name = ZINC95486196
REMARK  14 active torsions:
REMARK  status: ('A' for Active; 'I' for Inactive)
REMARK    1  A    between atoms: C3_3  and  O12_46
REMARK    2  A    between atoms: C6_6  and  C7_7
REMARK    3  A    between atoms: C8_8  and  C9_9
REMARK    4  A    between atoms: C9_9  and  O2_11
REMARK    5  A    between atoms: O2_11  and  C10_12
REMARK    6  A    between atoms: C14_19  and  O6_29
REMARK    7  A    between atoms: C16_23  and  C18_27
REMARK    8  A    between atoms: C18_27  and  O5_28
REMARK    9  A    between atoms: O6_29  and  C19_30
REMARK   10  A    between atoms: C20_32  and  O11_45
REMARK   11  A    between atoms: C21_34  and  O10_44
REMARK   12  A    between atoms: C22_36  and  O9_43
REMARK   13  A    between atoms: C23_38  and  C24_41
REMARK   14  A    between atoms: C24_41  and  O8_42
REMARK                            x       y       z     vdW  Elec       q    Type
REMARK                         _______ _______ _______ _____ _____    ______ ____
ROOT
ATOM     13  C   UNL     1      48.168  14.112  19.213  0.00  0.00    +0.224 C 
ATOM     14  C   UNL     1      47.085  14.886  18.466  0.00  0.00    +0.043 C 
ATOM     15  C   UNL     1      47.473  15.671  17.262  0.00  0.00    -0.128 C 
ATOM     16  C   UNL     1      46.816  16.796  17.030  0.00  0.00    +0.249 C 
ATOM     17  O   UNL     1      45.839  17.303  17.810  0.00  0.00    -0.346 OA
ATOM     18  C   UNL     1      45.417  16.605  18.997  0.00  0.00    +0.379 C 
ATOM     35  C   UNL     1      46.644  15.915  19.547  0.00  0.00    +0.005 C 
ATOM     36  C   UNL     1      46.516  15.058  20.800  0.00  0.00    +0.024 C 
ATOM     40  O   UNL     1      47.685  14.890  21.614  0.00  0.00    -0.283 OA
ATOM     41  C   UNL     1      47.526  13.890  20.610  0.00  0.00    +0.149 C 
ENDROOT
BRANCH  13  12
ATOM     12  O   UNL     1      49.363  14.887  19.321  0.00  0.00    -0.326 OA
BRANCH  12  11
ATOM     11  C   UNL     1      50.233  14.818  18.293  0.00  0.00    +0.505 C 
ATOM     42  O   UNL     1      50.627  13.736  17.902  0.00  0.00    -0.512 OA
BRANCH  11  10
ATOM      9  C   UNL     1      50.419  17.207  18.223  0.00  0.00    +0.158 C 
ATOM     10  C   UNL     1      50.688  16.007  17.667  0.00  0.00    -0.072 C 
BRANCH   9   8
ATOM      1  C   UNL     1      50.651  19.683  18.173  0.00  0.00    +0.067 A 
ATOM      2  C   UNL     1      51.094  20.834  17.562  0.00  0.00    -0.015 A 
ATOM      3  C   UNL     1      51.778  20.763  16.354  0.00  0.00    +0.127 A 
ATOM      6  C   UNL     1      52.017  19.531  15.756  0.00  0.00    -0.014 A 
ATOM      7  C   UNL     1      51.578  18.374  16.359  0.00  0.00    +0.060 A 
ATOM      8  C   UNL     1      50.889  18.440  17.576  0.00  0.00    -0.100 A 
BRANCH   3   4
ATOM      4  O   UNL     1      52.214  21.901  15.756  0.00  0.00    -0.498 OA
ATOM      5  H   UNL     1      51.998  21.959  14.815  0.00  0.00    +0.396 HD
ENDBRANCH   3   4
ENDBRANCH   9   8
ENDBRANCH  11  10
ENDBRANCH  12  11
ENDBRANCH  13  12
BRANCH  18  19
ATOM     19  O   UNL     1      44.899  17.531  19.955  0.00  0.00    -0.336 OA
BRANCH  19  20
ATOM     20  C   UNL     1      44.431  18.755  19.387  0.00  0.00    +0.303 C 
ATOM     21  C   UNL     1      45.221  19.926  19.975  0.00  0.00    +0.144 C 
ATOM     24  C   UNL     1      44.673  21.239  19.407  0.00  0.00    +0.163 C 
ATOM     27  C   UNL     1      43.176  21.332  19.718  0.00  0.00    +0.171 C 
ATOM     30  C   UNL     1      42.465  20.106  19.139  0.00  0.00    +0.195 C 
ATOM     34  O   UNL     1      43.044  18.919  19.686  0.00  0.00    -0.381 OA
BRANCH  21  22
ATOM     22  O   UNL     1      46.601  19.794  19.630  0.00  0.00    -0.553 OA
ATOM     23  H   UNL     1      46.763  19.223  18.866  0.00  0.00    +0.396 HD
ENDBRANCH  21  22
BRANCH  24  25
ATOM     25  O   UNL     1      45.357  22.342  20.005  0.00  0.00    -0.555 OA
ATOM     26  H   UNL     1      44.785  23.094  20.211  0.00  0.00    +0.396 HD
ENDBRANCH  24  25
BRANCH  27  28
ATOM     28  O   UNL     1      42.639  22.519  19.130  0.00  0.00    -0.550 OA
ATOM     29  H   UNL     1      42.880  23.332  19.595  0.00  0.00    +0.396 HD
ENDBRANCH  27  28
BRANCH  30  31
ATOM     31  C   UNL     1      40.979  20.162  19.497  0.00  0.00    +0.226 C 
BRANCH  31  32
ATOM     32  O   UNL     1      40.262  20.820  18.450  0.00  0.00    -0.567 OA
ATOM     33  H   UNL     1      40.242  20.328  17.617  0.00  0.00    +0.385 HD
ENDBRANCH  31  32
ENDBRANCH  30  31
ENDBRANCH  19  20
ENDBRANCH  18  19
BRANCH  36  37
ATOM     37  C   UNL     1      45.124  14.887  21.412  0.00  0.00    +0.256 C 
BRANCH  37  38
ATOM     38  O   UNL     1      44.926  15.876  22.425  0.00  0.00    -0.564 OA
ATOM     39  H   UNL     1      44.009  16.173  22.511  0.00  0.00    +0.386 HD
ENDBRANCH  37  38
ENDBRANCH  36  37
TORSDOF 14
ENDMDL
MODEL 3
REMARK VINA RESULT:      -6.3      2.503      3.391
REMARK  Name = ZINC95486196
REMARK  14 active torsions:
REMARK  status: ('A' for Active; 'I' for Inactive)
REMARK    1  A    between atoms: C3_3  and  O12_46
REMARK    2  A    between atoms: C6_6  and  C7_7
REMARK    3  A    between atoms: C8_8  and  C9_9
REMARK    4  A    between atoms: C9_9  and  O2_11
REMARK    5  A    between atoms: O2_11  and  C10_12
REMARK    6  A    between atoms: C14_19  and  O6_29
REMARK    7  A    between atoms: C16_23  and  C18_27
REMARK    8  A    between atoms: C18_27  and  O5_28
REMARK    9  A    between atoms: O6_29  and  C19_30
REMARK   10  A    between atoms: C20_32  and  O11_45
REMARK   11  A    between atoms: C21_34  and  O10_44
REMARK   12  A    between atoms: C22_36  and  O9_43
REMARK   13  A    between atoms: C23_38  and  C24_41
REMARK   14  A    between atoms: C24_41  and  O8_42
REMARK                            x       y       z     vdW  Elec       q    Type
REMARK                         _______ _______ _______ _____ _____    ______ ____
ROOT
ATOM     13  C   UNL     1      48.124  18.847  20.020  0.00  0.00    +0.224 C 
ATOM     14  C   UNL     1      49.171  18.022  19.276  0.00  0.00    +0.043 C 
ATOM     15  C   UNL     1      49.825  18.614  18.077  0.00  0.00    -0.128 C 
ATOM     16  C   UNL     1      50.155  17.792  17.094  0.00  0.00    +0.249 C 
ATOM     17  O   UNL     1      49.925  16.463  17.080  0.00  0.00    -0.346 OA
ATOM     18  C   UNL     1      49.287  15.820  18.199  0.00  0.00    +0.379 C 
ATOM     35  C   UNL     1      48.314  16.825  18.771  0.00  0.00    +0.005 C 
ATOM     36  C   UNL     1      47.496  16.450  20.001  0.00  0.00    +0.024 C 
ATOM     40  O   UNL     1      46.238  17.112  20.190  0.00  0.00    -0.283 OA
ATOM     41  C   UNL     1      47.339  17.768  20.814  0.00  0.00    +0.149 C 
ENDROOT
BRANCH  13  12
ATOM     12  O   UNL     1      47.266  19.526  19.101  0.00  0.00    -0.326 OA
BRANCH  12  11
ATOM     11  C   UNL     1      46.675  20.658  19.536  0.00  0.00    +0.505 C 
ATOM     42  O   UNL     1      47.276  21.411  20.277  0.00  0.00    -0.512 OA
BRANCH  11  10
ATOM      9  C   UNL     1      44.311  20.267  19.620  0.00  0.00    +0.158 C 
ATOM     10  C   UNL     1      45.353  20.970  19.127  0.00  0.00    -0.072 C 
BRANCH   9   8
ATOM      1  C   UNL     1      42.031  19.561  18.919  0.00  0.00    +0.067 A 
ATOM      2  C   UNL     1      40.749  19.868  18.523  0.00  0.00    -0.015 A 
ATOM      3  C   UNL     1      40.358  21.196  18.399  0.00  0.00    +0.127 A 
ATOM      6  C   UNL     1      41.257  22.221  18.672  0.00  0.00    -0.014 A 
ATOM      7  C   UNL     1      42.542  21.924  19.069  0.00  0.00    +0.060 A 
ATOM      8  C   UNL     1      42.941  20.589  19.196  0.00  0.00    -0.100 A 
BRANCH   3   4
ATOM      4  O   UNL     1      39.092  21.494  18.009  0.00  0.00    -0.498 OA
ATOM      5  H   UNL     1      38.691  20.830  17.431  0.00  0.00    +0.396 HD
ENDBRANCH   3   4
ENDBRANCH   9   8
ENDBRANCH  11  10
ENDBRANCH  12  11
ENDBRANCH  13  12
BRANCH  18  19
ATOM     19  O   UNL     1      48.591  14.650  17.764  0.00  0.00    -0.336 OA
BRANCH  19  20
ATOM     20  C   UNL     1      49.005  14.170  16.485  0.00  0.00    +0.303 C 
ATOM     21  C   UNL     1      47.831  13.469  15.798  0.00  0.00    +0.144 C 
ATOM     24  C   UNL     1      48.298  12.904  14.453  0.00  0.00    +0.163 C 
ATOM     27  C   UNL     1      49.480  11.959  14.691  0.00  0.00    +0.171 C 
ATOM     30  C   UNL     1      50.591  12.719  15.421  0.00  0.00    +0.195 C 
ATOM     34  O   UNL     1      50.081  13.244  16.649  0.00  0.00    -0.381 OA
BRANCH  21  22
ATOM     22  O   UNL     1      46.774  14.407  15.582  0.00  0.00    -0.553 OA
ATOM     23  H   UNL     1      46.969  15.299  15.900  0.00  0.00    +0.396 HD
ENDBRANCH  21  22
BRANCH  24  25
ATOM     25  O   UNL     1      47.227  12.187  13.837  0.00  0.00    -0.555 OA
ATOM     26  H   UNL     1      47.419  11.252  13.681  0.00  0.00    +0.396 HD
ENDBRANCH  24  25
BRANCH  27  28
ATOM     28  O   UNL     1      49.970  11.481  13.437  0.00  0.00    -0.550 OA
ATOM     29  H   UNL     1      50.645  10.793  13.515  0.00  0.00    +0.396 HD
ENDBRANCH  27  28
BRANCH  30  31
ATOM     31  C   UNL     1      51.751  11.766  15.715  0.00  0.00    +0.226 C 
BRANCH  31  32
ATOM     32  O   UNL     1      52.622  11.713  14.583  0.00  0.00    -0.567 OA
ATOM     33  H   UNL     1      52.165  11.571  13.742  0.00  0.00    +0.385 HD
ENDBRANCH  31  32
ENDBRANCH  30  31
ENDBRANCH  19  20
ENDBRANCH  18  19
BRANCH  36  37
ATOM     37  C   UNL     1      47.747  15.082  20.639  0.00  0.00    +0.256 C 
BRANCH  37  38
ATOM     38  O   UNL     1      46.835  14.128  20.091  0.00  0.00    -0.564 OA
ATOM     39  H   UNL     1      47.264  13.353  19.699  0.00  0.00    +0.386 HD
ENDBRANCH  37  38
ENDBRANCH  36  37
TORSDOF 14
ENDMDL
MODEL 4
REMARK VINA RESULT:      -6.1      2.414      4.017
REMARK  Name = ZINC95486196
REMARK  14 active torsions:
REMARK  status: ('A' for Active; 'I' for Inactive)
REMARK    1  A    between atoms: C3_3  and  O12_46
REMARK    2  A    between atoms: C6_6  and  C7_7
REMARK    3  A    between atoms: C8_8  and  C9_9
REMARK    4  A    between atoms: C9_9  and  O2_11
REMARK    5  A    between atoms: O2_11  and  C10_12
REMARK    6  A    between atoms: C14_19  and  O6_29
REMARK    7  A    between atoms: C16_23  and  C18_27
REMARK    8  A    between atoms: C18_27  and  O5_28
REMARK    9  A    between atoms: O6_29  and  C19_30
REMARK   10  A    between atoms: C20_32  and  O11_45
REMARK   11  A    between atoms: C21_34  and  O10_44
REMARK   12  A    between atoms: C22_36  and  O9_43
REMARK   13  A    between atoms: C23_38  and  C24_41
REMARK   14  A    between atoms: C24_41  and  O8_42
REMARK                            x       y       z     vdW  Elec       q    Type
REMARK                         _______ _______ _______ _____ _____    ______ ____
ROOT
ATOM     13  C   UNL     1      47.828  18.317  18.341  0.00  0.00    +0.224 C 
ATOM     14  C   UNL     1      47.817  17.111  17.405  0.00  0.00    +0.043 C 
ATOM     15  C   UNL     1      46.599  16.256  17.358  0.00  0.00    -0.128 C 
ATOM     16  C   UNL     1      46.772  14.961  17.150  0.00  0.00    +0.249 C 
ATOM     17  O   UNL     1      47.964  14.347  17.001  0.00  0.00    -0.346 OA
ATOM     18  C   UNL     1      49.186  15.107  17.044  0.00  0.00    +0.379 C 
ATOM     35  C   UNL     1      48.951  16.239  18.018  0.00  0.00    +0.005 C 
ATOM     36  C   UNL     1      50.064  17.251  18.262  0.00  0.00    +0.024 C 
ATOM     40  O   UNL     1      50.077  17.934  19.523  0.00  0.00    -0.283 OA
ATOM     41  C   UNL     1      49.345  18.610  18.503  0.00  0.00    +0.149 C 
ENDROOT
BRANCH  13  12
ATOM     12  O   UNL     1      47.237  17.988  19.599  0.00  0.00    -0.326 OA
BRANCH  12  11
ATOM     11  C   UNL     1      46.590  18.977  20.250  0.00  0.00    +0.505 C 
ATOM     42  O   UNL     1      46.997  19.364  21.328  0.00  0.00    -0.512 OA
BRANCH  11  10
ATOM      9  C   UNL     1      44.345  19.798  20.438  0.00  0.00    +0.158 C 
ATOM     10  C   UNL     1      45.435  19.566  19.675  0.00  0.00    -0.072 C 
BRANCH   9   8
ATOM      1  C   UNL     1      43.144  21.767  19.506  0.00  0.00    +0.067 A 
ATOM      2  C   UNL     1      42.020  22.333  18.948  0.00  0.00    -0.015 A 
ATOM      3  C   UNL     1      40.889  21.557  18.720  0.00  0.00    +0.127 A 
ATOM      6  C   UNL     1      40.887  20.207  19.052  0.00  0.00    -0.014 A 
ATOM      7  C   UNL     1      42.007  19.631  19.611  0.00  0.00    +0.060 A 
ATOM      8  C   UNL     1      43.148  20.408  19.843  0.00  0.00    -0.100 A 
BRANCH   3   4
ATOM      4  O   UNL     1      39.783  22.119  18.169  0.00  0.00    -0.498 OA
ATOM      5  H   UNL     1      39.096  22.346  18.810  0.00  0.00    +0.396 HD
ENDBRANCH   3   4
ENDBRANCH   9   8
ENDBRANCH  11  10
ENDBRANCH  12  11
ENDBRANCH  13  12
BRANCH  18  19
ATOM     19  O   UNL     1      50.263  14.282  17.495  0.00  0.00    -0.336 OA
BRANCH  19  20
ATOM     20  C   UNL     1      50.527  13.159  16.654  0.00  0.00    +0.303 C 
ATOM     21  C   UNL     1      51.803  12.457  17.124  0.00  0.00    +0.144 C 
ATOM     24  C   UNL     1      52.112  11.290  16.181  0.00  0.00    +0.163 C 
ATOM     27  C   UNL     1      52.235  11.823  14.750  0.00  0.00    +0.171 C 
ATOM     30  C   UNL     1      50.942  12.549  14.371  0.00  0.00    +0.195 C 
ATOM     34  O   UNL     1      50.697  13.603  15.306  0.00  0.00    -0.381 OA
BRANCH  21  22
ATOM     22  O   UNL     1      51.615  11.963  18.452  0.00  0.00    -0.553 OA
ATOM     23  H   UNL     1      51.306  12.630  19.080  0.00  0.00    +0.396 HD
ENDBRANCH  21  22
BRANCH  24  25
ATOM     25  O   UNL     1      53.341  10.673  16.570  0.00  0.00    -0.555 OA
ATOM     26  H   UNL     1      53.867  10.343  15.829  0.00  0.00    +0.396 HD
ENDBRANCH  24  25
BRANCH  27  28
ATOM     28  O   UNL     1      52.453  10.733  13.851  0.00  0.00    -0.550 OA
ATOM     29  H   UNL     1      52.697  11.005  12.956  0.00  0.00    +0.396 HD
ENDBRANCH  27  28
BRANCH  30  31
ATOM     31  C   UNL     1      51.079  13.136  12.965  0.00  0.00    +0.226 C 
BRANCH  31  32
ATOM     32  O   UNL     1      52.351  13.774  12.839  0.00  0.00    -0.567 OA
ATOM     33  H   UNL     1      52.414  14.621  13.304  0.00  0.00    +0.385 HD
ENDBRANCH  31  32
ENDBRANCH  30  31
ENDBRANCH  19  20
ENDBRANCH  18  19
BRANCH  36  37
ATOM     37  C   UNL     1      51.357  17.105  17.456  0.00  0.00    +0.256 C 
BRANCH  37  38
ATOM     38  O   UNL     1      52.293  16.321  18.198  0.00  0.00    -0.564 OA
ATOM     39  H   UNL     1      53.069  16.814  18.499  0.00  0.00    +0.386 HD
ENDBRANCH  37  38
ENDBRANCH  36  37
TORSDOF 14
ENDMDL
MODEL 5
REMARK VINA RESULT:      -6.0      2.429     10.177
REMARK  Name = ZINC95486196
REMARK  14 active torsions:
REMARK  status: ('A' for Active; 'I' for Inactive)
REMARK    1  A    between atoms: C3_3  and  O12_46
REMARK    2  A    between atoms: C6_6  and  C7_7
REMARK    3  A    between atoms: C8_8  and  C9_9
REMARK    4  A    between atoms: C9_9  and  O2_11
REMARK    5  A    between atoms: O2_11  and  C10_12
REMARK    6  A    between atoms: C14_19  and  O6_29
REMARK    7  A    between atoms: C16_23  and  C18_27
REMARK    8  A    between atoms: C18_27  and  O5_28
REMARK    9  A    between atoms: O6_29  and  C19_30
REMARK   10  A    between atoms: C20_32  and  O11_45
REMARK   11  A    between atoms: C21_34  and  O10_44
REMARK   12  A    between atoms: C22_36  and  O9_43
REMARK   13  A    between atoms: C23_38  and  C24_41
REMARK   14  A    between atoms: C24_41  and  O8_42
REMARK                            x       y       z     vdW  Elec       q    Type
REMARK                         _______ _______ _______ _____ _____    ______ ____
ROOT
ATOM     13  C   UNL     1      46.672  15.682  19.236  0.00  0.00    +0.224 C 
ATOM     14  C   UNL     1      45.979  16.443  20.363  0.00  0.00    +0.043 C 
ATOM     15  C   UNL     1      45.105  15.687  21.302  0.00  0.00    -0.128 C 
ATOM     16  C   UNL     1      44.043  16.312  21.784  0.00  0.00    +0.249 C 
ATOM     17  O   UNL     1      43.674  17.572  21.475  0.00  0.00    -0.346 OA
ATOM     18  C   UNL     1      44.464  18.362  20.566  0.00  0.00    +0.379 C 
ATOM     35  C   UNL     1      45.050  17.399  19.560  0.00  0.00    +0.005 C 
ATOM     36  C   UNL     1      45.971  17.932  18.470  0.00  0.00    +0.024 C 
ATOM     40  O   UNL     1      46.057  17.188  17.248  0.00  0.00    -0.283 OA
ATOM     41  C   UNL     1      47.021  16.810  18.227  0.00  0.00    +0.149 C 
ENDROOT
BRANCH  13  12
ATOM     12  O   UNL     1      45.786  14.730  18.647  0.00  0.00    -0.326 OA
BRANCH  12  11
ATOM     11  C   UNL     1      46.264  13.483  18.457  0.00  0.00    +0.505 C 
ATOM     42  O   UNL     1      45.715  12.535  18.984  0.00  0.00    -0.512 OA
BRANCH  11  10
ATOM      9  C   UNL     1      47.330  13.483  16.310  0.00  0.00    +0.158 C 
ATOM     10  C   UNL     1      47.406  13.277  17.642  0.00  0.00    -0.072 C 
BRANCH   9   8
ATOM      1  C   UNL     1      48.362  12.867  14.132  0.00  0.00    +0.067 A 
ATOM      2  C   UNL     1      49.474  12.669  13.345  0.00  0.00    -0.015 A 
ATOM      3  C   UNL     1      50.745  12.869  13.871  0.00  0.00    +0.127 A 
ATOM      6  C   UNL     1      50.902  13.270  15.193  0.00  0.00    -0.014 A 
ATOM      7  C   UNL     1      49.796  13.470  15.989  0.00  0.00    +0.060 A 
ATOM      8  C   UNL     1      48.514  13.270  15.465  0.00  0.00    -0.100 A 
BRANCH   3   4
ATOM      4  O   UNL     1      51.839  12.674  13.090  0.00  0.00    -0.498 OA
ATOM      5  H   UNL     1      52.679  12.797  13.552  0.00  0.00    +0.396 HD
ENDBRANCH   3   4
ENDBRANCH   9   8
ENDBRANCH  11  10
ENDBRANCH  12  11
ENDBRANCH  13  12
BRANCH  18  19
ATOM     19  O   UNL     1      43.640  19.325  19.907  0.00  0.00    -0.336 OA
BRANCH  19  20
ATOM     20  C   UNL     1      43.694  20.630  20.484  0.00  0.00    +0.303 C 
ATOM     21  C   UNL     1      43.549  21.683  19.383  0.00  0.00    +0.144 C 
ATOM     24  C   UNL     1      43.669  23.079  20.002  0.00  0.00    +0.163 C 
ATOM     27  C   UNL     1      45.008  23.187  20.737  0.00  0.00    +0.171 C 
ATOM     30  C   UNL     1      45.096  22.076  21.787  0.00  0.00    +0.195 C 
ATOM     34  O   UNL     1      44.946  20.806  21.148  0.00  0.00    -0.381 OA
BRANCH  21  22
ATOM     22  O   UNL     1      42.273  21.546  18.754  0.00  0.00    -0.553 OA
ATOM     23  H   UNL     1      42.319  21.368  17.805  0.00  0.00    +0.396 HD
ENDBRANCH  21  22
BRANCH  24  25
ATOM     25  O   UNL     1      43.607  24.067  18.971  0.00  0.00    -0.555 OA
ATOM     26  H   UNL     1      42.752  24.515  18.907  0.00  0.00    +0.396 HD
ENDBRANCH  24  25
BRANCH  27  28
ATOM     28  O   UNL     1      45.100  24.461  21.379  0.00  0.00    -0.550 OA
ATOM     29  H   UNL     1      44.333  24.683  21.924  0.00  0.00    +0.396 HD
ENDBRANCH  27  28
BRANCH  30  31
ATOM     31  C   UNL     1      46.456  22.141  22.485  0.00  0.00    +0.226 C 
BRANCH  31  32
ATOM     32  O   UNL     1      47.170  20.926  22.247  0.00  0.00    -0.567 OA
ATOM     33  H   UNL     1      46.739  20.138  22.609  0.00  0.00    +0.385 HD
ENDBRANCH  31  32
ENDBRANCH  30  31
ENDBRANCH  19  20
ENDBRANCH  18  19
BRANCH  36  37
ATOM     37  C   UNL     1      46.310  19.425  18.484  0.00  0.00    +0.256 C 
BRANCH  37  38
ATOM     38  O   UNL     1      47.223  19.695  19.550  0.00  0.00    -0.564 OA
ATOM     39  H   UNL     1      48.036  19.172  19.514  0.00  0.00    +0.386 HD
ENDBRANCH  37  38
ENDBRANCH  36  37
TORSDOF 14
ENDMDL
MODEL 6
REMARK VINA RESULT:      -5.9      2.448      3.266
REMARK  Name = ZINC95486196
REMARK  14 active torsions:
REMARK  status: ('A' for Active; 'I' for Inactive)
REMARK    1  A    between atoms: C3_3  and  O12_46
REMARK    2  A    between atoms: C6_6  and  C7_7
REMARK    3  A    between atoms: C8_8  and  C9_9
REMARK    4  A    between atoms: C9_9  and  O2_11
REMARK    5  A    between atoms: O2_11  and  C10_12
REMARK    6  A    between atoms: C14_19  and  O6_29
REMARK    7  A    between atoms: C16_23  and  C18_27
REMARK    8  A    between atoms: C18_27  and  O5_28
REMARK    9  A    between atoms: O6_29  and  C19_30
REMARK   10  A    between atoms: C20_32  and  O11_45
REMARK   11  A    between atoms: C21_34  and  O10_44
REMARK   12  A    between atoms: C22_36  and  O9_43
REMARK   13  A    between atoms: C23_38  and  C24_41
REMARK   14  A    between atoms: C24_41  and  O8_42
REMARK                            x       y       z     vdW  Elec       q    Type
REMARK                         _______ _______ _______ _____ _____    ______ ____
ROOT
ATOM     13  C   UNL     1      46.390  16.221  21.559  0.00  0.00    +0.224 C 
ATOM     14  C   UNL     1      47.336  16.412  20.376  0.00  0.00    +0.043 C 
ATOM     15  C   UNL     1      46.950  17.370  19.303  0.00  0.00    -0.128 C 
ATOM     16  C   UNL     1      47.317  17.078  18.065  0.00  0.00    +0.249 C 
ATOM     17  O   UNL     1      47.991  15.970  17.693  0.00  0.00    -0.346 OA
ATOM     18  C   UNL     1      48.389  14.993  18.674  0.00  0.00    +0.379 C 
ATOM     35  C   UNL     1      47.315  14.993  19.737  0.00  0.00    +0.005 C 
ATOM     36  C   UNL     1      47.465  14.075  20.943  0.00  0.00    +0.024 C 
ATOM     40  O   UNL     1      46.268  13.656  21.614  0.00  0.00    -0.283 OA
ATOM     41  C   UNL     1      46.839  14.852  22.138  0.00  0.00    +0.149 C 
ENDROOT
BRANCH  13  12
ATOM     12  O   UNL     1      45.032  16.166  21.120  0.00  0.00    -0.326 OA
BRANCH  12  11
ATOM     11  C   UNL     1      44.155  16.987  21.735  0.00  0.00    +0.505 C 
ATOM     42  O   UNL     1      43.127  16.537  22.201  0.00  0.00    -0.512 OA
BRANCH  11  10
ATOM      9  C   UNL     1      44.194  19.190  20.789  0.00  0.00    +0.158 C 
ATOM     10  C   UNL     1      44.434  18.374  21.837  0.00  0.00    -0.072 C 
BRANCH   9   8
ATOM      1  C   UNL     1      45.117  21.134  22.036  0.00  0.00    +0.067 A 
ATOM      2  C   UNL     1      45.386  22.481  22.129  0.00  0.00    -0.015 A 
ATOM      3  C   UNL     1      45.030  23.337  21.093  0.00  0.00    +0.127 A 
ATOM      6  C   UNL     1      44.401  22.839  19.957  0.00  0.00    -0.014 A 
ATOM      7  C   UNL     1      44.128  21.493  19.854  0.00  0.00    +0.060 A 
ATOM      8  C   UNL     1      44.484  20.627  20.895  0.00  0.00    -0.100 A 
BRANCH   3   4
ATOM      4  O   UNL     1      45.299  24.664  21.190  0.00  0.00    -0.498 OA
ATOM      5  H   UNL     1      46.242  24.872  21.237  0.00  0.00    +0.396 HD
ENDBRANCH   3   4
ENDBRANCH   9   8
ENDBRANCH  11  10
ENDBRANCH  12  11
ENDBRANCH  13  12
BRANCH  18  19
ATOM     19  O   UNL     1      48.487  13.702  18.070  0.00  0.00    -0.336 OA
BRANCH  19  20
ATOM     20  C   UNL     1      48.786  13.733  16.674  0.00  0.00    +0.303 C 
ATOM     21  C   UNL     1      47.699  12.981  15.902  0.00  0.00    +0.144 C 
ATOM     24  C   UNL     1      48.057  12.968  14.413  0.00  0.00    +0.163 C 
ATOM     27  C   UNL     1      49.440  12.333  14.237  0.00  0.00    +0.171 C 
ATOM     30  C   UNL     1      50.460  13.111  15.073  0.00  0.00    +0.195 C 
ATOM     34  O   UNL     1      50.050  13.111  16.443  0.00  0.00    -0.381 OA
BRANCH  21  22
ATOM     22  O   UNL     1      46.442  13.635  16.086  0.00  0.00    -0.553 OA
ATOM     23  H   UNL     1      45.802  13.463  15.382  0.00  0.00    +0.396 HD
ENDBRANCH  21  22
BRANCH  24  25
ATOM     25  O   UNL     1      47.085  12.206  13.694  0.00  0.00    -0.555 OA
ATOM     26  H   UNL     1      47.272  11.258  13.663  0.00  0.00    +0.396 HD
ENDBRANCH  24  25
BRANCH  27  28
ATOM     28  O   UNL     1      49.815  12.380  12.859  0.00  0.00    -0.550 OA
ATOM     29  H   UNL     1      49.085  12.219  12.246  0.00  0.00    +0.396 HD
ENDBRANCH  27  28
BRANCH  30  31
ATOM     31  C   UNL     1      51.833  12.448  14.949  0.00  0.00    +0.226 C 
BRANCH  31  32
ATOM     32  O   UNL     1      52.566  13.067  13.891  0.00  0.00    -0.567 OA
ATOM     33  H   UNL     1      53.465  12.725  13.783  0.00  0.00    +0.385 HD
ENDBRANCH  31  32
ENDBRANCH  30  31
ENDBRANCH  19  20
ENDBRANCH  18  19
BRANCH  36  37
ATOM     37  C   UNL     1      48.738  13.233  21.050  0.00  0.00    +0.256 C 
BRANCH  37  38
ATOM     38  O   UNL     1      48.494  11.932  20.512  0.00  0.00    -0.564 OA
ATOM     39  H   UNL     1      47.826  11.914  19.812  0.00  0.00    +0.386 HD
ENDBRANCH  37  38
ENDBRANCH  36  37
TORSDOF 14
ENDMDL
MODEL 7
REMARK VINA RESULT:      -5.8      2.776      3.574
REMARK  Name = ZINC95486196
REMARK  14 active torsions:
REMARK  status: ('A' for Active; 'I' for Inactive)
REMARK    1  A    between atoms: C3_3  and  O12_46
REMARK    2  A    between atoms: C6_6  and  C7_7
REMARK    3  A    between atoms: C8_8  and  C9_9
REMARK    4  A    between atoms: C9_9  and  O2_11
REMARK    5  A    between atoms: O2_11  and  C10_12
REMARK    6  A    between atoms: C14_19  and  O6_29
REMARK    7  A    between atoms: C16_23  and  C18_27
REMARK    8  A    between atoms: C18_27  and  O5_28
REMARK    9  A    between atoms: O6_29  and  C19_30
REMARK   10  A    between atoms: C20_32  and  O11_45
REMARK   11  A    between atoms: C21_34  and  O10_44
REMARK   12  A    between atoms: C22_36  and  O9_43
REMARK   13  A    between atoms: C23_38  and  C24_41
REMARK   14  A    between atoms: C24_41  and  O8_42
REMARK                            x       y       z     vdW  Elec       q    Type
REMARK                         _______ _______ _______ _____ _____    ______ ____
ROOT
ATOM     13  C   UNL     1      47.291  16.254  21.257  0.00  0.00    +0.224 C 
ATOM     14  C   UNL     1      48.476  16.274  20.294  0.00  0.00    +0.043 C 
ATOM     15  C   UNL     1      48.568  17.379  19.300  0.00  0.00    -0.128 C 
ATOM     16  C   UNL     1      49.096  17.095  18.121  0.00  0.00    +0.249 C 
ATOM     17  O   UNL     1      49.535  15.878  17.736  0.00  0.00    -0.346 OA
ATOM     18  C   UNL     1      49.468  14.759  18.639  0.00  0.00    +0.379 C 
ATOM     35  C   UNL     1      48.234  14.966  19.487  0.00  0.00    +0.005 C 
ATOM     36  C   UNL     1      47.901  13.952  20.573  0.00  0.00    +0.024 C 
ATOM     40  O   UNL     1      46.526  13.820  20.962  0.00  0.00    -0.283 OA
ATOM     41  C   UNL     1      47.257  14.774  21.727  0.00  0.00    +0.149 C 
ENDROOT
BRANCH  13  12
ATOM     12  O   UNL     1      46.081  16.600  20.580  0.00  0.00    -0.326 OA
BRANCH  12  11
ATOM     11  C   UNL     1      45.227  17.417  21.230  0.00  0.00    +0.505 C 
ATOM     42  O   UNL     1      45.126  17.353  22.439  0.00  0.00    -0.512 OA
BRANCH  11  10
ATOM      9  C   UNL     1      43.241  18.735  20.970  0.00  0.00    +0.158 C 
ATOM     10  C   UNL     1      44.448  18.352  20.501  0.00  0.00    -0.072 C 
BRANCH   9   8
ATOM      1  C   UNL     1      41.043  19.550  20.139  0.00  0.00    +0.067 A 
ATOM      2  C   UNL     1      40.291  20.460  19.431  0.00  0.00    -0.015 A 
ATOM      3  C   UNL     1      40.909  21.529  18.792  0.00  0.00    +0.127 A 
ATOM      6  C   UNL     1      42.289  21.686  18.864  0.00  0.00    -0.014 A 
ATOM      7  C   UNL     1      43.050  20.781  19.570  0.00  0.00    +0.060 A 
ATOM      8  C   UNL     1      42.433  19.703  20.215  0.00  0.00    -0.100 A 
BRANCH   3   4
ATOM      4  O   UNL     1      40.163  22.424  18.096  0.00  0.00    -0.498 OA
ATOM      5  H   UNL     1      39.801  22.076  17.269  0.00  0.00    +0.396 HD
ENDBRANCH   3   4
ENDBRANCH   9   8
ENDBRANCH  11  10
ENDBRANCH  12  11
ENDBRANCH  13  12
BRANCH  18  19
ATOM     19  O   UNL     1      49.364  13.538  17.904  0.00  0.00    -0.336 OA
BRANCH  19  20
ATOM     20  C   UNL     1      49.309  13.716  16.488  0.00  0.00    +0.303 C 
ATOM     21  C   UNL     1      48.195  12.842  15.906  0.00  0.00    +0.144 C 
ATOM     24  C   UNL     1      48.181  12.992  14.382  0.00  0.00    +0.163 C 
ATOM     27  C   UNL     1      49.560  12.618  13.830  0.00  0.00    +0.171 C 
ATOM     30  C   UNL     1      50.622  13.501  14.492  0.00  0.00    +0.195 C 
ATOM     34  O   UNL     1      50.560  13.337  15.911  0.00  0.00    -0.381 OA
BRANCH  21  22
ATOM     22  O   UNL     1      46.935  13.256  16.439  0.00  0.00    -0.553 OA
ATOM     23  H   UNL     1      46.817  14.216  16.470  0.00  0.00    +0.396 HD
ENDBRANCH  21  22
BRANCH  24  25
ATOM     25  O   UNL     1      47.191  12.125  13.825  0.00  0.00    -0.555 OA
ATOM     26  H   UNL     1      46.327  12.188  14.255  0.00  0.00    +0.396 HD
ENDBRANCH  24  25
BRANCH  27  28
ATOM     28  O   UNL     1      49.581  12.822  12.416  0.00  0.00    -0.550 OA
ATOM     29  H   UNL     1      49.688  13.747  12.154  0.00  0.00    +0.396 HD
ENDBRANCH  27  28
BRANCH  30  31
ATOM     31  C   UNL     1      52.009  13.093  13.991  0.00  0.00    +0.226 C 
BRANCH  31  32
ATOM     32  O   UNL     1      52.316  13.820  12.800  0.00  0.00    -0.567 OA
ATOM     33  H   UNL     1      53.244  14.087  12.730  0.00  0.00    +0.385 HD
ENDBRANCH  31  32
ENDBRANCH  30  31
ENDBRANCH  19  20
ENDBRANCH  18  19
BRANCH  36  37
ATOM     37  C   UNL     1      48.875  12.793  20.796  0.00  0.00    +0.256 C 
BRANCH  37  38
ATOM     38  O   UNL     1      48.498  11.689  19.971  0.00  0.00    -0.564 OA
ATOM     39  H   UNL     1      47.549  11.498  19.977  0.00  0.00    +0.386 HD
ENDBRANCH  37  38
ENDBRANCH  36  37
TORSDOF 14
ENDMDL
MODEL 8
REMARK VINA RESULT:      -5.8      1.942      3.602
REMARK  Name = ZINC95486196
REMARK  14 active torsions:
REMARK  status: ('A' for Active; 'I' for Inactive)
REMARK    1  A    between atoms: C3_3  and  O12_46
REMARK    2  A    between atoms: C6_6  and  C7_7
REMARK    3  A    between atoms: C8_8  and  C9_9
REMARK    4  A    between atoms: C9_9  and  O2_11
REMARK    5  A    between atoms: O2_11  and  C10_12
REMARK    6  A    between atoms: C14_19  and  O6_29
REMARK    7  A    between atoms: C16_23  and  C18_27
REMARK    8  A    between atoms: C18_27  and  O5_28
REMARK    9  A    between atoms: O6_29  and  C19_30
REMARK   10  A    between atoms: C20_32  and  O11_45
REMARK   11  A    between atoms: C21_34  and  O10_44
REMARK   12  A    between atoms: C22_36  and  O9_43
REMARK   13  A    between atoms: C23_38  and  C24_41
REMARK   14  A    between atoms: C24_41  and  O8_42
REMARK                            x       y       z     vdW  Elec       q    Type
REMARK                         _______ _______ _______ _____ _____    ______ ____
ROOT
ATOM     13  C   UNL     1      50.012  18.655  17.686  0.00  0.00    +0.224 C 
ATOM     14  C   UNL     1      49.223  17.374  17.427  0.00  0.00    +0.043 C 
ATOM     15  C   UNL     1      48.076  17.049  18.319  0.00  0.00    -0.128 C 
ATOM     16  C   UNL     1      47.843  15.771  18.572  0.00  0.00    +0.249 C 
ATOM     17  O   UNL     1      48.575  14.739  18.105  0.00  0.00    -0.346 OA
ATOM     18  C   UNL     1      49.706  14.975  17.245  0.00  0.00    +0.379 C 
ATOM     35  C   UNL     1      50.309  16.290  17.683  0.00  0.00    +0.005 C 
ATOM     36  C   UNL     1      51.519  16.837  16.936  0.00  0.00    +0.024 C 
ATOM     40  O   UNL     1      52.401  17.713  17.650  0.00  0.00    -0.283 OA
ATOM     41  C   UNL     1      51.354  18.384  16.954  0.00  0.00    +0.149 C 
ENDROOT
BRANCH  13  12
ATOM     12  O   UNL     1      50.226  18.844  19.086  0.00  0.00    -0.326 OA
BRANCH  12  11
ATOM     11  C   UNL     1      50.223  20.114  19.541  0.00  0.00    +0.505 C 
ATOM     42  O   UNL     1      51.254  20.617  19.944  0.00  0.00    -0.512 OA
BRANCH  11  10
ATOM      9  C   UNL     1      47.919  20.364  20.153  0.00  0.00    +0.158 C 
ATOM     10  C   UNL     1      49.019  20.862  19.548  0.00  0.00    -0.072 C 
BRANCH   9   8
ATOM      1  C   UNL     1      46.524  22.230  21.025  0.00  0.00    +0.067 A 
ATOM      2  C   UNL     1      45.352  22.952  21.027  0.00  0.00    -0.015 A 
ATOM      3  C   UNL     1      44.314  22.599  20.173  0.00  0.00    +0.127 A 
ATOM      6  C   UNL     1      44.453  21.516  19.312  0.00  0.00    -0.014 A 
ATOM      7  C   UNL     1      45.622  20.787  19.301  0.00  0.00    +0.060 A 
ATOM      8  C   UNL     1      46.670  21.139  20.160  0.00  0.00    -0.100 A 
BRANCH   3   4
ATOM      4  O   UNL     1      43.161  23.315  20.178  0.00  0.00    -0.498 OA
ATOM      5  H   UNL     1      43.267  24.230  20.472  0.00  0.00    +0.396 HD
ENDBRANCH   3   4
ENDBRANCH   9   8
ENDBRANCH  11  10
ENDBRANCH  12  11
ENDBRANCH  13  12
BRANCH  18  19
ATOM     19  O   UNL     1      50.660  13.921  17.385  0.00  0.00    -0.336 OA
BRANCH  19  20
ATOM     20  C   UNL     1      50.481  12.847  16.461  0.00  0.00    +0.303 C 
ATOM     21  C   UNL     1      51.847  12.357  15.976  0.00  0.00    +0.144 C 
ATOM     24  C   UNL     1      51.645  11.246  14.941  0.00  0.00    +0.163 C 
ATOM     27  C   UNL     1      50.779  11.781  13.796  0.00  0.00    +0.171 C 
ATOM     30  C   UNL     1      49.454  12.293  14.366  0.00  0.00    +0.195 C 
ATOM     34  O   UNL     1      49.715  13.302  15.344  0.00  0.00    -0.381 OA
BRANCH  21  22
ATOM     22  O   UNL     1      52.594  11.849  17.084  0.00  0.00    -0.553 OA
ATOM     23  H   UNL     1      52.603  12.434  17.854  0.00  0.00    +0.396 HD
ENDBRANCH  21  22
BRANCH  24  25
ATOM     25  O   UNL     1      52.913  10.831  14.430  0.00  0.00    -0.555 OA
ATOM     26  H   UNL     1      53.632  11.452  14.612  0.00  0.00    +0.396 HD
ENDBRANCH  24  25
BRANCH  27  28
ATOM     28  O   UNL     1      50.525  10.732  12.859  0.00  0.00    -0.550 OA
ATOM     29  H   UNL     1      50.657  10.989  11.937  0.00  0.00    +0.396 HD
ENDBRANCH  27  28
BRANCH  30  31
ATOM     31  C   UNL     1      48.608  12.884  13.236  0.00  0.00    +0.226 C 
BRANCH  31  32
ATOM     32  O   UNL     1      49.442  13.149  12.107  0.00  0.00    -0.567 OA
ATOM     33  H   UNL     1      49.855  14.025  12.120  0.00  0.00    +0.385 HD
ENDBRANCH  31  32
ENDBRANCH  30  31
ENDBRANCH  19  20
ENDBRANCH  18  19
BRANCH  36  37
ATOM     37  C   UNL     1      52.032  16.050  15.728  0.00  0.00    +0.256 C 
BRANCH  37  38
ATOM     38  O   UNL     1      52.729  16.934  14.847  0.00  0.00    -0.564 OA
ATOM     39  H   UNL     1      53.238  17.621  15.300  0.00  0.00    +0.386 HD
ENDBRANCH  37  38
ENDBRANCH  36  37
TORSDOF 14
ENDMDL
MODEL 9
REMARK VINA RESULT:      -5.7      2.018     10.113
REMARK  Name = ZINC95486196
REMARK  14 active torsions:
REMARK  status: ('A' for Active; 'I' for Inactive)
REMARK    1  A    between atoms: C3_3  and  O12_46
REMARK    2  A    between atoms: C6_6  and  C7_7
REMARK    3  A    between atoms: C8_8  and  C9_9
REMARK    4  A    between atoms: C9_9  and  O2_11
REMARK    5  A    between atoms: O2_11  and  C10_12
REMARK    6  A    between atoms: C14_19  and  O6_29
REMARK    7  A    between atoms: C16_23  and  C18_27
REMARK    8  A    between atoms: C18_27  and  O5_28
REMARK    9  A    between atoms: O6_29  and  C19_30
REMARK   10  A    between atoms: C20_32  and  O11_45
REMARK   11  A    between atoms: C21_34  and  O10_44
REMARK   12  A    between atoms: C22_36  and  O9_43
REMARK   13  A    between atoms: C23_38  and  C24_41
REMARK   14  A    between atoms: C24_41  and  O8_42
REMARK                            x       y       z     vdW  Elec       q    Type
REMARK                         _______ _______ _______ _____ _____    ______ ____
ROOT
ATOM     13  C   UNL     1      47.546  14.301  18.734  0.00  0.00    +0.224 C 
ATOM     14  C   UNL     1      46.921  15.164  19.827  0.00  0.00    +0.043 C 
ATOM     15  C   UNL     1      45.496  14.932  20.192  0.00  0.00    -0.128 C 
ATOM     16  C   UNL     1      44.781  15.983  20.558  0.00  0.00    +0.249 C 
ATOM     17  O   UNL     1      45.231  17.254  20.605  0.00  0.00    -0.346 OA
ATOM     18  C   UNL     1      46.595  17.558  20.256  0.00  0.00    +0.379 C 
ATOM     35  C   UNL     1      46.990  16.577  19.176  0.00  0.00    +0.005 C 
ATOM     36  C   UNL     1      48.404  16.622  18.612  0.00  0.00    +0.024 C 
ATOM     40  O   UNL     1      48.605  16.134  17.279  0.00  0.00    -0.283 OA
ATOM     41  C   UNL     1      48.772  15.145  18.291  0.00  0.00    +0.149 C 
ENDROOT
BRANCH  13  12
ATOM     12  O   UNL     1      46.635  14.120  17.648  0.00  0.00    -0.326 OA
BRANCH  12  11
ATOM     11  C   UNL     1      46.891  13.104  16.797  0.00  0.00    +0.505 C 
ATOM     42  O   UNL     1      46.436  11.999  17.016  0.00  0.00    -0.512 OA
BRANCH  11  10
ATOM      9  C   UNL     1      48.865  12.680  15.505  0.00  0.00    +0.158 C 
ATOM     10  C   UNL     1      47.689  13.327  15.646  0.00  0.00    -0.072 C 
BRANCH   9   8
ATOM      1  C   UNL     1      49.100  12.967  13.045  0.00  0.00    +0.067 A 
ATOM      2  C   UNL     1      49.881  13.185  11.932  0.00  0.00    -0.015 A 
ATOM      3  C   UNL     1      51.255  13.349  12.065  0.00  0.00    +0.127 A 
ATOM      6  C   UNL     1      51.849  13.294  13.321  0.00  0.00    -0.014 A 
ATOM      7  C   UNL     1      51.077  13.077  14.441  0.00  0.00    +0.060 A 
ATOM      8  C   UNL     1      49.693  12.911  14.313  0.00  0.00    -0.100 A 
BRANCH   3   4
ATOM      4  O   UNL     1      52.020  13.564  10.965  0.00  0.00    -0.498 OA
ATOM      5  H   UNL     1      51.868  12.931  10.250  0.00  0.00    +0.396 HD
ENDBRANCH   3   4
ENDBRANCH   9   8
ENDBRANCH  11  10
ENDBRANCH  12  11
ENDBRANCH  13  12
BRANCH  18  19
ATOM     19  O   UNL     1      46.691  18.897  19.766  0.00  0.00    -0.336 OA
BRANCH  19  20
ATOM     20  C   UNL     1      45.822  19.821  20.423  0.00  0.00    +0.303 C 
ATOM     21  C   UNL     1      44.906  20.483  19.391  0.00  0.00    +0.144 C 
ATOM     24  C   UNL     1      44.019  21.515  20.094  0.00  0.00    +0.163 C 
ATOM     27  C   UNL     1      44.909  22.530  20.818  0.00  0.00    +0.171 C 
ATOM     30  C   UNL     1      45.825  21.788  21.795  0.00  0.00    +0.195 C 
ATOM     34  O   UNL     1      46.600  20.822  21.080  0.00  0.00    -0.381 OA
BRANCH  21  22
ATOM     22  O   UNL     1      44.086  19.490  18.772  0.00  0.00    -0.553 OA
ATOM     23  H   UNL     1      43.255  19.832  18.414  0.00  0.00    +0.396 HD
ENDBRANCH  21  22
BRANCH  24  25
ATOM     25  O   UNL     1      43.210  22.189  19.128  0.00  0.00    -0.555 OA
ATOM     26  H   UNL     1      42.644  22.878  19.502  0.00  0.00    +0.396 HD
ENDBRANCH  24  25
BRANCH  27  28
ATOM     28  O   UNL     1      44.093  23.456  21.536  0.00  0.00    -0.550 OA
ATOM     29  H   UNL     1      44.396  23.631  22.438  0.00  0.00    +0.396 HD
ENDBRANCH  27  28
BRANCH  30  31
ATOM     31  C   UNL     1      46.760  22.789  22.478  0.00  0.00    +0.226 C 
BRANCH  31  32
ATOM     32  O   UNL     1      46.729  24.028  21.768  0.00  0.00    -0.567 OA
ATOM     33  H   UNL     1      46.617  23.932  20.811  0.00  0.00    +0.385 HD
ENDBRANCH  31  32
ENDBRANCH  30  31
ENDBRANCH  19  20
ENDBRANCH  18  19
BRANCH  36  37
ATOM     37  C   UNL     1      49.385  17.631  19.215  0.00  0.00    +0.256 C 
BRANCH  37  38
ATOM     38  O   UNL     1      49.798  18.553  18.205  0.00  0.00    -0.564 OA
ATOM     39  H   UNL     1      50.555  18.253  17.682  0.00  0.00    +0.386 HD
ENDBRANCH  37  38
ENDBRANCH  36  37
TORSDOF 14
ENDMDL
