MODEL 1
REMARK VINA RESULT:      -8.1      0.000      0.000
REMARK  Name = ZINC95486210
REMARK  14 active torsions:
REMARK  status: ('A' for Active; 'I' for Inactive)
REMARK    1  A    between atoms: C1_1  and  N1_2
REMARK    2  A    between atoms: C6_8  and  O6_48
REMARK    3  A    between atoms: C7_9  and  O5_46
REMARK    4  A    between atoms: C15_18  and  O4_44
REMARK    5  A    between atoms: C16_19  and  O3_42
REMARK    6  A    between atoms: C17_20  and  O1_21
REMARK    7  A    between atoms: O1_21  and  C18_22
REMARK    8  A    between atoms: C24_28  and  C27_33
REMARK    9  A    between atoms: C27_33  and  C28_34
REMARK   10  A    between atoms: C31_37  and  O2_40
REMARK   11  A    between atoms: O2_40  and  C34_41
REMARK   12  A    between atoms: O3_42  and  C35_43
REMARK   13  A    between atoms: O4_44  and  C36_45
REMARK   14  A    between atoms: O5_46  and  C37_47
REMARK                            x       y       z     vdW  Elec       q    Type
REMARK                         _______ _______ _______ _____ _____    ______ ____
ROOT
ATOM      1  C   UNL     1      52.486  14.523  19.390  0.00  0.00    +0.201 C 
ATOM      2  N   UNL     1      52.496  15.729  18.551  0.00  0.00    -0.514 NA
ATOM      3  C   UNL     1      51.552  15.602  17.436  0.00  0.00    +0.227 C 
ATOM      4  C   UNL     1      51.841  16.700  16.413  0.00  0.00    +0.111 C 
ATOM      5  C   UNL     1      51.897  18.040  17.103  0.00  0.00    -0.085 A 
ATOM      6  C   UNL     1      51.779  19.185  16.332  0.00  0.00    +0.028 A 
ATOM      7  C   UNL     1      51.827  20.435  16.923  0.00  0.00    +0.079 A 
ATOM     10  C   UNL     1      51.997  20.538  18.301  0.00  0.00    +0.107 A 
ATOM     13  C   UNL     1      52.114  19.391  19.065  0.00  0.00    -0.056 A 
ATOM     14  C   UNL     1      52.063  18.139  18.468  0.00  0.00    -0.035 A 
ATOM     15  C   UNL     1      50.131  15.733  17.911  0.00  0.00    -0.056 A 
ATOM     16  C   UNL     1      49.113  15.306  17.070  0.00  0.00    -0.048 A 
ATOM     17  C   UNL     1      47.789  15.407  17.460  0.00  0.00    +0.122 A 
ATOM     20  C   UNL     1      47.474  15.939  18.705  0.00  0.00    +0.064 A 
ATOM     23  C   UNL     1      48.487  16.305  19.559  0.00  0.00    +0.106 A 
ATOM     45  C   UNL     1      49.815  16.220  19.157  0.00  0.00    -0.100 A 
ATOM     46  C   UNL     1      50.886  16.693  20.107  0.00  0.00    +0.072 C 
ATOM     47  C   UNL     1      52.191  16.924  19.345  0.00  0.00    +0.227 C 
ENDROOT
BRANCH   7   8
ATOM      8  O   UNL     1      51.710  21.557  16.163  0.00  0.00    -0.485 OA
ATOM      9  H   UNL     1      51.420  22.337  16.654  0.00  0.00    +0.386 HD
ENDBRANCH   7   8
BRANCH  10  11
ATOM     11  O   UNL     1      52.048  21.761  18.893  0.00  0.00    -0.306 OA
ATOM     12  C   UNL     1      52.707  21.843  20.159  0.00  0.00    +0.237 C 
ENDBRANCH  10  11
BRANCH  17  18
ATOM     18  O   UNL     1      46.799  14.987  16.627  0.00  0.00    -0.302 OA
ATOM     19  C   UNL     1      46.920  13.669  16.089  0.00  0.00    +0.244 C 
ENDBRANCH  17  18
BRANCH  20  21
ATOM     21  O   UNL     1      46.174  16.044  19.096  0.00  0.00    -0.317 OA
ATOM     22  C   UNL     1      45.569  14.875  19.653  0.00  0.00    +0.229 C 
ENDBRANCH  20  21
BRANCH  23  24
ATOM     24  O   UNL     1      48.180  16.809  20.783  0.00  0.00    -0.250 OA
BRANCH  24  25
ATOM     25  C   UNL     1      47.698  18.077  20.848  0.00  0.00    +0.129 A 
ATOM     26  C   UNL     1      48.359  19.109  20.195  0.00  0.00    -0.055 A 
ATOM     27  C   UNL     1      47.862  20.393  20.264  0.00  0.00    +0.044 A 
ATOM     28  C   UNL     1      46.706  20.661  20.983  0.00  0.00    -0.107 A 
ATOM     29  C   UNL     1      46.049  19.640  21.636  0.00  0.00    -0.077 A 
ATOM     30  C   UNL     1      44.797  19.884  22.437  0.00  0.00    +0.231 C 
ATOM     40  N   UNL     1      44.199  21.174  22.076  0.00  0.00    -0.666 NA
ATOM     41  H   UNL     1      43.794  21.139  21.152  0.00  0.00    +0.342 HD
ATOM     42  C   UNL     1      45.203  22.246  22.172  0.00  0.00    +0.215 C 
ATOM     43  C   UNL     1      46.200  22.081  21.024  0.00  0.00    +0.038 C 
ATOM     44  C   UNL     1      46.541  18.346  21.561  0.00  0.00    -0.007 A 
BRANCH  30  31
ATOM     31  C   UNL     1      43.791  18.766  22.158  0.00  0.00    +0.085 C 
BRANCH  31  32
ATOM     32  C   UNL     1      42.853  19.196  21.060  0.00  0.00    -0.107 A 
ATOM     33  C   UNL     1      41.489  19.211  21.284  0.00  0.00    +0.047 A 
ATOM     34  C   UNL     1      40.627  19.604  20.280  0.00  0.00    -0.025 A 
ATOM     35  C   UNL     1      41.131  19.984  19.044  0.00  0.00    +0.122 A 
ATOM     38  C   UNL     1      42.500  19.969  18.821  0.00  0.00    -0.082 A 
ATOM     39  C   UNL     1      43.358  19.580  19.831  0.00  0.00    +0.067 A 
BRANCH  35  36
ATOM     36  O   UNL     1      40.284  20.371  18.053  0.00  0.00    -0.320 OA
ATOM     37  C   UNL     1      39.356  21.413  18.363  0.00  0.00    +0.237 C 
ENDBRANCH  35  36
ENDBRANCH  31  32
ENDBRANCH  30  31
ENDBRANCH  24  25
ENDBRANCH  23  24
TORSDOF 9
ENDMDL
MODEL 2
REMARK VINA RESULT:      -6.8      3.093      8.639
REMARK  Name = ZINC95486210
REMARK  14 active torsions:
REMARK  status: ('A' for Active; 'I' for Inactive)
REMARK    1  A    between atoms: C1_1  and  N1_2
REMARK    2  A    between atoms: C6_8  and  O6_48
REMARK    3  A    between atoms: C7_9  and  O5_46
REMARK    4  A    between atoms: C15_18  and  O4_44
REMARK    5  A    between atoms: C16_19  and  O3_42
REMARK    6  A    between atoms: C17_20  and  O1_21
REMARK    7  A    between atoms: O1_21  and  C18_22
REMARK    8  A    between atoms: C24_28  and  C27_33
REMARK    9  A    between atoms: C27_33  and  C28_34
REMARK   10  A    between atoms: C31_37  and  O2_40
REMARK   11  A    between atoms: O2_40  and  C34_41
REMARK   12  A    between atoms: O3_42  and  C35_43
REMARK   13  A    between atoms: O4_44  and  C36_45
REMARK   14  A    between atoms: O5_46  and  C37_47
REMARK                            x       y       z     vdW  Elec       q    Type
REMARK                         _______ _______ _______ _____ _____    ______ ____
ROOT
ATOM      1  C   UNL     1      46.173  19.397  21.553  0.00  0.00    +0.201 C 
ATOM      2  N   UNL     1      46.084  18.698  20.264  0.00  0.00    -0.514 NA
ATOM      3  C   UNL     1      46.949  19.330  19.262  0.00  0.00    +0.227 C 
ATOM      4  C   UNL     1      46.569  18.804  17.878  0.00  0.00    +0.111 C 
ATOM      5  C   UNL     1      46.539  17.297  17.892  0.00  0.00    -0.085 A 
ATOM      6  C   UNL     1      46.584  16.623  16.682  0.00  0.00    +0.028 A 
ATOM      7  C   UNL     1      46.556  15.240  16.649  0.00  0.00    +0.079 A 
ATOM     10  C   UNL     1      46.482  14.525  17.841  0.00  0.00    +0.107 A 
ATOM     13  C   UNL     1      46.439  15.203  19.046  0.00  0.00    -0.056 A 
ATOM     14  C   UNL     1      46.469  16.591  19.075  0.00  0.00    -0.035 A 
ATOM     15  C   UNL     1      48.397  19.022  19.526  0.00  0.00    -0.056 A 
ATOM     16  C   UNL     1      49.361  19.799  18.896  0.00  0.00    -0.048 A 
ATOM     17  C   UNL     1      50.707  19.555  19.105  0.00  0.00    +0.122 A 
ATOM     20  C   UNL     1      51.100  18.525  19.951  0.00  0.00    +0.064 A 
ATOM     23  C   UNL     1      50.143  17.798  20.618  0.00  0.00    +0.106 A 
ATOM     45  C   UNL     1      48.792  18.032  20.393  0.00  0.00    -0.100 A 
ATOM     46  C   UNL     1      47.784  17.163  21.101  0.00  0.00    +0.072 C 
ATOM     47  C   UNL     1      46.424  17.279  20.411  0.00  0.00    +0.227 C 
ENDROOT
BRANCH   7   8
ATOM      8  O   UNL     1      46.600  14.583  15.459  0.00  0.00    -0.485 OA
ATOM      9  H   UNL     1      46.029  13.805  15.418  0.00  0.00    +0.386 HD
ENDBRANCH   7   8
BRANCH  10  11
ATOM     11  O   UNL     1      46.453  13.166  17.822  0.00  0.00    -0.306 OA
ATOM     12  C   UNL     1      45.174  12.543  17.952  0.00  0.00    +0.237 C 
ENDBRANCH  10  11
BRANCH  17  18
ATOM     18  O   UNL     1      51.643  20.322  18.483  0.00  0.00    -0.302 OA
ATOM     19  C   UNL     1      51.438  20.598  17.096  0.00  0.00    +0.244 C 
ENDBRANCH  17  18
BRANCH  20  21
ATOM     21  O   UNL     1      52.422  18.278  20.160  0.00  0.00    -0.317 OA
ATOM     22  C   UNL     1      53.056  17.354  19.273  0.00  0.00    +0.229 C 
ENDBRANCH  20  21
BRANCH  23  24
ATOM     24  O   UNL     1      50.528  16.802  21.460  0.00  0.00    -0.250 OA
BRANCH  24  25
ATOM     25  C   UNL     1      50.127  15.535  21.174  0.00  0.00    +0.129 A 
ATOM     26  C   UNL     1      49.481  14.774  22.139  0.00  0.00    -0.055 A 
ATOM     27  C   UNL     1      49.075  13.490  21.840  0.00  0.00    +0.044 A 
ATOM     28  C   UNL     1      49.310  12.954  20.583  0.00  0.00    -0.107 A 
ATOM     29  C   UNL     1      49.954  13.706  19.623  0.00  0.00    -0.077 A 
ATOM     30  C   UNL     1      50.240  13.163  18.248  0.00  0.00    +0.231 C 
ATOM     40  N   UNL     1      49.407  11.987  17.975  0.00  0.00    -0.666 NA
ATOM     41  H   UNL     1      48.441  12.250  17.847  0.00  0.00    +0.342 HD
ATOM     42  C   UNL     1      49.545  11.002  19.060  0.00  0.00    +0.215 C 
ATOM     43  C   UNL     1      48.842  11.548  20.304  0.00  0.00    +0.038 C 
ATOM     44  C   UNL     1      50.355  15.000  19.917  0.00  0.00    -0.007 A 
BRANCH  30  31
ATOM     31  C   UNL     1      49.944  14.243  17.206  0.00  0.00    +0.085 C 
BRANCH  31  32
ATOM     32  C   UNL     1      50.259  13.714  15.830  0.00  0.00    -0.107 A 
ATOM     33  C   UNL     1      51.531  13.860  15.309  0.00  0.00    +0.047 A 
ATOM     34  C   UNL     1      51.823  13.377  14.049  0.00  0.00    -0.025 A 
ATOM     35  C   UNL     1      50.838  12.744  13.305  0.00  0.00    +0.122 A 
ATOM     38  C   UNL     1      49.561  12.599  13.829  0.00  0.00    -0.082 A 
ATOM     39  C   UNL     1      49.277  13.079  15.093  0.00  0.00    +0.067 A 
BRANCH  35  36
ATOM     36  O   UNL     1      51.122  12.268  12.064  0.00  0.00    -0.320 OA
ATOM     37  C   UNL     1      51.059  13.200  10.982  0.00  0.00    +0.237 C 
ENDBRANCH  35  36
ENDBRANCH  31  32
ENDBRANCH  30  31
ENDBRANCH  24  25
ENDBRANCH  23  24
TORSDOF 9
ENDMDL
MODEL 3
REMARK VINA RESULT:      -6.8      3.207      8.089
REMARK  Name = ZINC95486210
REMARK  14 active torsions:
REMARK  status: ('A' for Active; 'I' for Inactive)
REMARK    1  A    between atoms: C1_1  and  N1_2
REMARK    2  A    between atoms: C6_8  and  O6_48
REMARK    3  A    between atoms: C7_9  and  O5_46
REMARK    4  A    between atoms: C15_18  and  O4_44
REMARK    5  A    between atoms: C16_19  and  O3_42
REMARK    6  A    between atoms: C17_20  and  O1_21
REMARK    7  A    between atoms: O1_21  and  C18_22
REMARK    8  A    between atoms: C24_28  and  C27_33
REMARK    9  A    between atoms: C27_33  and  C28_34
REMARK   10  A    between atoms: C31_37  and  O2_40
REMARK   11  A    between atoms: O2_40  and  C34_41
REMARK   12  A    between atoms: O3_42  and  C35_43
REMARK   13  A    between atoms: O4_44  and  C36_45
REMARK   14  A    between atoms: O5_46  and  C37_47
REMARK                            x       y       z     vdW  Elec       q    Type
REMARK                         _______ _______ _______ _____ _____    ______ ____
ROOT
ATOM      1  C   UNL     1      51.543  20.331  16.139  0.00  0.00    +0.201 C 
ATOM      2  N   UNL     1      52.052  19.799  17.410  0.00  0.00    -0.514 NA
ATOM      3  C   UNL     1      51.398  20.448  18.551  0.00  0.00    +0.227 C 
ATOM      4  C   UNL     1      52.187  20.130  19.822  0.00  0.00    +0.111 C 
ATOM      5  C   UNL     1      52.410  18.643  19.926  0.00  0.00    -0.085 A 
ATOM      6  C   UNL     1      52.768  18.113  21.156  0.00  0.00    +0.028 A 
ATOM      7  C   UNL     1      52.986  16.754  21.297  0.00  0.00    +0.079 A 
ATOM     10  C   UNL     1      52.844  15.917  20.193  0.00  0.00    +0.107 A 
ATOM     13  C   UNL     1      52.487  16.451  18.969  0.00  0.00    -0.056 A 
ATOM     14  C   UNL     1      52.268  17.816  18.832  0.00  0.00    -0.035 A 
ATOM     15  C   UNL     1      49.984  19.962  18.714  0.00  0.00    -0.056 A 
ATOM     16  C   UNL     1      49.121  20.700  19.511  0.00  0.00    -0.048 A 
ATOM     17  C   UNL     1      47.811  20.294  19.694  0.00  0.00    +0.122 A 
ATOM     20  C   UNL     1      47.353  19.137  19.074  0.00  0.00    +0.064 A 
ATOM     23  C   UNL     1      48.194  18.442  18.238  0.00  0.00    +0.106 A 
ATOM     45  C   UNL     1      49.514  18.841  18.071  0.00  0.00    -0.100 A 
ATOM     46  C   UNL     1      50.413  18.007  17.193  0.00  0.00    +0.072 C 
ATOM     47  C   UNL     1      51.876  18.345  17.480  0.00  0.00    +0.227 C 
ENDROOT
BRANCH   7   8
ATOM      8  O   UNL     1      53.336  16.238  22.505  0.00  0.00    -0.485 OA
ATOM      9  H   UNL     1      52.621  15.769  22.955  0.00  0.00    +0.386 HD
ENDBRANCH   7   8
BRANCH  10  11
ATOM     11  O   UNL     1      53.057  14.580  20.318  0.00  0.00    -0.306 OA
ATOM     12  C   UNL     1      52.748  13.765  19.186  0.00  0.00    +0.237 C 
ENDBRANCH  10  11
BRANCH  17  18
ATOM     18  O   UNL     1      46.973  21.025  20.478  0.00  0.00    -0.302 OA
ATOM     19  C   UNL     1      47.509  21.536  21.700  0.00  0.00    +0.244 C 
ENDBRANCH  17  18
BRANCH  20  21
ATOM     21  O   UNL     1      46.066  18.729  19.251  0.00  0.00    -0.317 OA
ATOM     22  C   UNL     1      45.089  19.266  18.357  0.00  0.00    +0.229 C 
ENDBRANCH  20  21
BRANCH  23  24
ATOM     24  O   UNL     1      47.741  17.320  17.618  0.00  0.00    -0.250 OA
BRANCH  24  25
ATOM     25  C   UNL     1      48.056  16.117  18.166  0.00  0.00    +0.129 A 
ATOM     26  C   UNL     1      47.970  15.933  19.540  0.00  0.00    -0.055 A 
ATOM     27  C   UNL     1      48.288  14.708  20.088  0.00  0.00    +0.044 A 
ATOM     28  C   UNL     1      48.696  13.661  19.277  0.00  0.00    -0.107 A 
ATOM     29  C   UNL     1      48.786  13.840  17.912  0.00  0.00    -0.077 A 
ATOM     30  C   UNL     1      49.234  12.735  16.993  0.00  0.00    +0.231 C 
ATOM     40  N   UNL     1      49.136  11.435  17.665  0.00  0.00    -0.666 NA
ATOM     41  H   UNL     1      48.171  11.163  17.786  0.00  0.00    +0.342 HD
ATOM     42  C   UNL     1      49.839  11.475  18.957  0.00  0.00    +0.215 C 
ATOM     43  C   UNL     1      49.028  12.340  19.924  0.00  0.00    +0.038 C 
ATOM     44  C   UNL     1      48.458  15.067  17.357  0.00  0.00    -0.007 A 
BRANCH  30  31
ATOM     31  C   UNL     1      48.350  12.726  15.744  0.00  0.00    +0.085 C 
BRANCH  31  32
ATOM     32  C   UNL     1      49.211  12.872  14.517  0.00  0.00    -0.107 A 
ATOM     33  C   UNL     1      48.624  12.958  13.268  0.00  0.00    +0.047 A 
ATOM     34  C   UNL     1      49.410  13.092  12.141  0.00  0.00    -0.025 A 
ATOM     35  C   UNL     1      50.792  13.140  12.262  0.00  0.00    +0.122 A 
ATOM     38  C   UNL     1      51.379  13.053  13.516  0.00  0.00    -0.082 A 
ATOM     39  C   UNL     1      50.587  12.926  14.641  0.00  0.00    +0.067 A 
BRANCH  35  36
ATOM     36  O   UNL     1      51.568  13.271  11.155  0.00  0.00    -0.320 OA
ATOM     37  C   UNL     1      51.248  12.441  10.036  0.00  0.00    +0.237 C 
ENDBRANCH  35  36
ENDBRANCH  31  32
ENDBRANCH  30  31
ENDBRANCH  24  25
ENDBRANCH  23  24
TORSDOF 9
ENDMDL
MODEL 4
REMARK VINA RESULT:      -6.8      2.925      8.297
REMARK  Name = ZINC95486210
REMARK  14 active torsions:
REMARK  status: ('A' for Active; 'I' for Inactive)
REMARK    1  A    between atoms: C1_1  and  N1_2
REMARK    2  A    between atoms: C6_8  and  O6_48
REMARK    3  A    between atoms: C7_9  and  O5_46
REMARK    4  A    between atoms: C15_18  and  O4_44
REMARK    5  A    between atoms: C16_19  and  O3_42
REMARK    6  A    between atoms: C17_20  and  O1_21
REMARK    7  A    between atoms: O1_21  and  C18_22
REMARK    8  A    between atoms: C24_28  and  C27_33
REMARK    9  A    between atoms: C27_33  and  C28_34
REMARK   10  A    between atoms: C31_37  and  O2_40
REMARK   11  A    between atoms: O2_40  and  C34_41
REMARK   12  A    between atoms: O3_42  and  C35_43
REMARK   13  A    between atoms: O4_44  and  C36_45
REMARK   14  A    between atoms: O5_46  and  C37_47
REMARK                            x       y       z     vdW  Elec       q    Type
REMARK                         _______ _______ _______ _____ _____    ______ ____
ROOT
ATOM      1  C   UNL     1      44.672  18.075  21.834  0.00  0.00    +0.201 C 
ATOM      2  N   UNL     1      44.941  17.594  20.473  0.00  0.00    -0.514 NA
ATOM      3  C   UNL     1      45.907  18.461  19.790  0.00  0.00    +0.227 C 
ATOM      4  C   UNL     1      45.893  18.139  18.295  0.00  0.00    +0.111 C 
ATOM      5  C   UNL     1      46.053  16.654  18.090  0.00  0.00    -0.085 A 
ATOM      6  C   UNL     1      46.433  16.198  16.838  0.00  0.00    +0.028 A 
ATOM      7  C   UNL     1      46.589  14.843  16.604  0.00  0.00    +0.079 A 
ATOM     10  C   UNL     1      46.361  13.936  17.636  0.00  0.00    +0.107 A 
ATOM     13  C   UNL     1      45.983  14.398  18.884  0.00  0.00    -0.056 A 
ATOM     14  C   UNL     1      45.830  15.759  19.114  0.00  0.00    -0.035 A 
ATOM     15  C   UNL     1      47.297  18.252  20.326  0.00  0.00    -0.056 A 
ATOM     16  C   UNL     1      48.263  19.208  20.045  0.00  0.00    -0.048 A 
ATOM     17  C   UNL     1      49.557  19.061  20.513  0.00  0.00    +0.122 A 
ATOM     20  C   UNL     1      49.893  17.946  21.272  0.00  0.00    +0.064 A 
ATOM     23  C   UNL     1      48.920  17.032  21.598  0.00  0.00    +0.106 A 
ATOM     45  C   UNL     1      47.626  17.172  21.110  0.00  0.00    -0.100 A 
ATOM     46  C   UNL     1      46.612  16.108  21.444  0.00  0.00    +0.072 C 
ATOM     47  C   UNL     1      45.422  16.209  20.490  0.00  0.00    +0.227 C 
ENDROOT
BRANCH   7   8
ATOM      8  O   UNL     1      46.962  14.399  15.374  0.00  0.00    -0.485 OA
ATOM      9  H   UNL     1      47.652  14.931  14.956  0.00  0.00    +0.386 HD
ENDBRANCH   7   8
BRANCH  10  11
ATOM     11  O   UNL     1      46.510  12.603  17.419  0.00  0.00    -0.306 OA
ATOM     12  C   UNL     1      47.469  11.916  18.226  0.00  0.00    +0.237 C 
ENDBRANCH  10  11
BRANCH  17  18
ATOM     18  O   UNL     1      50.495  20.004  20.232  0.00  0.00    -0.302 OA
ATOM     19  C   UNL     1      50.535  21.153  21.081  0.00  0.00    +0.244 C 
ENDBRANCH  17  18
BRANCH  20  21
ATOM     21  O   UNL     1      51.164  17.792  21.736  0.00  0.00    -0.317 OA
ATOM     22  C   UNL     1      52.179  17.525  20.766  0.00  0.00    +0.229 C 
ENDBRANCH  20  21
BRANCH  23  24
ATOM     24  O   UNL     1      49.246  15.950  22.355  0.00  0.00    -0.250 OA
BRANCH  24  25
ATOM     25  C   UNL     1      49.711  14.843  21.719  0.00  0.00    +0.129 A 
ATOM     26  C   UNL     1      49.842  13.646  22.410  0.00  0.00    -0.055 A 
ATOM     27  C   UNL     1      50.312  12.526  21.756  0.00  0.00    +0.044 A 
ATOM     28  C   UNL     1      50.658  12.590  20.415  0.00  0.00    -0.107 A 
ATOM     29  C   UNL     1      50.534  13.778  19.726  0.00  0.00    -0.077 A 
ATOM     30  C   UNL     1      50.907  13.897  18.272  0.00  0.00    +0.231 C 
ATOM     40  N   UNL     1      50.989  12.571  17.651  0.00  0.00    -0.666 NA
ATOM     41  H   UNL     1      50.072  12.162  17.549  0.00  0.00    +0.342 HD
ATOM     42  C   UNL     1      51.872  11.695  18.437  0.00  0.00    +0.215 C 
ATOM     43  C   UNL     1      51.163  11.337  19.744  0.00  0.00    +0.038 C 
ATOM     44  C   UNL     1      50.052  14.903  20.377  0.00  0.00    -0.007 A 
BRANCH  30  31
ATOM     31  C   UNL     1      49.849  14.730  17.545  0.00  0.00    +0.085 C 
BRANCH  31  32
ATOM     32  C   UNL     1      50.453  16.039  17.107  0.00  0.00    -0.107 A 
ATOM     33  C   UNL     1      51.655  16.050  16.424  0.00  0.00    +0.047 A 
ATOM     34  C   UNL     1      52.211  17.248  16.022  0.00  0.00    -0.025 A 
ATOM     35  C   UNL     1      51.562  18.442  16.303  0.00  0.00    +0.122 A 
ATOM     38  C   UNL     1      50.356  18.429  16.989  0.00  0.00    -0.082 A 
ATOM     39  C   UNL     1      49.801  17.227  17.384  0.00  0.00    +0.067 A 
BRANCH  35  36
ATOM     36  O   UNL     1      52.108  19.623  15.909  0.00  0.00    -0.320 OA
ATOM     37  C   UNL     1      51.786  20.778  16.686  0.00  0.00    +0.237 C 
ENDBRANCH  35  36
ENDBRANCH  31  32
ENDBRANCH  30  31
ENDBRANCH  24  25
ENDBRANCH  23  24
TORSDOF 9
ENDMDL
MODEL 5
REMARK VINA RESULT:      -6.6      2.725      8.028
REMARK  Name = ZINC95486210
REMARK  14 active torsions:
REMARK  status: ('A' for Active; 'I' for Inactive)
REMARK    1  A    between atoms: C1_1  and  N1_2
REMARK    2  A    between atoms: C6_8  and  O6_48
REMARK    3  A    between atoms: C7_9  and  O5_46
REMARK    4  A    between atoms: C15_18  and  O4_44
REMARK    5  A    between atoms: C16_19  and  O3_42
REMARK    6  A    between atoms: C17_20  and  O1_21
REMARK    7  A    between atoms: O1_21  and  C18_22
REMARK    8  A    between atoms: C24_28  and  C27_33
REMARK    9  A    between atoms: C27_33  and  C28_34
REMARK   10  A    between atoms: C31_37  and  O2_40
REMARK   11  A    between atoms: O2_40  and  C34_41
REMARK   12  A    between atoms: O3_42  and  C35_43
REMARK   13  A    between atoms: O4_44  and  C36_45
REMARK   14  A    between atoms: O5_46  and  C37_47
REMARK                            x       y       z     vdW  Elec       q    Type
REMARK                         _______ _______ _______ _____ _____    ______ ____
ROOT
ATOM      1  C   UNL     1      48.042  15.666  22.159  0.00  0.00    +0.201 C 
ATOM      2  N   UNL     1      47.288  14.752  21.291  0.00  0.00    -0.514 NA
ATOM      3  C   UNL     1      45.847  15.011  21.379  0.00  0.00    +0.227 C 
ATOM      4  C   UNL     1      45.093  13.840  20.750  0.00  0.00    +0.111 C 
ATOM      5  C   UNL     1      45.646  13.553  19.377  0.00  0.00    -0.085 A 
ATOM      6  C   UNL     1      44.883  12.796  18.502  0.00  0.00    +0.028 A 
ATOM      7  C   UNL     1      45.353  12.507  17.233  0.00  0.00    +0.079 A 
ATOM     10  C   UNL     1      46.602  12.980  16.837  0.00  0.00    +0.107 A 
ATOM     13  C   UNL     1      47.358  13.736  17.715  0.00  0.00    -0.056 A 
ATOM     14  C   UNL     1      46.881  14.025  18.987  0.00  0.00    -0.035 A 
ATOM     15  C   UNL     1      45.480  16.279  20.657  0.00  0.00    -0.056 A 
ATOM     16  C   UNL     1      44.243  16.851  20.919  0.00  0.00    -0.048 A 
ATOM     17  C   UNL     1      43.857  18.017  20.279  0.00  0.00    +0.122 A 
ATOM     20  C   UNL     1      44.714  18.620  19.367  0.00  0.00    +0.064 A 
ATOM     23  C   UNL     1      45.962  18.083  19.155  0.00  0.00    +0.106 A 
ATOM     45  C   UNL     1      46.339  16.903  19.784  0.00  0.00    -0.100 A 
ATOM     46  C   UNL     1      47.694  16.321  19.469  0.00  0.00    +0.072 C 
ATOM     47  C   UNL     1      47.741  14.855  19.900  0.00  0.00    +0.227 C 
ENDROOT
BRANCH   7   8
ATOM      8  O   UNL     1      44.601  11.764  16.378  0.00  0.00    -0.485 OA
ATOM      9  H   UNL     1      44.573  10.823  16.594  0.00  0.00    +0.386 HD
ENDBRANCH   7   8
BRANCH  10  11
ATOM     11  O   UNL     1      47.075  12.701  15.594  0.00  0.00    -0.306 OA
ATOM     12  C   UNL     1      48.378  12.122  15.511  0.00  0.00    +0.237 C 
ENDBRANCH  10  11
BRANCH  17  18
ATOM     18  O   UNL     1      42.642  18.569  20.543  0.00  0.00    -0.302 OA
ATOM     19  C   UNL     1      42.353  18.879  21.908  0.00  0.00    +0.244 C 
ENDBRANCH  17  18
BRANCH  20  21
ATOM     21  O   UNL     1      44.342  19.766  18.732  0.00  0.00    -0.317 OA
ATOM     22  C   UNL     1      44.398  20.975  19.492  0.00  0.00    +0.229 C 
ENDBRANCH  20  21
BRANCH  23  24
ATOM     24  O   UNL     1      46.807  18.683  18.276  0.00  0.00    -0.250 OA
BRANCH  24  25
ATOM     25  C   UNL     1      47.912  19.299  18.773  0.00  0.00    +0.129 A 
ATOM     26  C   UNL     1      47.820  20.583  19.292  0.00  0.00    -0.055 A 
ATOM     27  C   UNL     1      48.946  21.200  19.797  0.00  0.00    +0.044 A 
ATOM     28  C   UNL     1      50.169  20.546  19.786  0.00  0.00    -0.107 A 
ATOM     29  C   UNL     1      50.265  19.271  19.267  0.00  0.00    -0.077 A 
ATOM     30  C   UNL     1      51.573  18.526  19.225  0.00  0.00    +0.231 C 
ATOM     40  N   UNL     1      52.542  19.136  20.142  0.00  0.00    -0.666 NA
ATOM     41  H   UNL     1      52.289  18.962  21.103  0.00  0.00    +0.342 HD
ATOM     42  C   UNL     1      52.655  20.579  19.879  0.00  0.00    +0.215 C 
ATOM     43  C   UNL     1      51.370  21.260  20.353  0.00  0.00    +0.038 C 
ATOM     44  C   UNL     1      49.133  18.645  18.768  0.00  0.00    -0.007 A 
BRANCH  30  31
ATOM     31  C   UNL     1      51.340  17.071  19.633  0.00  0.00    +0.085 C 
BRANCH  31  32
ATOM     32  C   UNL     1      51.386  16.192  18.409  0.00  0.00    -0.107 A 
ATOM     33  C   UNL     1      51.722  16.735  17.182  0.00  0.00    +0.047 A 
ATOM     34  C   UNL     1      51.765  15.933  16.059  0.00  0.00    -0.025 A 
ATOM     35  C   UNL     1      51.471  14.581  16.162  0.00  0.00    +0.122 A 
ATOM     38  C   UNL     1      51.135  14.038  17.394  0.00  0.00    -0.082 A 
ATOM     39  C   UNL     1      51.099  14.844  18.515  0.00  0.00    +0.067 A 
BRANCH  35  36
ATOM     36  O   UNL     1      51.512  13.789  15.058  0.00  0.00    -0.320 OA
ATOM     37  C   UNL     1      51.987  12.453  15.235  0.00  0.00    +0.237 C 
ENDBRANCH  35  36
ENDBRANCH  31  32
ENDBRANCH  30  31
ENDBRANCH  24  25
ENDBRANCH  23  24
TORSDOF 9
ENDMDL
MODEL 6
REMARK VINA RESULT:      -6.5      2.620      5.624
REMARK  Name = ZINC95486210
REMARK  14 active torsions:
REMARK  status: ('A' for Active; 'I' for Inactive)
REMARK    1  A    between atoms: C1_1  and  N1_2
REMARK    2  A    between atoms: C6_8  and  O6_48
REMARK    3  A    between atoms: C7_9  and  O5_46
REMARK    4  A    between atoms: C15_18  and  O4_44
REMARK    5  A    between atoms: C16_19  and  O3_42
REMARK    6  A    between atoms: C17_20  and  O1_21
REMARK    7  A    between atoms: O1_21  and  C18_22
REMARK    8  A    between atoms: C24_28  and  C27_33
REMARK    9  A    between atoms: C27_33  and  C28_34
REMARK   10  A    between atoms: C31_37  and  O2_40
REMARK   11  A    between atoms: O2_40  and  C34_41
REMARK   12  A    between atoms: O3_42  and  C35_43
REMARK   13  A    between atoms: O4_44  and  C36_45
REMARK   14  A    between atoms: O5_46  and  C37_47
REMARK                            x       y       z     vdW  Elec       q    Type
REMARK                         _______ _______ _______ _____ _____    ______ ____
ROOT
ATOM      1  C   UNL     1      48.177  16.557  21.868  0.00  0.00    +0.201 C 
ATOM      2  N   UNL     1      49.218  17.572  21.655  0.00  0.00    -0.514 NA
ATOM      3  C   UNL     1      50.553  17.015  21.898  0.00  0.00    +0.227 C 
ATOM      4  C   UNL     1      51.556  18.162  22.008  0.00  0.00    +0.111 C 
ATOM      5  C   UNL     1      51.413  19.084  20.824  0.00  0.00    -0.085 A 
ATOM      6  C   UNL     1      52.448  19.959  20.538  0.00  0.00    +0.028 A 
ATOM      7  C   UNL     1      52.357  20.824  19.462  0.00  0.00    +0.079 A 
ATOM     10  C   UNL     1      51.216  20.812  18.664  0.00  0.00    +0.107 A 
ATOM     13  C   UNL     1      50.186  19.936  18.954  0.00  0.00    -0.056 A 
ATOM     14  C   UNL     1      50.282  19.068  20.034  0.00  0.00    -0.035 A 
ATOM     15  C   UNL     1      50.970  16.101  20.779  0.00  0.00    -0.056 A 
ATOM     16  C   UNL     1      52.033  15.235  20.997  0.00  0.00    -0.048 A 
ATOM     17  C   UNL     1      52.457  14.376  19.998  0.00  0.00    +0.122 A 
ATOM     20  C   UNL     1      51.813  14.378  18.766  0.00  0.00    +0.064 A 
ATOM     23  C   UNL     1      50.724  15.193  18.575  0.00  0.00    +0.106 A 
ATOM     45  C   UNL     1      50.312  16.069  19.572  0.00  0.00    -0.100 A 
ATOM     46  C   UNL     1      49.151  16.988  19.289  0.00  0.00    +0.072 C 
ATOM     47  C   UNL     1      49.136  18.132  20.303  0.00  0.00    +0.227 C 
ENDROOT
BRANCH   7   8
ATOM      8  O   UNL     1      53.376  21.681  19.185  0.00  0.00    -0.485 OA
ATOM      9  H   UNL     1      53.901  21.931  19.956  0.00  0.00    +0.386 HD
ENDBRANCH   7   8
BRANCH  10  11
ATOM     11  O   UNL     1      51.114  21.658  17.605  0.00  0.00    -0.306 OA
ATOM     12  C   UNL     1      51.565  21.171  16.340  0.00  0.00    +0.237 C 
ENDBRANCH  10  11
BRANCH  17  18
ATOM     18  O   UNL     1      53.500  13.532  20.222  0.00  0.00    -0.302 OA
ATOM     19  C   UNL     1      54.814  14.086  20.131  0.00  0.00    +0.244 C 
ENDBRANCH  17  18
BRANCH  20  21
ATOM     21  O   UNL     1      52.225  13.537  17.778  0.00  0.00    -0.317 OA
ATOM     22  C   UNL     1      51.990  12.141  17.975  0.00  0.00    +0.229 C 
ENDBRANCH  20  21
BRANCH  23  24
ATOM     24  O   UNL     1      50.083  15.182  17.376  0.00  0.00    -0.250 OA
BRANCH  24  25
ATOM     25  C   UNL     1      49.037  14.329  17.219  0.00  0.00    +0.129 A 
ATOM     26  C   UNL     1      49.147  13.244  16.360  0.00  0.00    -0.055 A 
ATOM     27  C   UNL     1      48.081  12.380  16.209  0.00  0.00    +0.044 A 
ATOM     28  C   UNL     1      46.901  12.592  16.906  0.00  0.00    -0.107 A 
ATOM     29  C   UNL     1      46.788  13.672  17.757  0.00  0.00    -0.077 A 
ATOM     30  C   UNL     1      45.523  13.948  18.527  0.00  0.00    +0.231 C 
ATOM     40  N   UNL     1      44.674  12.753  18.568  0.00  0.00    -0.666 NA
ATOM     41  H   UNL     1      45.075  12.045  19.165  0.00  0.00    +0.342 HD
ATOM     42  C   UNL     1      44.459  12.234  17.208  0.00  0.00    +0.215 C 
ATOM     43  C   UNL     1      45.768  11.618  16.710  0.00  0.00    +0.038 C 
ATOM     44  C   UNL     1      47.860  14.536  17.919  0.00  0.00    -0.007 A 
BRANCH  30  31
ATOM     31  C   UNL     1      45.881  14.362  19.955  0.00  0.00    +0.085 C 
BRANCH  31  32
ATOM     32  C   UNL     1      45.201  15.666  20.286  0.00  0.00    -0.107 A 
ATOM     33  C   UNL     1      44.498  15.796  21.469  0.00  0.00    +0.047 A 
ATOM     34  C   UNL     1      43.873  16.989  21.776  0.00  0.00    -0.025 A 
ATOM     35  C   UNL     1      43.952  18.057  20.895  0.00  0.00    +0.122 A 
ATOM     38  C   UNL     1      44.658  17.925  19.708  0.00  0.00    -0.082 A 
ATOM     39  C   UNL     1      45.286  16.731  19.409  0.00  0.00    +0.067 A 
BRANCH  35  36
ATOM     36  O   UNL     1      43.337  19.233  21.193  0.00  0.00    -0.320 OA
ATOM     37  C   UNL     1      42.795  19.977  20.100  0.00  0.00    +0.237 C 
ENDBRANCH  35  36
ENDBRANCH  31  32
ENDBRANCH  30  31
ENDBRANCH  24  25
ENDBRANCH  23  24
TORSDOF 9
ENDMDL
MODEL 7
REMARK VINA RESULT:      -6.5      1.419      2.122
REMARK  Name = ZINC95486210
REMARK  14 active torsions:
REMARK  status: ('A' for Active; 'I' for Inactive)
REMARK    1  A    between atoms: C1_1  and  N1_2
REMARK    2  A    between atoms: C6_8  and  O6_48
REMARK    3  A    between atoms: C7_9  and  O5_46
REMARK    4  A    between atoms: C15_18  and  O4_44
REMARK    5  A    between atoms: C16_19  and  O3_42
REMARK    6  A    between atoms: C17_20  and  O1_21
REMARK    7  A    between atoms: O1_21  and  C18_22
REMARK    8  A    between atoms: C24_28  and  C27_33
REMARK    9  A    between atoms: C27_33  and  C28_34
REMARK   10  A    between atoms: C31_37  and  O2_40
REMARK   11  A    between atoms: O2_40  and  C34_41
REMARK   12  A    between atoms: O3_42  and  C35_43
REMARK   13  A    between atoms: O4_44  and  C36_45
REMARK   14  A    between atoms: O5_46  and  C37_47
REMARK                            x       y       z     vdW  Elec       q    Type
REMARK                         _______ _______ _______ _____ _____    ______ ____
ROOT
ATOM      1  C   UNL     1      51.546  13.830  21.558  0.00  0.00    +0.201 C 
ATOM      2  N   UNL     1      52.041  15.055  20.914  0.00  0.00    -0.514 NA
ATOM      3  C   UNL     1      52.215  14.857  19.471  0.00  0.00    +0.227 C 
ATOM      4  C   UNL     1      53.044  16.010  18.909  0.00  0.00    +0.111 C 
ATOM      5  C   UNL     1      52.453  17.327  19.345  0.00  0.00    -0.085 A 
ATOM      6  C   UNL     1      52.817  18.475  18.659  0.00  0.00    +0.028 A 
ATOM      7  C   UNL     1      52.300  19.704  19.027  0.00  0.00    +0.079 A 
ATOM     10  C   UNL     1      51.409  19.784  20.095  0.00  0.00    +0.107 A 
ATOM     13  C   UNL     1      51.050  18.635  20.775  0.00  0.00    -0.056 A 
ATOM     14  C   UNL     1      51.569  17.403  20.400  0.00  0.00    -0.035 A 
ATOM     15  C   UNL     1      50.887  14.815  18.766  0.00  0.00    -0.056 A 
ATOM     16  C   UNL     1      50.841  14.304  17.477  0.00  0.00    -0.048 A 
ATOM     17  C   UNL     1      49.643  14.246  16.785  0.00  0.00    +0.122 A 
ATOM     20  C   UNL     1      48.476  14.702  17.386  0.00  0.00    +0.064 A 
ATOM     23  C   UNL     1      48.515  15.152  18.684  0.00  0.00    +0.106 A 
ATOM     45  C   UNL     1      49.722  15.227  19.369  0.00  0.00    -0.100 A 
ATOM     46  C   UNL     1      49.720  15.787  20.769  0.00  0.00    +0.072 C 
ATOM     47  C   UNL     1      51.142  16.184  21.170  0.00  0.00    +0.227 C 
ENDROOT
BRANCH   7   8
ATOM      8  O   UNL     1      52.659  20.828  18.351  0.00  0.00    -0.485 OA
ATOM      9  H   UNL     1      52.389  20.832  17.423  0.00  0.00    +0.386 HD
ENDBRANCH   7   8
BRANCH  10  11
ATOM     11  O   UNL     1      50.896  20.986  20.467  0.00  0.00    -0.306 OA
ATOM     12  C   UNL     1      50.074  21.008  21.635  0.00  0.00    +0.237 C 
ENDBRANCH  10  11
BRANCH  17  18
ATOM     18  O   UNL     1      49.610  13.743  15.521  0.00  0.00    -0.302 OA
ATOM     19  C   UNL     1      50.788  13.085  15.054  0.00  0.00    +0.244 C 
ENDBRANCH  17  18
BRANCH  20  21
ATOM     21  O   UNL     1      47.294  14.650  16.711  0.00  0.00    -0.317 OA
ATOM     22  C   UNL     1      46.554  13.430  16.794  0.00  0.00    +0.229 C 
ENDBRANCH  20  21
BRANCH  23  24
ATOM     24  O   UNL     1      47.371  15.582  19.277  0.00  0.00    -0.250 OA
BRANCH  24  25
ATOM     25  C   UNL     1      47.225  16.916  19.491  0.00  0.00    +0.129 A 
ATOM     26  C   UNL     1      47.960  17.826  18.743  0.00  0.00    -0.055 A 
ATOM     27  C   UNL     1      47.804  19.178  18.964  0.00  0.00    +0.044 A 
ATOM     28  C   UNL     1      46.921  19.634  19.931  0.00  0.00    -0.107 A 
ATOM     29  C   UNL     1      46.192  18.733  20.678  0.00  0.00    -0.077 A 
ATOM     30  C   UNL     1      45.229  19.182  21.746  0.00  0.00    +0.231 C 
ATOM     40  N   UNL     1      44.889  20.598  21.571  0.00  0.00    -0.666 NA
ATOM     41  H   UNL     1      44.304  20.732  20.760  0.00  0.00    +0.342 HD
ATOM     42  C   UNL     1      46.115  21.408  21.477  0.00  0.00    +0.215 C 
ATOM     43  C   UNL     1      46.783  21.123  20.131  0.00  0.00    +0.038 C 
ATOM     44  C   UNL     1      46.339  17.374  20.452  0.00  0.00    -0.007 A 
BRANCH  30  31
ATOM     31  C   UNL     1      43.952  18.343  21.660  0.00  0.00    +0.085 C 
BRANCH  31  32
ATOM     32  C   UNL     1      42.991  18.988  20.695  0.00  0.00    -0.107 A 
ATOM     33  C   UNL     1      43.432  19.391  19.448  0.00  0.00    +0.047 A 
ATOM     34  C   UNL     1      42.554  19.983  18.562  0.00  0.00    -0.025 A 
ATOM     35  C   UNL     1      41.228  20.172  18.923  0.00  0.00    +0.122 A 
ATOM     38  C   UNL     1      40.787  19.766  20.174  0.00  0.00    -0.082 A 
ATOM     39  C   UNL     1      41.669  19.170  21.055  0.00  0.00    +0.067 A 
BRANCH  35  36
ATOM     36  O   UNL     1      40.361  20.754  18.053  0.00  0.00    -0.320 OA
ATOM     37  C   UNL     1      39.256  21.465  18.615  0.00  0.00    +0.237 C 
ENDBRANCH  35  36
ENDBRANCH  31  32
ENDBRANCH  30  31
ENDBRANCH  24  25
ENDBRANCH  23  24
TORSDOF 9
ENDMDL
MODEL 8
REMARK VINA RESULT:      -6.4      2.230      8.430
REMARK  Name = ZINC95486210
REMARK  14 active torsions:
REMARK  status: ('A' for Active; 'I' for Inactive)
REMARK    1  A    between atoms: C1_1  and  N1_2
REMARK    2  A    between atoms: C6_8  and  O6_48
REMARK    3  A    between atoms: C7_9  and  O5_46
REMARK    4  A    between atoms: C15_18  and  O4_44
REMARK    5  A    between atoms: C16_19  and  O3_42
REMARK    6  A    between atoms: C17_20  and  O1_21
REMARK    7  A    between atoms: O1_21  and  C18_22
REMARK    8  A    between atoms: C24_28  and  C27_33
REMARK    9  A    between atoms: C27_33  and  C28_34
REMARK   10  A    between atoms: C31_37  and  O2_40
REMARK   11  A    between atoms: O2_40  and  C34_41
REMARK   12  A    between atoms: O3_42  and  C35_43
REMARK   13  A    between atoms: O4_44  and  C36_45
REMARK   14  A    between atoms: O5_46  and  C37_47
REMARK                            x       y       z     vdW  Elec       q    Type
REMARK                         _______ _______ _______ _____ _____    ______ ____
ROOT
ATOM      1  C   UNL     1      47.419  16.523  22.137  0.00  0.00    +0.201 C 
ATOM      2  N   UNL     1      46.777  17.810  21.839  0.00  0.00    -0.514 NA
ATOM      3  C   UNL     1      47.779  18.846  21.564  0.00  0.00    +0.227 C 
ATOM      4  C   UNL     1      47.101  20.215  21.606  0.00  0.00    +0.111 C 
ATOM      5  C   UNL     1      45.876  20.207  20.727  0.00  0.00    -0.085 A 
ATOM      6  C   UNL     1      45.336  21.422  20.334  0.00  0.00    +0.028 A 
ATOM      7  C   UNL     1      44.212  21.461  19.529  0.00  0.00    +0.079 A 
ATOM     10  C   UNL     1      43.621  20.271  19.114  0.00  0.00    +0.107 A 
ATOM     13  C   UNL     1      44.164  19.062  19.509  0.00  0.00    -0.056 A 
ATOM     14  C   UNL     1      45.295  19.027  20.315  0.00  0.00    -0.035 A 
ATOM     15  C   UNL     1      48.405  18.647  20.211  0.00  0.00    -0.056 A 
ATOM     16  C   UNL     1      49.590  19.314  19.930  0.00  0.00    -0.048 A 
ATOM     17  C   UNL     1      50.205  19.166  18.699  0.00  0.00    +0.122 A 
ATOM     20  C   UNL     1      49.634  18.343  17.736  0.00  0.00    +0.064 A 
ATOM     23  C   UNL     1      48.494  17.639  18.039  0.00  0.00    +0.106 A 
ATOM     45  C   UNL     1      47.867  17.804  19.269  0.00  0.00    -0.100 A 
ATOM     46  C   UNL     1      46.584  17.057  19.529  0.00  0.00    +0.072 C 
ATOM     47  C   UNL     1      45.848  17.686  20.712  0.00  0.00    +0.227 C 
ENDROOT
BRANCH   7   8
ATOM      8  O   UNL     1      43.686  22.655  19.146  0.00  0.00    -0.485 OA
ATOM      9  H   UNL     1      43.168  23.096  19.832  0.00  0.00    +0.386 HD
ENDBRANCH   7   8
BRANCH  10  11
ATOM     11  O   UNL     1      42.515  20.296  18.325  0.00  0.00    -0.306 OA
ATOM     12  C   UNL     1      41.272  19.947  18.937  0.00  0.00    +0.237 C 
ENDBRANCH  10  11
BRANCH  17  18
ATOM     18  O   UNL     1      51.366  19.824  18.433  0.00  0.00    -0.302 OA
ATOM     19  C   UNL     1      51.343  21.249  18.539  0.00  0.00    +0.244 C 
ENDBRANCH  17  18
BRANCH  20  21
ATOM     21  O   UNL     1      50.232  18.194  16.521  0.00  0.00    -0.317 OA
ATOM     22  C   UNL     1      51.438  17.429  16.483  0.00  0.00    +0.229 C 
ENDBRANCH  20  21
BRANCH  23  24
ATOM     24  O   UNL     1      47.944  16.821  17.103  0.00  0.00    -0.250 OA
BRANCH  24  25
ATOM     25  C   UNL     1      48.083  15.479  17.268  0.00  0.00    +0.129 A 
ATOM     26  C   UNL     1      47.192  14.606  16.659  0.00  0.00    -0.055 A 
ATOM     27  C   UNL     1      47.342  13.245  16.828  0.00  0.00    +0.044 A 
ATOM     28  C   UNL     1      48.375  12.745  17.606  0.00  0.00    -0.107 A 
ATOM     29  C   UNL     1      49.260  13.609  18.217  0.00  0.00    -0.077 A 
ATOM     30  C   UNL     1      50.390  13.112  19.079  0.00  0.00    +0.231 C 
ATOM     40  N   UNL     1      50.644  11.689  18.824  0.00  0.00    -0.666 NA
ATOM     41  H   UNL     1      51.062  11.554  17.916  0.00  0.00    +0.342 HD
ATOM     42  C   UNL     1      49.397  10.919  18.951  0.00  0.00    +0.215 C 
ATOM     43  C   UNL     1      48.499  11.249  17.758  0.00  0.00    +0.038 C 
ATOM     44  C   UNL     1      49.118  14.977  18.040  0.00  0.00    -0.007 A 
BRANCH  30  31
ATOM     31  C   UNL     1      51.655  13.913  18.766  0.00  0.00    +0.085 C 
BRANCH  31  32
ATOM     32  C   UNL     1      51.801  15.031  19.767  0.00  0.00    -0.107 A 
ATOM     33  C   UNL     1      52.609  16.115  19.476  0.00  0.00    +0.047 A 
ATOM     34  C   UNL     1      52.745  17.141  20.391  0.00  0.00    -0.025 A 
ATOM     35  C   UNL     1      52.072  17.082  21.603  0.00  0.00    +0.122 A 
ATOM     38  C   UNL     1      51.262  15.993  21.892  0.00  0.00    -0.082 A 
ATOM     39  C   UNL     1      51.124  14.973  20.971  0.00  0.00    +0.067 A 
BRANCH  35  36
ATOM     36  O   UNL     1      52.205  18.090  22.505  0.00  0.00    -0.320 OA
ATOM     37  C   UNL     1      52.661  19.350  22.008  0.00  0.00    +0.237 C 
ENDBRANCH  35  36
ENDBRANCH  31  32
ENDBRANCH  30  31
ENDBRANCH  24  25
ENDBRANCH  23  24
TORSDOF 9
ENDMDL
MODEL 9
REMARK VINA RESULT:      -6.3      2.650      5.970
REMARK  Name = ZINC95486210
REMARK  14 active torsions:
REMARK  status: ('A' for Active; 'I' for Inactive)
REMARK    1  A    between atoms: C1_1  and  N1_2
REMARK    2  A    between atoms: C6_8  and  O6_48
REMARK    3  A    between atoms: C7_9  and  O5_46
REMARK    4  A    between atoms: C15_18  and  O4_44
REMARK    5  A    between atoms: C16_19  and  O3_42
REMARK    6  A    between atoms: C17_20  and  O1_21
REMARK    7  A    between atoms: O1_21  and  C18_22
REMARK    8  A    between atoms: C24_28  and  C27_33
REMARK    9  A    between atoms: C27_33  and  C28_34
REMARK   10  A    between atoms: C31_37  and  O2_40
REMARK   11  A    between atoms: O2_40  and  C34_41
REMARK   12  A    between atoms: O3_42  and  C35_43
REMARK   13  A    between atoms: O4_44  and  C36_45
REMARK   14  A    between atoms: O5_46  and  C37_47
REMARK                            x       y       z     vdW  Elec       q    Type
REMARK                         _______ _______ _______ _____ _____    ______ ____
ROOT
ATOM      1  C   UNL     1      47.199  12.675  16.018  0.00  0.00    +0.201 C 
ATOM      2  N   UNL     1      46.799  13.154  17.348  0.00  0.00    -0.514 NA
ATOM      3  C   UNL     1      47.783  12.765  18.364  0.00  0.00    +0.227 C 
ATOM      4  C   UNL     1      47.172  12.969  19.750  0.00  0.00    +0.111 C 
ATOM      5  C   UNL     1      46.601  14.360  19.858  0.00  0.00    -0.085 A 
ATOM      6  C   UNL     1      46.340  14.871  21.120  0.00  0.00    +0.028 A 
ATOM      7  C   UNL     1      45.814  16.142  21.266  0.00  0.00    +0.079 A 
ATOM     10  C   UNL     1      45.546  16.909  20.135  0.00  0.00    +0.107 A 
ATOM     13  C   UNL     1      45.810  16.394  18.879  0.00  0.00    -0.056 A 
ATOM     14  C   UNL     1      46.339  15.118  18.737  0.00  0.00    -0.035 A 
ATOM     15  C   UNL     1      49.034  13.591  18.251  0.00  0.00    -0.056 A 
ATOM     16  C   UNL     1      50.181  13.143  18.893  0.00  0.00    -0.048 A 
ATOM     17  C   UNL     1      51.357  13.868  18.821  0.00  0.00    +0.122 A 
ATOM     20  C   UNL     1      51.393  15.056  18.100  0.00  0.00    +0.064 A 
ATOM     23  C   UNL     1      50.273  15.465  17.417  0.00  0.00    +0.106 A 
ATOM     45  C   UNL     1      49.088  14.745  17.506  0.00  0.00    -0.100 A 
ATOM     46  C   UNL     1      47.871  15.272  16.789  0.00  0.00    +0.072 C 
ATOM     47  C   UNL     1      46.612  14.608  17.349  0.00  0.00    +0.227 C 
ENDROOT
BRANCH   7   8
ATOM      8  O   UNL     1      45.559  16.639  22.505  0.00  0.00    -0.485 OA
ATOM      9  H   UNL     1      44.626  16.833  22.667  0.00  0.00    +0.386 HD
ENDBRANCH   7   8
BRANCH  10  11
ATOM     11  O   UNL     1      45.028  18.159  20.265  0.00  0.00    -0.306 OA
ATOM     12  C   UNL     1      43.619  18.301  20.075  0.00  0.00    +0.237 C 
ENDBRANCH  10  11
BRANCH  17  18
ATOM     18  O   UNL     1      52.474  13.420  19.454  0.00  0.00    -0.302 OA
ATOM     19  C   UNL     1      53.221  12.391  18.801  0.00  0.00    +0.244 C 
ENDBRANCH  17  18
BRANCH  20  21
ATOM     21  O   UNL     1      52.546  15.776  18.025  0.00  0.00    -0.317 OA
ATOM     22  C   UNL     1      53.128  16.197  19.261  0.00  0.00    +0.229 C 
ENDBRANCH  20  21
BRANCH  23  24
ATOM     24  O   UNL     1      50.314  16.618  16.697  0.00  0.00    -0.250 OA
BRANCH  24  25
ATOM     25  C   UNL     1      50.618  17.769  17.352  0.00  0.00    +0.129 A 
ATOM     26  C   UNL     1      51.347  18.762  16.712  0.00  0.00    -0.055 A 
ATOM     27  C   UNL     1      51.650  19.929  17.383  0.00  0.00    +0.044 A 
ATOM     28  C   UNL     1      51.232  20.114  18.693  0.00  0.00    -0.107 A 
ATOM     29  C   UNL     1      50.511  19.128  19.332  0.00  0.00    -0.077 A 
ATOM     30  C   UNL     1      50.046  19.280  20.756  0.00  0.00    +0.231 C 
ATOM     40  N   UNL     1      50.089  20.688  21.164  0.00  0.00    -0.666 NA
ATOM     41  H   UNL     1      49.368  21.221  20.702  0.00  0.00    +0.342 HD
ATOM     42  C   UNL     1      51.420  21.256  20.894  0.00  0.00    +0.215 C 
ATOM     43  C   UNL     1      51.584  21.409  19.381  0.00  0.00    +0.038 C 
ATOM     44  C   UNL     1      50.197  17.958  18.658  0.00  0.00    -0.007 A 
BRANCH  30  31
ATOM     31  C   UNL     1      48.611  18.764  20.878  0.00  0.00    +0.085 C 
BRANCH  31  32
ATOM     32  C   UNL     1      47.650  19.849  20.467  0.00  0.00    -0.107 A 
ATOM     33  C   UNL     1      47.049  20.639  21.429  0.00  0.00    +0.047 A 
ATOM     34  C   UNL     1      46.168  21.635  21.056  0.00  0.00    -0.025 A 
ATOM     35  C   UNL     1      45.885  21.842  19.714  0.00  0.00    +0.122 A 
ATOM     38  C   UNL     1      46.489  21.048  18.749  0.00  0.00    -0.082 A 
ATOM     39  C   UNL     1      47.374  20.058  19.128  0.00  0.00    +0.067 A 
BRANCH  35  36
ATOM     36  O   UNL     1      45.018  22.821  19.343  0.00  0.00    -0.320 OA
ATOM     37  C   UNL     1      43.652  22.659  19.734  0.00  0.00    +0.237 C 
ENDBRANCH  35  36
ENDBRANCH  31  32
ENDBRANCH  30  31
ENDBRANCH  24  25
ENDBRANCH  23  24
TORSDOF 9
ENDMDL
