MODEL 1
REMARK VINA RESULT:      -5.2      0.000      0.000
REMARK  Name = ZINC95486059
REMARK  8 active torsions:
REMARK  status: ('A' for Active; 'I' for Inactive)
REMARK    1  A    between atoms: C1_1  and  C2_2
REMARK    2  A    between atoms: C4_4  and  O4_19
REMARK    3  A    between atoms: C5_5  and  C11_13
REMARK    4  A    between atoms: C12_14  and  C13_15
REMARK    5  A    between atoms: C13_15  and  C14_16
REMARK    6  A    between atoms: C13_15  and  C15_17
REMARK    7  A    between atoms: C13_15  and  O3_18
REMARK    8  A    between atoms: O4_19  and  C16_20
REMARK                            x       y       z     vdW  Elec       q    Type
REMARK                         _______ _______ _______ _____ _____    ______ ____
ROOT
ATOM      1  C   UNL     1      42.772  20.401  19.047  0.00  0.00    +0.114 C 
ATOM      2  C   UNL     1      44.273  20.274  19.092  0.00  0.00    +0.022 A 
ATOM      3  C   UNL     1      44.897  19.298  18.369  0.00  0.00    -0.086 A 
ATOM      4  C   UNL     1      46.282  19.168  18.400  0.00  0.00    +0.197 A 
ATOM      7  C   UNL     1      47.056  20.040  19.174  0.00  0.00    -0.113 A 
ATOM     15  C   UNL     1      46.427  21.044  19.918  0.00  0.00    +0.198 A 
ATOM     16  O   UNL     1      47.149  21.898  20.673  0.00  0.00    -0.264 OA
ATOM     17  C   UNL     1      46.561  22.876  21.380  0.00  0.00    +0.509 A 
ATOM     18  O   UNL     1      47.254  23.626  22.044  0.00  0.00    -0.460 OA
ATOM     19  C   UNL     1      45.163  23.049  21.383  0.00  0.00    -0.092 A 
ATOM     20  C   UNL     1      44.378  22.220  20.648  0.00  0.00    +0.164 A 
ATOM     21  C   UNL     1      45.028  21.162  19.870  0.00  0.00    -0.199 A 
ENDROOT
BRANCH   4   5
ATOM      5  O   UNL     1      46.884  18.192  17.676  0.00  0.00    -0.296 OA
ATOM      6  C   UNL     1      46.239  16.917  17.642  0.00  0.00    +0.251 C 
ENDBRANCH   4   5
BRANCH   7   8
ATOM      8  C   UNL     1      48.525  19.900  19.206  0.00  0.00    +0.026 C 
ATOM      9  C   UNL     1      49.279  20.622  18.387  0.00  0.00    -0.034 C 
BRANCH   9  10
ATOM     10  C   UNL     1      50.779  20.478  18.420  0.00  0.00    +0.157 C 
ATOM     13  C   UNL     1      51.326  21.143  19.684  0.00  0.00    +0.067 C 
ATOM     14  C   UNL     1      51.383  21.152  17.187  0.00  0.00    +0.020 C 
BRANCH  10  11
ATOM     11  O   UNL     1      51.125  19.092  18.424  0.00  0.00    -0.557 OA
ATOM     12  H   UNL     1      51.968  18.899  18.858  0.00  0.00    +0.378 HD
ENDBRANCH  10  11
ENDBRANCH   9  10
ENDBRANCH   7   8
TORSDOF 4
ENDMDL
MODEL 2
REMARK VINA RESULT:      -5.1      2.014      4.474
REMARK  Name = ZINC95486059
REMARK  8 active torsions:
REMARK  status: ('A' for Active; 'I' for Inactive)
REMARK    1  A    between atoms: C1_1  and  C2_2
REMARK    2  A    between atoms: C4_4  and  O4_19
REMARK    3  A    between atoms: C5_5  and  C11_13
REMARK    4  A    between atoms: C12_14  and  C13_15
REMARK    5  A    between atoms: C13_15  and  C14_16
REMARK    6  A    between atoms: C13_15  and  C15_17
REMARK    7  A    between atoms: C13_15  and  O3_18
REMARK    8  A    between atoms: O4_19  and  C16_20
REMARK                            x       y       z     vdW  Elec       q    Type
REMARK                         _______ _______ _______ _____ _____    ______ ____
ROOT
ATOM      1  C   UNL     1      45.457  23.726  20.937  0.00  0.00    +0.114 C 
ATOM      2  C   UNL     1      45.584  22.325  20.395  0.00  0.00    +0.022 A 
ATOM      3  C   UNL     1      46.773  21.661  20.498  0.00  0.00    -0.086 A 
ATOM      4  C   UNL     1      46.906  20.367  20.003  0.00  0.00    +0.197 A 
ATOM      7  C   UNL     1      45.821  19.729  19.393  0.00  0.00    -0.113 A 
ATOM     15  C   UNL     1      44.599  20.401  19.283  0.00  0.00    +0.198 A 
ATOM     16  O   UNL     1      43.537  19.809  18.699  0.00  0.00    -0.264 OA
ATOM     17  C   UNL     1      42.353  20.435  18.599  0.00  0.00    +0.509 A 
ATOM     18  O   UNL     1      41.420  19.860  18.068  0.00  0.00    -0.460 OA
ATOM     19  C   UNL     1      42.166  21.745  19.084  0.00  0.00    -0.092 A 
ATOM     20  C   UNL     1      43.198  22.399  19.679  0.00  0.00    +0.164 A 
ATOM     21  C   UNL     1      44.482  21.705  19.793  0.00  0.00    -0.199 A 
ENDROOT
BRANCH   4   5
ATOM      5  O   UNL     1      48.094  19.722  20.113  0.00  0.00    -0.296 OA
ATOM      6  C   UNL     1      49.246  20.389  19.592  0.00  0.00    +0.251 C 
ENDBRANCH   4   5
BRANCH   7   8
ATOM      8  C   UNL     1      45.966  18.356  18.868  0.00  0.00    +0.026 C 
ATOM      9  C   UNL     1      46.763  18.122  17.834  0.00  0.00    -0.034 C 
BRANCH   9  10
ATOM     10  C   UNL     1      46.910  16.721  17.298  0.00  0.00    +0.157 C 
ATOM     13  C   UNL     1      46.189  15.743  18.227  0.00  0.00    +0.067 C 
ATOM     14  C   UNL     1      48.393  16.356  17.224  0.00  0.00    +0.020 C 
BRANCH  10  11
ATOM     11  O   UNL     1      46.335  16.647  15.992  0.00  0.00    -0.557 OA
ATOM     12  H   UNL     1      45.371  16.565  15.991  0.00  0.00    +0.378 HD
ENDBRANCH  10  11
ENDBRANCH   9  10
ENDBRANCH   7   8
TORSDOF 4
ENDMDL
MODEL 3
REMARK VINA RESULT:      -5.1      1.971      5.167
REMARK  Name = ZINC95486059
REMARK  8 active torsions:
REMARK  status: ('A' for Active; 'I' for Inactive)
REMARK    1  A    between atoms: C1_1  and  C2_2
REMARK    2  A    between atoms: C4_4  and  O4_19
REMARK    3  A    between atoms: C5_5  and  C11_13
REMARK    4  A    between atoms: C12_14  and  C13_15
REMARK    5  A    between atoms: C13_15  and  C14_16
REMARK    6  A    between atoms: C13_15  and  C15_17
REMARK    7  A    between atoms: C13_15  and  O3_18
REMARK    8  A    between atoms: O4_19  and  C16_20
REMARK                            x       y       z     vdW  Elec       q    Type
REMARK                         _______ _______ _______ _____ _____    ______ ____
ROOT
ATOM      1  C   UNL     1      47.198  16.053  17.665  0.00  0.00    +0.114 C 
ATOM      2  C   UNL     1      46.812  17.374  18.280  0.00  0.00    +0.022 A 
ATOM      3  C   UNL     1      45.522  17.594  18.668  0.00  0.00    -0.086 A 
ATOM      4  C   UNL     1      45.151  18.809  19.237  0.00  0.00    +0.197 A 
ATOM      7  C   UNL     1      46.097  19.822  19.420  0.00  0.00    -0.113 A 
ATOM     15  C   UNL     1      47.423  19.607  19.025  0.00  0.00    +0.198 A 
ATOM     16  O   UNL     1      48.356  20.567  19.190  0.00  0.00    -0.264 OA
ATOM     17  C   UNL     1      49.634  20.370  18.830  0.00  0.00    +0.509 A 
ATOM     18  O   UNL     1      50.444  21.264  19.002  0.00  0.00    -0.460 OA
ATOM     19  C   UNL     1      50.061  19.159  18.249  0.00  0.00    -0.092 A 
ATOM     20  C   UNL     1      49.170  18.153  18.052  0.00  0.00    +0.164 A 
ATOM     21  C   UNL     1      47.780  18.372  18.457  0.00  0.00    -0.199 A 
ENDROOT
BRANCH   4   5
ATOM      5  O   UNL     1      43.864  19.010  19.617  0.00  0.00    -0.296 OA
ATOM      6  C   UNL     1      43.443  18.397  20.837  0.00  0.00    +0.251 C 
ENDBRANCH   4   5
BRANCH   7   8
ATOM      8  C   UNL     1      45.701  21.110  20.023  0.00  0.00    +0.026 C 
ATOM      9  C   UNL     1      45.086  22.026  19.287  0.00  0.00    -0.034 C 
BRANCH   9  10
ATOM     10  C   UNL     1      44.682  23.341  19.903  0.00  0.00    +0.157 C 
ATOM     13  C   UNL     1      44.641  24.420  18.819  0.00  0.00    +0.067 C 
ATOM     14  C   UNL     1      45.697  23.735  20.977  0.00  0.00    +0.020 C 
BRANCH  10  11
ATOM     11  O   UNL     1      43.388  23.212  20.495  0.00  0.00    -0.557 OA
ATOM     12  H   UNL     1      43.115  22.297  20.647  0.00  0.00    +0.378 HD
ENDBRANCH  10  11
ENDBRANCH   9  10
ENDBRANCH   7   8
TORSDOF 4
ENDMDL
MODEL 4
REMARK VINA RESULT:      -5.0      2.062      5.639
REMARK  Name = ZINC95486059
REMARK  8 active torsions:
REMARK  status: ('A' for Active; 'I' for Inactive)
REMARK    1  A    between atoms: C1_1  and  C2_2
REMARK    2  A    between atoms: C4_4  and  O4_19
REMARK    3  A    between atoms: C5_5  and  C11_13
REMARK    4  A    between atoms: C12_14  and  C13_15
REMARK    5  A    between atoms: C13_15  and  C14_16
REMARK    6  A    between atoms: C13_15  and  C15_17
REMARK    7  A    between atoms: C13_15  and  O3_18
REMARK    8  A    between atoms: O4_19  and  C16_20
REMARK                            x       y       z     vdW  Elec       q    Type
REMARK                         _______ _______ _______ _____ _____    ______ ____
ROOT
ATOM      1  C   UNL     1      51.644  16.842  16.392  0.00  0.00    +0.114 C 
ATOM      2  C   UNL     1      50.621  17.602  17.195  0.00  0.00    +0.022 A 
ATOM      3  C   UNL     1      49.333  17.152  17.260  0.00  0.00    -0.086 A 
ATOM      4  C   UNL     1      48.377  17.843  17.998  0.00  0.00    +0.197 A 
ATOM      7  C   UNL     1      48.724  19.010  18.686  0.00  0.00    -0.113 A 
ATOM     15  C   UNL     1      50.041  19.480  18.627  0.00  0.00    +0.198 A 
ATOM     16  O   UNL     1      50.403  20.603  19.281  0.00  0.00    -0.264 OA
ATOM     17  C   UNL     1      51.665  21.057  19.247  0.00  0.00    +0.509 A 
ATOM     18  O   UNL     1      51.947  22.074  19.857  0.00  0.00    -0.460 OA
ATOM     19  C   UNL     1      52.671  20.395  18.514  0.00  0.00    -0.092 A 
ATOM     20  C   UNL     1      52.371  19.261  17.829  0.00  0.00    +0.164 A 
ATOM     21  C   UNL     1      50.993  18.766  17.881  0.00  0.00    -0.199 A 
ENDROOT
BRANCH   4   5
ATOM      5  O   UNL     1      47.103  17.382  18.050  0.00  0.00    -0.296 OA
ATOM      6  C   UNL     1      46.632  16.646  16.919  0.00  0.00    +0.251 C 
ENDBRANCH   4   5
BRANCH   7   8
ATOM      8  C   UNL     1      47.708  19.742  19.468  0.00  0.00    +0.026 C 
ATOM      9  C   UNL     1      46.882  20.584  18.860  0.00  0.00    -0.034 C 
BRANCH   9  10
ATOM     10  C   UNL     1      45.845  21.331  19.659  0.00  0.00    +0.157 C 
ATOM     13  C   UNL     1      46.528  22.084  20.802  0.00  0.00    +0.067 C 
ATOM     14  C   UNL     1      44.833  20.339  20.234  0.00  0.00    +0.020 C 
BRANCH  10  11
ATOM     11  O   UNL     1      45.170  22.263  18.811  0.00  0.00    -0.557 OA
ATOM     12  H   UNL     1      45.131  23.161  19.168  0.00  0.00    +0.378 HD
ENDBRANCH  10  11
ENDBRANCH   9  10
ENDBRANCH   7   8
TORSDOF 4
ENDMDL
MODEL 5
REMARK VINA RESULT:      -4.8      3.023      5.474
REMARK  Name = ZINC95486059
REMARK  8 active torsions:
REMARK  status: ('A' for Active; 'I' for Inactive)
REMARK    1  A    between atoms: C1_1  and  C2_2
REMARK    2  A    between atoms: C4_4  and  O4_19
REMARK    3  A    between atoms: C5_5  and  C11_13
REMARK    4  A    between atoms: C12_14  and  C13_15
REMARK    5  A    between atoms: C13_15  and  C14_16
REMARK    6  A    between atoms: C13_15  and  C15_17
REMARK    7  A    between atoms: C13_15  and  O3_18
REMARK    8  A    between atoms: O4_19  and  C16_20
REMARK                            x       y       z     vdW  Elec       q    Type
REMARK                         _______ _______ _______ _____ _____    ______ ____
ROOT
ATOM      1  C   UNL     1      44.367  24.470  19.168  0.00  0.00    +0.114 C 
ATOM      2  C   UNL     1      44.457  23.063  19.701  0.00  0.00    +0.022 A 
ATOM      3  C   UNL     1      45.580  22.655  20.361  0.00  0.00    -0.086 A 
ATOM      4  C   UNL     1      45.678  21.360  20.859  0.00  0.00    +0.197 A 
ATOM      7  C   UNL     1      44.623  20.456  20.691  0.00  0.00    -0.113 A 
ATOM     15  C   UNL     1      43.467  20.864  20.016  0.00  0.00    +0.198 A 
ATOM     16  O   UNL     1      42.436  20.014  19.839  0.00  0.00    -0.264 OA
ATOM     17  C   UNL     1      41.314  20.395  19.208  0.00  0.00    +0.509 A 
ATOM     18  O   UNL     1      40.406  19.594  19.075  0.00  0.00    -0.460 OA
ATOM     19  C   UNL     1      41.165  21.695  18.684  0.00  0.00    -0.092 A 
ATOM     20  C   UNL     1      42.170  22.599  18.824  0.00  0.00    +0.164 A 
ATOM     21  C   UNL     1      43.385  22.178  19.524  0.00  0.00    -0.199 A 
ENDROOT
BRANCH   4   5
ATOM      5  O   UNL     1      46.802  20.971  21.512  0.00  0.00    -0.296 OA
ATOM      6  C   UNL     1      48.043  21.133  20.821  0.00  0.00    +0.251 C 
ENDBRANCH   4   5
BRANCH   7   8
ATOM      8  C   UNL     1      44.730  19.082  21.220  0.00  0.00    +0.026 C 
ATOM      9  C   UNL     1      44.971  18.071  20.396  0.00  0.00    -0.034 C 
BRANCH   9  10
ATOM     10  C   UNL     1      45.080  16.668  20.936  0.00  0.00    +0.157 C 
ATOM     13  C   UNL     1      43.981  16.437  21.976  0.00  0.00    +0.067 C 
ATOM     14  C   UNL     1      46.449  16.478  21.591  0.00  0.00    +0.020 C 
BRANCH  10  11
ATOM     11  O   UNL     1      44.928  15.732  19.868  0.00  0.00    -0.557 OA
ATOM     12  H   UNL     1      45.683  15.137  19.756  0.00  0.00    +0.378 HD
ENDBRANCH  10  11
ENDBRANCH   9  10
ENDBRANCH   7   8
TORSDOF 4
ENDMDL
MODEL 6
REMARK VINA RESULT:      -4.8      1.978      6.377
REMARK  Name = ZINC95486059
REMARK  8 active torsions:
REMARK  status: ('A' for Active; 'I' for Inactive)
REMARK    1  A    between atoms: C1_1  and  C2_2
REMARK    2  A    between atoms: C4_4  and  O4_19
REMARK    3  A    between atoms: C5_5  and  C11_13
REMARK    4  A    between atoms: C12_14  and  C13_15
REMARK    5  A    between atoms: C13_15  and  C14_16
REMARK    6  A    between atoms: C13_15  and  C15_17
REMARK    7  A    between atoms: C13_15  and  O3_18
REMARK    8  A    between atoms: O4_19  and  C16_20
REMARK                            x       y       z     vdW  Elec       q    Type
REMARK                         _______ _______ _______ _____ _____    ______ ____
ROOT
ATOM      1  C   UNL     1      52.349  21.599  21.376  0.00  0.00    +0.114 C 
ATOM      2  C   UNL     1      51.103  21.047  20.732  0.00  0.00    +0.022 A 
ATOM      3  C   UNL     1      49.895  21.189  21.352  0.00  0.00    -0.086 A 
ATOM      4  C   UNL     1      48.736  20.686  20.770  0.00  0.00    +0.197 A 
ATOM      7  C   UNL     1      48.794  20.027  19.537  0.00  0.00    -0.113 A 
ATOM     15  C   UNL     1      50.027  19.876  18.893  0.00  0.00    +0.198 A 
ATOM     16  O   UNL     1      50.111  19.245  17.704  0.00  0.00    -0.264 OA
ATOM     17  C   UNL     1      51.284  19.106  17.066  0.00  0.00    +0.509 A 
ATOM     18  O   UNL     1      51.312  18.533  15.991  0.00  0.00    -0.460 OA
ATOM     19  C   UNL     1      52.487  19.597  17.613  0.00  0.00    -0.092 A 
ATOM     20  C   UNL     1      52.471  20.239  18.810  0.00  0.00    +0.164 A 
ATOM     21  C   UNL     1      51.186  20.396  19.494  0.00  0.00    -0.199 A 
ENDROOT
BRANCH   4   5
ATOM      5  O   UNL     1      47.545  20.835  21.400  0.00  0.00    -0.296 OA
ATOM      6  C   UNL     1      47.036  22.165  21.520  0.00  0.00    +0.251 C 
ENDBRANCH   4   5
BRANCH   7   8
ATOM      8  C   UNL     1      47.563  19.493  18.921  0.00  0.00    +0.026 C 
ATOM      9  C   UNL     1      47.198  18.237  19.149  0.00  0.00    -0.034 C 
BRANCH   9  10
ATOM     10  C   UNL     1      45.941  17.693  18.520  0.00  0.00    +0.157 C 
ATOM     13  C   UNL     1      44.994  17.203  19.617  0.00  0.00    +0.067 C 
ATOM     14  C   UNL     1      46.297  16.527  17.595  0.00  0.00    +0.020 C 
BRANCH  10  11
ATOM     11  O   UNL     1      45.301  18.723  17.764  0.00  0.00    -0.557 OA
ATOM     12  H   UNL     1      45.754  19.577  17.801  0.00  0.00    +0.378 HD
ENDBRANCH  10  11
ENDBRANCH   9  10
ENDBRANCH   7   8
TORSDOF 4
ENDMDL
MODEL 7
REMARK VINA RESULT:      -4.8      3.429      4.824
REMARK  Name = ZINC95486059
REMARK  8 active torsions:
REMARK  status: ('A' for Active; 'I' for Inactive)
REMARK    1  A    between atoms: C1_1  and  C2_2
REMARK    2  A    between atoms: C4_4  and  O4_19
REMARK    3  A    between atoms: C5_5  and  C11_13
REMARK    4  A    between atoms: C12_14  and  C13_15
REMARK    5  A    between atoms: C13_15  and  C14_16
REMARK    6  A    between atoms: C13_15  and  C15_17
REMARK    7  A    between atoms: C13_15  and  O3_18
REMARK    8  A    between atoms: O4_19  and  C16_20
REMARK                            x       y       z     vdW  Elec       q    Type
REMARK                         _______ _______ _______ _____ _____    ______ ____
ROOT
ATOM      1  C   UNL     1      43.163  24.124  18.961  0.00  0.00    +0.114 C 
ATOM      2  C   UNL     1      43.365  22.722  19.477  0.00  0.00    +0.022 A 
ATOM      3  C   UNL     1      42.461  21.746  19.171  0.00  0.00    -0.086 A 
ATOM      4  C   UNL     1      42.634  20.448  19.639  0.00  0.00    +0.197 A 
ATOM      7  C   UNL     1      43.741  20.124  20.432  0.00  0.00    -0.113 A 
ATOM     15  C   UNL     1      44.673  21.117  20.752  0.00  0.00    +0.198 A 
ATOM     16  O   UNL     1      45.749  20.833  21.514  0.00  0.00    -0.264 OA
ATOM     17  C   UNL     1      46.660  21.771  21.817  0.00  0.00    +0.509 A 
ATOM     18  O   UNL     1      47.619  21.467  22.505  0.00  0.00    -0.460 OA
ATOM     19  C   UNL     1      46.531  23.101  21.368  0.00  0.00    -0.092 A 
ATOM     20  C   UNL     1      45.468  23.454  20.600  0.00  0.00    +0.164 A 
ATOM     21  C   UNL     1      44.484  22.422  20.265  0.00  0.00    -0.199 A 
ENDROOT
BRANCH   4   5
ATOM      5  O   UNL     1      41.726  19.491  19.325  0.00  0.00    -0.296 OA
ATOM      6  C   UNL     1      40.788  19.799  18.291  0.00  0.00    +0.251 C 
ENDBRANCH   4   5
BRANCH   7   8
ATOM      8  C   UNL     1      43.922  18.746  20.928  0.00  0.00    +0.026 C 
ATOM      9  C   UNL     1      44.830  17.954  20.372  0.00  0.00    -0.034 C 
BRANCH   9  10
ATOM     10  C   UNL     1      45.014  16.546  20.880  0.00  0.00    +0.157 C 
ATOM     13  C   UNL     1      44.017  16.278  22.008  0.00  0.00    +0.067 C 
ATOM     14  C   UNL     1      46.440  16.377  21.408  0.00  0.00    +0.020 C 
BRANCH  10  11
ATOM     11  O   UNL     1      44.787  15.622  19.815  0.00  0.00    -0.557 OA
ATOM     12  H   UNL     1      43.907  15.220  19.824  0.00  0.00    +0.378 HD
ENDBRANCH  10  11
ENDBRANCH   9  10
ENDBRANCH   7   8
TORSDOF 4
ENDMDL
MODEL 8
REMARK VINA RESULT:      -4.7      2.616      5.370
REMARK  Name = ZINC95486059
REMARK  8 active torsions:
REMARK  status: ('A' for Active; 'I' for Inactive)
REMARK    1  A    between atoms: C1_1  and  C2_2
REMARK    2  A    between atoms: C4_4  and  O4_19
REMARK    3  A    between atoms: C5_5  and  C11_13
REMARK    4  A    between atoms: C12_14  and  C13_15
REMARK    5  A    between atoms: C13_15  and  C14_16
REMARK    6  A    between atoms: C13_15  and  C15_17
REMARK    7  A    between atoms: C13_15  and  O3_18
REMARK    8  A    between atoms: O4_19  and  C16_20
REMARK                            x       y       z     vdW  Elec       q    Type
REMARK                         _______ _______ _______ _____ _____    ______ ____
ROOT
ATOM      1  C   UNL     1      46.661  21.478  20.212  0.00  0.00    +0.114 C 
ATOM      2  C   UNL     1      46.914  20.084  19.699  0.00  0.00    +0.022 A 
ATOM      3  C   UNL     1      45.943  19.130  19.809  0.00  0.00    -0.086 A 
ATOM      4  C   UNL     1      46.161  17.839  19.340  0.00  0.00    +0.197 A 
ATOM      7  C   UNL     1      47.381  17.500  18.746  0.00  0.00    -0.113 A 
ATOM     15  C   UNL     1      48.383  18.469  18.628  0.00  0.00    +0.198 A 
ATOM     16  O   UNL     1      49.569  18.170  18.060  0.00  0.00    -0.264 OA
ATOM     17  C   UNL     1      50.535  19.093  17.925  0.00  0.00    +0.509 A 
ATOM     18  O   UNL     1      51.589  18.778  17.401  0.00  0.00    -0.460 OA
ATOM     19  C   UNL     1      50.364  20.414  18.384  0.00  0.00    -0.092 A 
ATOM     20  C   UNL     1      49.194  20.780  18.970  0.00  0.00    +0.164 A 
ATOM     21  C   UNL     1      48.143  19.770  19.103  0.00  0.00    -0.199 A 
ENDROOT
BRANCH   4   5
ATOM      5  O   UNL     1      45.185  16.904  19.459  0.00  0.00    -0.296 OA
ATOM      6  C   UNL     1      44.654  16.682  20.767  0.00  0.00    +0.251 C 
ENDBRANCH   4   5
BRANCH   7   8
ATOM      8  C   UNL     1      47.611  16.128  18.250  0.00  0.00    +0.026 C 
ATOM      9  C   UNL     1      47.206  15.786  17.033  0.00  0.00    -0.034 C 
BRANCH   9  10
ATOM     10  C   UNL     1      47.440  14.386  16.527  0.00  0.00    +0.157 C 
ATOM     13  C   UNL     1      46.742  13.387  17.451  0.00  0.00    +0.067 C 
ATOM     14  C   UNL     1      48.942  14.097  16.505  0.00  0.00    +0.020 C 
BRANCH  10  11
ATOM     11  O   UNL     1      46.911  14.261  15.206  0.00  0.00    -0.557 OA
ATOM     12  H   UNL     1      47.456  13.725  14.613  0.00  0.00    +0.378 HD
ENDBRANCH  10  11
ENDBRANCH   9  10
ENDBRANCH   7   8
TORSDOF 4
ENDMDL
MODEL 9
REMARK VINA RESULT:      -4.7      1.724      4.592
REMARK  Name = ZINC95486059
REMARK  8 active torsions:
REMARK  status: ('A' for Active; 'I' for Inactive)
REMARK    1  A    between atoms: C1_1  and  C2_2
REMARK    2  A    between atoms: C4_4  and  O4_19
REMARK    3  A    between atoms: C5_5  and  C11_13
REMARK    4  A    between atoms: C12_14  and  C13_15
REMARK    5  A    between atoms: C13_15  and  C14_16
REMARK    6  A    between atoms: C13_15  and  C15_17
REMARK    7  A    between atoms: C13_15  and  O3_18
REMARK    8  A    between atoms: O4_19  and  C16_20
REMARK                            x       y       z     vdW  Elec       q    Type
REMARK                         _______ _______ _______ _____ _____    ______ ____
ROOT
ATOM      1  C   UNL     1      44.147  18.689  19.893  0.00  0.00    +0.114 C 
ATOM      2  C   UNL     1      45.619  18.954  19.707  0.00  0.00    +0.022 A 
ATOM      3  C   UNL     1      46.184  20.070  20.255  0.00  0.00    -0.086 A 
ATOM      4  C   UNL     1      47.542  20.329  20.092  0.00  0.00    +0.197 A 
ATOM      7  C   UNL     1      48.347  19.447  19.363  0.00  0.00    -0.113 A 
ATOM     15  C   UNL     1      47.777  18.301  18.797  0.00  0.00    +0.198 A 
ATOM     16  O   UNL     1      48.529  17.434  18.089  0.00  0.00    -0.264 OA
ATOM     17  C   UNL     1      48.001  16.323  17.553  0.00  0.00    +0.509 A 
ATOM     18  O   UNL     1      48.720  15.566  16.925  0.00  0.00    -0.460 OA
ATOM     19  C   UNL     1      46.632  16.015  17.688  0.00  0.00    -0.092 A 
ATOM     20  C   UNL     1      45.818  16.849  18.386  0.00  0.00    +0.164 A 
ATOM     21  C   UNL     1      46.405  18.054  18.976  0.00  0.00    -0.199 A 
ENDROOT
BRANCH   4   5
ATOM      5  O   UNL     1      48.087  21.441  20.643  0.00  0.00    -0.296 OA
ATOM      6  C   UNL     1      47.339  22.088  21.675  0.00  0.00    +0.251 C 
ENDBRANCH   4   5
BRANCH   7   8
ATOM      8  C   UNL     1      49.786  19.724  19.191  0.00  0.00    +0.026 C 
ATOM      9  C   UNL     1      50.215  20.359  18.107  0.00  0.00    -0.034 C 
BRANCH   9  10
ATOM     10  C   UNL     1      51.685  20.642  17.932  0.00  0.00    +0.157 C 
ATOM     13  C   UNL     1      51.958  21.036  16.479  0.00  0.00    +0.067 C 
ATOM     14  C   UNL     1      52.491  19.390  18.281  0.00  0.00    +0.020 C 
BRANCH  10  11
ATOM     11  O   UNL     1      52.071  21.714  18.795  0.00  0.00    -0.557 OA
ATOM     12  H   UNL     1      52.055  22.584  18.373  0.00  0.00    +0.378 HD
ENDBRANCH  10  11
ENDBRANCH   9  10
ENDBRANCH   7   8
TORSDOF 4
ENDMDL
