MODEL 1
REMARK VINA RESULT:      -6.5      0.000      0.000
REMARK  Name = ZINC85996205
REMARK  3 active torsions:
REMARK  status: ('A' for Active; 'I' for Inactive)
REMARK    1  A    between atoms: C1_1  and  C2_2
REMARK    2  A    between atoms: C2_2  and  C21_29
REMARK    3  A    between atoms: C9_9  and  O2_12
REMARK                            x       y       z     vdW  Elec       q    Type
REMARK                         _______ _______ _______ _____ _____    ______ ____
ROOT
ATOM      1  C   UNL     1      39.929  20.990  19.444  0.00  0.00    +0.084 C 
ATOM      2  C   UNL     1      41.351  20.462  19.244  0.00  0.00    +0.143 C 
ATOM      3  C   UNL     1      41.527  20.026  17.788  0.00  0.00    +0.034 C 
ATOM      4  C   UNL     1      41.571  19.277  20.145  0.00  0.00    -0.054 C 
ATOM      5  C   UNL     1      42.791  19.000  20.599  0.00  0.00    +0.058 C 
ATOM      6  C   UNL     1      43.900  19.901  20.225  0.00  0.00    -0.145 A 
ATOM      7  C   UNL     1      45.231  19.528  20.417  0.00  0.00    +0.183 A 
ATOM      8  C   UNL     1      46.235  20.417  20.012  0.00  0.00    -0.173 A 
ATOM      9  C   UNL     1      47.626  19.902  20.191  0.00  0.00    +0.232 C 
ATOM     10  C   UNL     1      47.529  18.433  19.652  0.00  0.00    -0.010 C 
ATOM     11  C   UNL     1      48.967  18.144  19.421  0.00  0.00    -0.148 A 
ATOM     12  C   UNL     1      49.670  16.951  19.382  0.00  0.00    +0.117 A 
ATOM     13  C   UNL     1      51.034  17.080  19.119  0.00  0.00    +0.007 A 
ATOM     14  C   UNL     1      51.644  18.325  18.912  0.00  0.00    +0.067 A 
ATOM     15  O   UNL     1      52.964  18.128  18.676  0.00  0.00    -0.302 OA
ATOM     16  C   UNL     1      53.241  16.787  19.131  0.00  0.00    +0.436 C 
ATOM     17  C   UNL     1      50.938  19.525  18.957  0.00  0.00    +0.056 A 
ATOM     18  O   UNL     1      51.973  16.110  19.015  0.00  0.00    -0.303 OA
ATOM     19  C   UNL     1      49.573  19.402  19.225  0.00  0.00    +0.107 A 
ATOM     20  C   UNL     1      46.758  17.647  20.682  0.00  0.00    +0.281 C 
ATOM     21  O   UNL     1      48.663  20.422  19.370  0.00  0.00    -0.274 OA
ATOM     22  C   UNL     1      45.931  21.640  19.470  0.00  0.00    +0.099 A 
ATOM     23  C   UNL     1      44.605  22.017  19.295  0.00  0.00    +0.054 A 
ATOM     26  O   UNL     1      45.544  18.341  20.990  0.00  0.00    -0.314 OA
ATOM     27  C   UNL     1      43.590  21.150  19.673  0.00  0.00    +0.149 A 
ATOM     28  O   UNL     1      42.284  21.501  19.539  0.00  0.00    -0.289 OA
ENDROOT
BRANCH  23  24
ATOM     24  O   UNL     1      44.303  23.230  18.755  0.00  0.00    -0.478 OA
ATOM     25  H   UNL     1      43.453  23.256  18.297  0.00  0.00    +0.386 HD
ENDBRANCH  23  24
TORSDOF 1
ENDMDL
MODEL 2
REMARK VINA RESULT:      -6.5      4.098      8.404
REMARK  Name = ZINC85996205
REMARK  3 active torsions:
REMARK  status: ('A' for Active; 'I' for Inactive)
REMARK    1  A    between atoms: C1_1  and  C2_2
REMARK    2  A    between atoms: C2_2  and  C21_29
REMARK    3  A    between atoms: C9_9  and  O2_12
REMARK                            x       y       z     vdW  Elec       q    Type
REMARK                         _______ _______ _______ _____ _____    ______ ____
ROOT
ATOM      1  C   UNL     1      49.478  10.776  14.630  0.00  0.00    +0.084 C 
ATOM      2  C   UNL     1      48.873  12.114  15.059  0.00  0.00    +0.143 C 
ATOM      3  C   UNL     1      48.058  12.692  13.900  0.00  0.00    +0.034 C 
ATOM      4  C   UNL     1      49.982  13.070  15.409  0.00  0.00    -0.054 C 
ATOM      5  C   UNL     1      49.779  14.028  16.310  0.00  0.00    +0.058 C 
ATOM      6  C   UNL     1      48.461  14.099  16.973  0.00  0.00    -0.145 A 
ATOM      7  C   UNL     1      48.080  15.226  17.703  0.00  0.00    +0.183 A 
ATOM      8  C   UNL     1      46.804  15.241  18.282  0.00  0.00    -0.173 A 
ATOM      9  C   UNL     1      46.457  16.515  18.981  0.00  0.00    +0.232 C 
ATOM     10  C   UNL     1      46.941  17.613  17.972  0.00  0.00    -0.010 C 
ATOM     11  C   UNL     1      46.180  18.784  18.475  0.00  0.00    -0.148 A 
ATOM     12  C   UNL     1      46.419  20.145  18.381  0.00  0.00    +0.117 A 
ATOM     13  C   UNL     1      45.453  20.955  18.976  0.00  0.00    +0.007 A 
ATOM     14  C   UNL     1      44.325  20.428  19.621  0.00  0.00    +0.067 A 
ATOM     15  O   UNL     1      43.574  21.453  20.091  0.00  0.00    -0.302 OA
ATOM     16  C   UNL     1      44.443  22.605  20.079  0.00  0.00    +0.436 C 
ATOM     17  C   UNL     1      44.088  19.059  19.722  0.00  0.00    +0.056 A 
ATOM     18  O   UNL     1      45.405  22.307  19.046  0.00  0.00    -0.303 OA
ATOM     19  C   UNL     1      45.056  18.243  19.132  0.00  0.00    +0.107 A 
ATOM     20  C   UNL     1      48.449  17.613  18.028  0.00  0.00    +0.281 C 
ATOM     21  O   UNL     1      45.088  16.869  19.127  0.00  0.00    -0.274 OA
ATOM     22  C   UNL     1      45.955  14.169  18.169  0.00  0.00    +0.099 A 
ATOM     23  C   UNL     1      46.343  13.041  17.456  0.00  0.00    +0.054 A 
ATOM     26  O   UNL     1      48.924  16.273  17.857  0.00  0.00    -0.314 OA
ATOM     27  C   UNL     1      47.596  13.004  16.860  0.00  0.00    +0.149 A 
ATOM     28  O   UNL     1      48.014  11.905  16.179  0.00  0.00    -0.289 OA
ENDROOT
BRANCH  23  24
ATOM     24  O   UNL     1      45.500  11.978  17.343  0.00  0.00    -0.478 OA
ATOM     25  H   UNL     1      44.568  12.222  17.271  0.00  0.00    +0.386 HD
ENDBRANCH  23  24
TORSDOF 1
ENDMDL
MODEL 3
REMARK VINA RESULT:      -6.3      4.742      9.082
REMARK  Name = ZINC85996205
REMARK  3 active torsions:
REMARK  status: ('A' for Active; 'I' for Inactive)
REMARK    1  A    between atoms: C1_1  and  C2_2
REMARK    2  A    between atoms: C2_2  and  C21_29
REMARK    3  A    between atoms: C9_9  and  O2_12
REMARK                            x       y       z     vdW  Elec       q    Type
REMARK                         _______ _______ _______ _____ _____    ______ ____
ROOT
ATOM      1  C   UNL     1      51.457  10.563  13.039  0.00  0.00    +0.084 C 
ATOM      2  C   UNL     1      50.930  11.847  13.683  0.00  0.00    +0.143 C 
ATOM      3  C   UNL     1      50.858  12.948  12.624  0.00  0.00    +0.034 C 
ATOM      4  C   UNL     1      51.872  12.275  14.778  0.00  0.00    -0.054 C 
ATOM      5  C   UNL     1      51.413  12.957  15.824  0.00  0.00    +0.058 C 
ATOM      6  C   UNL     1      49.966  13.244  15.896  0.00  0.00    -0.145 A 
ATOM      7  C   UNL     1      49.458  14.182  16.796  0.00  0.00    +0.183 A 
ATOM      8  C   UNL     1      48.079  14.429  16.790  0.00  0.00    -0.173 A 
ATOM      9  C   UNL     1      47.639  15.499  17.736  0.00  0.00    +0.232 C 
ATOM     10  C   UNL     1      48.702  16.629  17.507  0.00  0.00    -0.010 C 
ATOM     11  C   UNL     1      47.979  17.788  18.088  0.00  0.00    -0.148 A 
ATOM     12  C   UNL     1      48.436  18.977  18.631  0.00  0.00    +0.117 A 
ATOM     13  C   UNL     1      47.437  19.847  19.069  0.00  0.00    +0.007 A 
ATOM     14  C   UNL     1      46.074  19.536  18.966  0.00  0.00    +0.067 A 
ATOM     15  O   UNL     1      45.354  20.570  19.466  0.00  0.00    -0.302 OA
ATOM     16  C   UNL     1      46.287  21.351  20.241  0.00  0.00    +0.436 C 
ATOM     17  C   UNL     1      45.614  18.337  18.425  0.00  0.00    +0.056 A 
ATOM     18  O   UNL     1      47.565  21.070  19.635  0.00  0.00    -0.303 OA
ATOM     19  C   UNL     1      46.611  17.461  17.990  0.00  0.00    +0.107 A 
ATOM     20  C   UNL     1      49.984  16.146  18.138  0.00  0.00    +0.281 C 
ATOM     21  O   UNL     1      46.435  16.203  17.465  0.00  0.00    -0.274 OA
ATOM     22  C   UNL     1      47.235  13.749  15.949  0.00  0.00    +0.099 A 
ATOM     23  C   UNL     1      47.739  12.803  15.066  0.00  0.00    +0.054 A 
ATOM     26  O   UNL     1      50.277  14.830  17.659  0.00  0.00    -0.314 OA
ATOM     27  C   UNL     1      49.103  12.548  15.039  0.00  0.00    +0.149 A 
ATOM     28  O   UNL     1      49.624  11.610  14.205  0.00  0.00    -0.289 OA
ENDROOT
BRANCH  23  24
ATOM     24  O   UNL     1      46.902  12.129  14.231  0.00  0.00    -0.478 OA
ATOM     25  H   UNL     1      47.291  11.337  13.837  0.00  0.00    +0.386 HD
ENDBRANCH  23  24
TORSDOF 1
ENDMDL
MODEL 4
REMARK VINA RESULT:      -6.2      1.768      8.101
REMARK  Name = ZINC85996205
REMARK  3 active torsions:
REMARK  status: ('A' for Active; 'I' for Inactive)
REMARK    1  A    between atoms: C1_1  and  C2_2
REMARK    2  A    between atoms: C2_2  and  C21_29
REMARK    3  A    between atoms: C9_9  and  O2_12
REMARK                            x       y       z     vdW  Elec       q    Type
REMARK                         _______ _______ _______ _____ _____    ______ ____
ROOT
ATOM      1  C   UNL     1      53.349  16.652  20.759  0.00  0.00    +0.084 C 
ATOM      2  C   UNL     1      51.888  17.093  20.647  0.00  0.00    +0.143 C 
ATOM      3  C   UNL     1      51.154  16.735  21.940  0.00  0.00    +0.034 C 
ATOM      4  C   UNL     1      51.240  16.372  19.495  0.00  0.00    -0.054 C 
ATOM      5  C   UNL     1      50.236  16.940  18.831  0.00  0.00    +0.058 C 
ATOM      6  C   UNL     1      49.809  18.296  19.230  0.00  0.00    -0.145 A 
ATOM      7  C   UNL     1      48.601  18.834  18.784  0.00  0.00    +0.183 A 
ATOM      8  C   UNL     1      48.241  20.114  19.225  0.00  0.00    -0.173 A 
ATOM      9  C   UNL     1      46.901  20.576  18.753  0.00  0.00    +0.232 C 
ATOM     10  C   UNL     1      45.995  19.317  18.981  0.00  0.00    -0.010 C 
ATOM     11  C   UNL     1      44.653  19.952  18.946  0.00  0.00    -0.148 A 
ATOM     12  C   UNL     1      43.403  19.441  18.638  0.00  0.00    +0.117 A 
ATOM     13  C   UNL     1      42.354  20.356  18.733  0.00  0.00    +0.007 A 
ATOM     14  C   UNL     1      42.554  21.691  19.112  0.00  0.00    +0.067 A 
ATOM     15  O   UNL     1      41.356  22.325  19.118  0.00  0.00    -0.302 OA
ATOM     16  C   UNL     1      40.468  21.479  18.358  0.00  0.00    +0.436 C 
ATOM     17  C   UNL     1      43.812  22.206  19.416  0.00  0.00    +0.056 A 
ATOM     18  O   UNL     1      41.034  20.160  18.501  0.00  0.00    -0.303 OA
ATOM     19  C   UNL     1      44.867  21.295  19.317  0.00  0.00    +0.107 A 
ATOM     20  C   UNL     1      46.381  18.314  17.923  0.00  0.00    +0.281 C 
ATOM     21  O   UNL     1      46.203  21.552  19.516  0.00  0.00    -0.274 OA
ATOM     22  C   UNL     1      49.061  20.843  20.049  0.00  0.00    +0.099 A 
ATOM     23  C   UNL     1      50.272  20.313  20.479  0.00  0.00    +0.054 A 
ATOM     26  O   UNL     1      47.802  18.141  17.937  0.00  0.00    -0.314 OA
ATOM     27  C   UNL     1      50.647  19.041  20.069  0.00  0.00    +0.149 A 
ATOM     28  O   UNL     1      51.836  18.506  20.452  0.00  0.00    -0.289 OA
ENDROOT
BRANCH  23  24
ATOM     24  O   UNL     1      51.084  21.035  21.297  0.00  0.00    -0.478 OA
ATOM     25  H   UNL     1      51.753  21.554  20.830  0.00  0.00    +0.386 HD
ENDBRANCH  23  24
TORSDOF 1
ENDMDL
MODEL 5
REMARK VINA RESULT:      -6.1      3.578      5.135
REMARK  Name = ZINC85996205
REMARK  3 active torsions:
REMARK  status: ('A' for Active; 'I' for Inactive)
REMARK    1  A    between atoms: C1_1  and  C2_2
REMARK    2  A    between atoms: C2_2  and  C21_29
REMARK    3  A    between atoms: C9_9  and  O2_12
REMARK                            x       y       z     vdW  Elec       q    Type
REMARK                         _______ _______ _______ _____ _____    ______ ____
ROOT
ATOM      1  C   UNL     1      44.712  22.965  21.491  0.00  0.00    +0.084 C 
ATOM      2  C   UNL     1      45.384  21.688  20.983  0.00  0.00    +0.143 C 
ATOM      3  C   UNL     1      46.701  21.480  21.732  0.00  0.00    +0.034 C 
ATOM      4  C   UNL     1      45.669  21.829  19.511  0.00  0.00    -0.054 C 
ATOM      5  C   UNL     1      45.696  20.753  18.730  0.00  0.00    +0.058 C 
ATOM      6  C   UNL     1      45.406  19.437  19.336  0.00  0.00    -0.145 A 
ATOM      7  C   UNL     1      45.692  18.250  18.659  0.00  0.00    +0.183 A 
ATOM      8  C   UNL     1      45.420  17.037  19.305  0.00  0.00    -0.173 A 
ATOM      9  C   UNL     1      45.825  15.823  18.533  0.00  0.00    +0.232 C 
ATOM     10  C   UNL     1      47.253  16.200  18.008  0.00  0.00    -0.010 C 
ATOM     11  C   UNL     1      47.773  14.851  17.672  0.00  0.00    -0.148 A 
ATOM     12  C   UNL     1      48.747  14.438  16.779  0.00  0.00    +0.117 A 
ATOM     13  C   UNL     1      48.975  13.062  16.751  0.00  0.00    +0.007 A 
ATOM     14  C   UNL     1      48.268  12.168  17.567  0.00  0.00    +0.067 A 
ATOM     15  O   UNL     1      48.712  10.911  17.321  0.00  0.00    -0.302 OA
ATOM     16  C   UNL     1      49.417  10.990  16.065  0.00  0.00    +0.436 C 
ATOM     17  C   UNL     1      47.284  12.583  18.461  0.00  0.00    +0.056 A 
ATOM     18  O   UNL     1      49.855  12.363  15.996  0.00  0.00    -0.303 OA
ATOM     19  C   UNL     1      47.048  13.959  18.489  0.00  0.00    +0.107 A 
ATOM     20  C   UNL     1      47.053  17.224  16.918  0.00  0.00    +0.281 C 
ATOM     21  O   UNL     1      46.107  14.622  19.240  0.00  0.00    -0.274 OA
ATOM     22  C   UNL     1      44.858  17.002  20.555  0.00  0.00    +0.099 A 
ATOM     23  C   UNL     1      44.558  18.185  21.221  0.00  0.00    +0.054 A 
ATOM     26  O   UNL     1      46.209  18.271  17.408  0.00  0.00    -0.314 OA
ATOM     27  C   UNL     1      44.830  19.402  20.612  0.00  0.00    +0.149 A 
ATOM     28  O   UNL     1      44.524  20.575  21.226  0.00  0.00    -0.289 OA
ENDROOT
BRANCH  23  24
ATOM     24  O   UNL     1      44.001  18.150  22.462  0.00  0.00    -0.478 OA
ATOM     25  H   UNL     1      43.509  17.340  22.650  0.00  0.00    +0.386 HD
ENDBRANCH  23  24
TORSDOF 1
ENDMDL
MODEL 6
REMARK VINA RESULT:      -5.8      3.722      5.254
REMARK  Name = ZINC85996205
REMARK  3 active torsions:
REMARK  status: ('A' for Active; 'I' for Inactive)
REMARK    1  A    between atoms: C1_1  and  C2_2
REMARK    2  A    between atoms: C2_2  and  C21_29
REMARK    3  A    between atoms: C9_9  and  O2_12
REMARK                            x       y       z     vdW  Elec       q    Type
REMARK                         _______ _______ _______ _____ _____    ______ ____
ROOT
ATOM      1  C   UNL     1      45.706  23.087  21.351  0.00  0.00    +0.084 C 
ATOM      2  C   UNL     1      45.801  21.777  20.566  0.00  0.00    +0.143 C 
ATOM      3  C   UNL     1      45.178  21.973  19.182  0.00  0.00    +0.034 C 
ATOM      4  C   UNL     1      45.046  20.702  21.301  0.00  0.00    -0.054 C 
ATOM      5  C   UNL     1      45.417  19.430  21.189  0.00  0.00    +0.058 C 
ATOM      6  C   UNL     1      46.598  19.113  20.362  0.00  0.00    -0.145 A 
ATOM      7  C   UNL     1      46.875  17.803  19.967  0.00  0.00    +0.183 A 
ATOM      8  C   UNL     1      47.996  17.577  19.157  0.00  0.00    -0.173 A 
ATOM      9  C   UNL     1      48.170  16.156  18.727  0.00  0.00    +0.232 C 
ATOM     10  C   UNL     1      46.720  15.737  18.302  0.00  0.00    -0.010 C 
ATOM     11  C   UNL     1      47.025  14.540  17.479  0.00  0.00    -0.148 A 
ATOM     12  C   UNL     1      46.265  13.427  17.158  0.00  0.00    +0.117 A 
ATOM     13  C   UNL     1      46.899  12.499  16.332  0.00  0.00    +0.007 A 
ATOM     14  C   UNL     1      48.208  12.682  15.865  0.00  0.00    +0.067 A 
ATOM     15  O   UNL     1      48.543  11.624  15.087  0.00  0.00    -0.302 OA
ATOM     16  C   UNL     1      47.579  10.597  15.396  0.00  0.00    +0.436 C 
ATOM     17  C   UNL     1      48.975  13.798  16.193  0.00  0.00    +0.056 A 
ATOM     18  O   UNL     1      46.421  11.329  15.848  0.00  0.00    -0.303 OA
ATOM     19  C   UNL     1      48.346  14.728  17.024  0.00  0.00    +0.107 A 
ATOM     20  C   UNL     1      45.924  15.594  19.576  0.00  0.00    +0.281 C 
ATOM     21  O   UNL     1      48.890  15.883  17.533  0.00  0.00    -0.274 OA
ATOM     22  C   UNL     1      48.825  18.602  18.781  0.00  0.00    +0.099 A 
ATOM     23  C   UNL     1      48.558  19.904  19.189  0.00  0.00    +0.054 A 
ATOM     26  O   UNL     1      46.087  16.776  20.366  0.00  0.00    -0.314 OA
ATOM     27  C   UNL     1      47.447  20.160  19.980  0.00  0.00    +0.149 A 
ATOM     28  O   UNL     1      47.174  21.418  20.416  0.00  0.00    -0.289 OA
ENDROOT
BRANCH  23  24
ATOM     24  O   UNL     1      49.381  20.921  18.815  0.00  0.00    -0.478 OA
ATOM     25  H   UNL     1      49.879  20.747  18.005  0.00  0.00    +0.386 HD
ENDBRANCH  23  24
TORSDOF 1
ENDMDL
MODEL 7
REMARK VINA RESULT:      -5.8      5.486      8.045
REMARK  Name = ZINC85996205
REMARK  3 active torsions:
REMARK  status: ('A' for Active; 'I' for Inactive)
REMARK    1  A    between atoms: C1_1  and  C2_2
REMARK    2  A    between atoms: C2_2  and  C21_29
REMARK    3  A    between atoms: C9_9  and  O2_12
REMARK                            x       y       z     vdW  Elec       q    Type
REMARK                         _______ _______ _______ _____ _____    ______ ____
ROOT
ATOM      1  C   UNL     1      52.217  21.704  20.048  0.00  0.00    +0.084 C 
ATOM      2  C   UNL     1      51.342  20.564  19.524  0.00  0.00    +0.143 C 
ATOM      3  C   UNL     1      50.162  21.151  18.746  0.00  0.00    +0.034 C 
ATOM      4  C   UNL     1      50.819  19.764  20.688  0.00  0.00    -0.054 C 
ATOM      5  C   UNL     1      50.547  18.471  20.541  0.00  0.00    +0.058 C 
ATOM      6  C   UNL     1      50.805  17.843  19.230  0.00  0.00    -0.145 A 
ATOM      7  C   UNL     1      50.288  16.585  18.915  0.00  0.00    +0.183 A 
ATOM      8  C   UNL     1      50.545  16.061  17.642  0.00  0.00    -0.173 A 
ATOM      9  C   UNL     1      49.892  14.745  17.372  0.00  0.00    +0.232 C 
ATOM     10  C   UNL     1      48.438  14.954  17.922  0.00  0.00    -0.010 C 
ATOM     11  C   UNL     1      47.735  13.844  17.232  0.00  0.00    -0.148 A 
ATOM     12  C   UNL     1      46.583  13.146  17.553  0.00  0.00    +0.117 A 
ATOM     13  C   UNL     1      46.217  12.161  16.635  0.00  0.00    +0.007 A 
ATOM     14  C   UNL     1      46.962  11.899  15.478  0.00  0.00    +0.067 A 
ATOM     15  O   UNL     1      46.359  10.900  14.789  0.00  0.00    -0.302 OA
ATOM     16  C   UNL     1      45.456  10.277  15.725  0.00  0.00    +0.436 C 
ATOM     17  C   UNL     1      48.125  12.597  15.158  0.00  0.00    +0.056 A 
ATOM     18  O   UNL     1      45.152  11.325  16.669  0.00  0.00    -0.303 OA
ATOM     19  C   UNL     1      48.499  13.581  16.076  0.00  0.00    +0.107 A 
ATOM     20  C   UNL     1      48.546  14.960  19.427  0.00  0.00    +0.281 C 
ATOM     21  O   UNL     1      49.619  14.376  16.026  0.00  0.00    -0.274 OA
ATOM     22  C   UNL     1      51.312  16.742  16.730  0.00  0.00    +0.099 A 
ATOM     23  C   UNL     1      51.841  17.986  17.051  0.00  0.00    +0.054 A 
ATOM     26  O   UNL     1      49.564  15.886  19.821  0.00  0.00    -0.314 OA
ATOM     27  C   UNL     1      51.590  18.536  18.300  0.00  0.00    +0.149 A 
ATOM     28  O   UNL     1      52.115  19.739  18.652  0.00  0.00    -0.289 OA
ENDROOT
BRANCH  23  24
ATOM     24  O   UNL     1      52.601  18.661  16.146  0.00  0.00    -0.478 OA
ATOM     25  H   UNL     1      53.230  19.278  16.543  0.00  0.00    +0.386 HD
ENDBRANCH  23  24
TORSDOF 1
ENDMDL
MODEL 8
REMARK VINA RESULT:      -5.7      3.268      8.032
REMARK  Name = ZINC85996205
REMARK  3 active torsions:
REMARK  status: ('A' for Active; 'I' for Inactive)
REMARK    1  A    between atoms: C1_1  and  C2_2
REMARK    2  A    between atoms: C2_2  and  C21_29
REMARK    3  A    between atoms: C9_9  and  O2_12
REMARK                            x       y       z     vdW  Elec       q    Type
REMARK                         _______ _______ _______ _____ _____    ______ ____
ROOT
ATOM      1  C   UNL     1      51.090  11.570  16.482  0.00  0.00    +0.084 C 
ATOM      2  C   UNL     1      50.558  12.951  16.871  0.00  0.00    +0.143 C 
ATOM      3  C   UNL     1      51.252  14.016  16.019  0.00  0.00    +0.034 C 
ATOM      4  C   UNL     1      50.859  13.207  18.324  0.00  0.00    -0.054 C 
ATOM      5  C   UNL     1      50.063  13.994  19.042  0.00  0.00    +0.058 C 
ATOM      6  C   UNL     1      48.871  14.572  18.388  0.00  0.00    -0.145 A 
ATOM      7  C   UNL     1      48.158  15.618  18.978  0.00  0.00    +0.183 A 
ATOM      8  C   UNL     1      47.056  16.140  18.289  0.00  0.00    -0.173 A 
ATOM      9  C   UNL     1      46.401  17.302  18.963  0.00  0.00    +0.232 C 
ATOM     10  C   UNL     1      47.618  18.185  19.404  0.00  0.00    -0.010 C 
ATOM     11  C   UNL     1      46.932  19.482  19.629  0.00  0.00    -0.148 A 
ATOM     12  C   UNL     1      47.257  20.567  20.426  0.00  0.00    +0.117 A 
ATOM     13  C   UNL     1      46.359  21.633  20.363  0.00  0.00    +0.007 A 
ATOM     14  C   UNL     1      45.215  21.604  19.553  0.00  0.00    +0.067 A 
ATOM     15  O   UNL     1      44.550  22.775  19.699  0.00  0.00    -0.302 OA
ATOM     16  C   UNL     1      45.075  23.370  20.904  0.00  0.00    +0.436 C 
ATOM     17  C   UNL     1      44.886  20.511  18.755  0.00  0.00    +0.056 A 
ATOM     18  O   UNL     1      46.403  22.819  21.015  0.00  0.00    -0.303 OA
ATOM     19  C   UNL     1      45.779  19.438  18.819  0.00  0.00    +0.107 A 
ATOM     20  C   UNL     1      48.273  17.468  20.559  0.00  0.00    +0.281 C 
ATOM     21  O   UNL     1      45.667  18.229  18.174  0.00  0.00    -0.274 OA
ATOM     22  C   UNL     1      46.658  15.625  17.082  0.00  0.00    +0.099 A 
ATOM     23  C   UNL     1      47.358  14.573  16.504  0.00  0.00    +0.054 A 
ATOM     26  O   UNL     1      48.517  16.107  20.188  0.00  0.00    -0.314 OA
ATOM     27  C   UNL     1      48.463  14.045  17.157  0.00  0.00    +0.149 A 
ATOM     28  O   UNL     1      49.153  12.999  16.630  0.00  0.00    -0.289 OA
ENDROOT
BRANCH  23  24
ATOM     24  O   UNL     1      46.963  14.063  15.306  0.00  0.00    -0.478 OA
ATOM     25  H   UNL     1      47.306  14.544  14.541  0.00  0.00    +0.386 HD
ENDBRANCH  23  24
TORSDOF 1
ENDMDL
MODEL 9
REMARK VINA RESULT:      -5.7      3.771      5.493
REMARK  Name = ZINC85996205
REMARK  3 active torsions:
REMARK  status: ('A' for Active; 'I' for Inactive)
REMARK    1  A    between atoms: C1_1  and  C2_2
REMARK    2  A    between atoms: C2_2  and  C21_29
REMARK    3  A    between atoms: C9_9  and  O2_12
REMARK                            x       y       z     vdW  Elec       q    Type
REMARK                         _______ _______ _______ _____ _____    ______ ____
ROOT
ATOM      1  C   UNL     1      46.384  22.675  21.641  0.00  0.00    +0.084 C 
ATOM      2  C   UNL     1      46.710  21.272  21.125  0.00  0.00    +0.143 C 
ATOM      3  C   UNL     1      46.256  20.238  22.157  0.00  0.00    +0.034 C 
ATOM      4  C   UNL     1      48.198  21.152  20.925  0.00  0.00    -0.054 C 
ATOM      5  C   UNL     1      48.682  20.329  19.999  0.00  0.00    +0.058 C 
ATOM      6  C   UNL     1      47.728  19.576  19.160  0.00  0.00    -0.145 A 
ATOM      7  C   UNL     1      48.147  18.499  18.377  0.00  0.00    +0.183 A 
ATOM      8  C   UNL     1      47.184  17.809  17.629  0.00  0.00    -0.173 A 
ATOM      9  C   UNL     1      47.713  16.629  16.881  0.00  0.00    +0.232 C 
ATOM     10  C   UNL     1      48.628  15.921  17.940  0.00  0.00    -0.010 C 
ATOM     11  C   UNL     1      48.740  14.573  17.329  0.00  0.00    -0.148 A 
ATOM     12  C   UNL     1      49.707  13.588  17.448  0.00  0.00    +0.117 A 
ATOM     13  C   UNL     1      49.455  12.425  16.719  0.00  0.00    +0.007 A 
ATOM     14  C   UNL     1      48.308  12.269  15.929  0.00  0.00    +0.067 A 
ATOM     15  O   UNL     1      48.341  11.042  15.354  0.00  0.00    -0.302 OA
ATOM     16  C   UNL     1      49.707  10.594  15.478  0.00  0.00    +0.436 C 
ATOM     17  C   UNL     1      47.339  13.261  15.805  0.00  0.00    +0.056 A 
ATOM     18  O   UNL     1      50.202  11.299  16.635  0.00  0.00    -0.303 OA
ATOM     19  C   UNL     1      47.589  14.430  16.528  0.00  0.00    +0.107 A 
ATOM     20  C   UNL     1      49.855  16.785  18.092  0.00  0.00    +0.281 C 
ATOM     21  O   UNL     1      46.824  15.572  16.545  0.00  0.00    -0.274 OA
ATOM     22  C   UNL     1      45.867  18.192  17.631  0.00  0.00    +0.099 A 
ATOM     23  C   UNL     1      45.455  19.276  18.397  0.00  0.00    +0.054 A 
ATOM     26  O   UNL     1      49.451  18.136  18.335  0.00  0.00    -0.314 OA
ATOM     27  C   UNL     1      46.384  19.969  19.160  0.00  0.00    +0.149 A 
ATOM     28  O   UNL     1      46.016  21.048  19.899  0.00  0.00    -0.289 OA
ENDROOT
BRANCH  23  24
ATOM     24  O   UNL     1      44.148  19.655  18.399  0.00  0.00    -0.478 OA
ATOM     25  H   UNL     1      43.543  18.985  18.052  0.00  0.00    +0.386 HD
ENDBRANCH  23  24
TORSDOF 1
ENDMDL
