MODEL 1
REMARK VINA RESULT:      -6.5      0.000      0.000
REMARK  Name = ZINC14417338
REMARK  5 active torsions:
REMARK  status: ('A' for Active; 'I' for Inactive)
REMARK    1  A    between atoms: C1_1  and  C2_2
REMARK    2  A    between atoms: C2_2  and  C20_25
REMARK    3  A    between atoms: C10_10  and  O1_11
REMARK    4  A    between atoms: C12_14  and  C14_17
REMARK    5  A    between atoms: C17_20  and  O4_23
REMARK                            x       y       z     vdW  Elec       q    Type
REMARK                         _______ _______ _______ _____ _____    ______ ____
ROOT
ATOM      1  C   UNL     1      46.965  10.277  17.176  0.00  0.00    +0.089 C 
ATOM      2  C   UNL     1      46.485  11.724  17.040  0.00  0.00    +0.146 C 
ATOM      3  C   UNL     1      45.061  11.733  16.481  0.00  0.00    +0.039 C 
ATOM      4  C   UNL     1      47.395  12.462  16.093  0.00  0.00    -0.047 C 
ATOM      5  C   UNL     1      47.563  13.777  16.221  0.00  0.00    +0.057 C 
ATOM      6  C   UNL     1      46.847  14.465  17.315  0.00  0.00    -0.190 A 
ATOM      7  C   UNL     1      46.320  13.690  18.365  0.00  0.00    +0.214 A 
ATOM      8  C   UNL     1      45.648  14.294  19.408  0.00  0.00    -0.026 A 
ATOM      9  C   UNL     1      45.483  15.676  19.431  0.00  0.00    +0.195 A 
ATOM     10  C   UNL     1      46.006  16.452  18.382  0.00  0.00    -0.278 A 
ATOM     11  C   UNL     1      45.817  17.912  18.425  0.00  0.00    +0.431 A 
ATOM     12  C   UNL     1      45.081  18.442  19.588  0.00  0.00    -0.238 A 
ATOM     21  C   UNL     1      44.635  17.567  20.523  0.00  0.00    +0.327 A 
ATOM     22  O   UNL     1      46.245  18.642  17.548  0.00  0.00    -0.439 OA
ATOM     23  O   UNL     1      44.823  16.251  20.454  0.00  0.00    -0.204 OA
ATOM     24  C   UNL     1      46.691  15.847  17.320  0.00  0.00    +0.246 A 
ATOM     27  O   UNL     1      46.490  12.344  18.326  0.00  0.00    -0.294 OA
ENDROOT
BRANCH  12  13
ATOM     13  C   UNL     1      44.833  19.897  19.730  0.00  0.00    -0.036 A 
ATOM     14  C   UNL     1      45.785  20.711  20.342  0.00  0.00    +0.058 A 
ATOM     15  C   UNL     1      45.555  22.064  20.468  0.00  0.00    -0.010 A 
ATOM     16  C   UNL     1      44.370  22.615  19.997  0.00  0.00    +0.110 A 
ATOM     19  C   UNL     1      43.419  21.806  19.392  0.00  0.00    -0.012 A 
ATOM     20  C   UNL     1      43.646  20.453  19.258  0.00  0.00    +0.034 A 
BRANCH  16  17
ATOM     17  O   UNL     1      44.144  23.949  20.128  0.00  0.00    -0.499 OA
ATOM     18  H   UNL     1      43.793  24.369  19.331  0.00  0.00    +0.392 HD
ENDBRANCH  16  17
ENDBRANCH  12  13
BRANCH  24  25
ATOM     25  O   UNL     1      47.197  16.600  16.311  0.00  0.00    -0.468 OA
ATOM     26  H   UNL     1      47.894  16.162  15.805  0.00  0.00    +0.404 HD
ENDBRANCH  24  25
TORSDOF 3
ENDMDL
MODEL 2
REMARK VINA RESULT:      -6.0      4.837      6.375
REMARK  Name = ZINC14417338
REMARK  5 active torsions:
REMARK  status: ('A' for Active; 'I' for Inactive)
REMARK    1  A    between atoms: C1_1  and  C2_2
REMARK    2  A    between atoms: C2_2  and  C20_25
REMARK    3  A    between atoms: C10_10  and  O1_11
REMARK    4  A    between atoms: C12_14  and  C14_17
REMARK    5  A    between atoms: C17_20  and  O4_23
REMARK                            x       y       z     vdW  Elec       q    Type
REMARK                         _______ _______ _______ _____ _____    ______ ____
ROOT
ATOM      1  C   UNL     1      52.564  19.995  21.513  0.00  0.00    +0.089 C 
ATOM      2  C   UNL     1      51.105  19.641  21.217  0.00  0.00    +0.146 C 
ATOM      3  C   UNL     1      50.566  18.749  22.337  0.00  0.00    +0.039 C 
ATOM      4  C   UNL     1      51.031  18.896  19.910  0.00  0.00    -0.047 C 
ATOM      5  C   UNL     1      49.927  18.966  19.167  0.00  0.00    +0.057 C 
ATOM      6  C   UNL     1      48.810  19.797  19.660  0.00  0.00    -0.190 A 
ATOM      7  C   UNL     1      49.069  20.738  20.673  0.00  0.00    +0.214 A 
ATOM      8  C   UNL     1      48.054  21.537  21.159  0.00  0.00    -0.026 A 
ATOM      9  C   UNL     1      46.763  21.419  20.653  0.00  0.00    +0.195 A 
ATOM     10  C   UNL     1      46.501  20.477  19.642  0.00  0.00    -0.278 A 
ATOM     11  C   UNL     1      45.127  20.367  19.123  0.00  0.00    +0.431 A 
ATOM     12  C   UNL     1      44.128  21.271  19.721  0.00  0.00    -0.238 A 
ATOM     21  C   UNL     1      44.531  22.128  20.691  0.00  0.00    +0.327 A 
ATOM     22  O   UNL     1      44.833  19.571  18.247  0.00  0.00    -0.439 OA
ATOM     23  O   UNL     1      45.782  22.203  21.138  0.00  0.00    -0.204 OA
ATOM     24  C   UNL     1      47.526  19.663  19.142  0.00  0.00    +0.246 A 
ATOM     27  O   UNL     1      50.333  20.840  21.157  0.00  0.00    -0.294 OA
ENDROOT
BRANCH  12  13
ATOM     13  C   UNL     1      42.714  21.242  19.272  0.00  0.00    -0.036 A 
ATOM     14  C   UNL     1      41.987  20.055  19.333  0.00  0.00    +0.058 A 
ATOM     15  C   UNL     1      40.671  20.033  18.921  0.00  0.00    -0.010 A 
ATOM     16  C   UNL     1      40.075  21.188  18.435  0.00  0.00    +0.110 A 
ATOM     19  C   UNL     1      40.798  22.370  18.368  0.00  0.00    -0.012 A 
ATOM     20  C   UNL     1      42.112  22.400  18.784  0.00  0.00    +0.034 A 
BRANCH  16  17
ATOM     17  O   UNL     1      38.779  21.161  18.023  0.00  0.00    -0.499 OA
ATOM     18  H   UNL     1      38.397  22.035  17.868  0.00  0.00    +0.392 HD
ENDBRANCH  16  17
ENDBRANCH  12  13
BRANCH  24  25
ATOM     25  O   UNL     1      47.269  18.758  18.165  0.00  0.00    -0.468 OA
ATOM     26  H   UNL     1      48.018  18.182  17.956  0.00  0.00    +0.404 HD
ENDBRANCH  24  25
TORSDOF 3
ENDMDL
MODEL 3
REMARK VINA RESULT:      -5.8      1.001      1.430
REMARK  Name = ZINC14417338
REMARK  5 active torsions:
REMARK  status: ('A' for Active; 'I' for Inactive)
REMARK    1  A    between atoms: C1_1  and  C2_2
REMARK    2  A    between atoms: C2_2  and  C20_25
REMARK    3  A    between atoms: C10_10  and  O1_11
REMARK    4  A    between atoms: C12_14  and  C14_17
REMARK    5  A    between atoms: C17_20  and  O4_23
REMARK                            x       y       z     vdW  Elec       q    Type
REMARK                         _______ _______ _______ _____ _____    ______ ____
ROOT
ATOM      1  C   UNL     1      48.681  10.376  16.730  0.00  0.00    +0.089 C 
ATOM      2  C   UNL     1      48.006  11.746  16.632  0.00  0.00    +0.146 C 
ATOM      3  C   UNL     1      46.718  11.617  15.818  0.00  0.00    +0.039 C 
ATOM      4  C   UNL     1      48.936  12.709  15.941  0.00  0.00    -0.047 C 
ATOM      5  C   UNL     1      48.866  14.012  16.212  0.00  0.00    +0.057 C 
ATOM      6  C   UNL     1      47.871  14.461  17.207  0.00  0.00    -0.190 A 
ATOM      7  C   UNL     1      47.301  13.505  18.067  0.00  0.00    +0.214 A 
ATOM      8  C   UNL     1      46.371  13.884  19.013  0.00  0.00    -0.026 A 
ATOM      9  C   UNL     1      45.985  15.216  19.125  0.00  0.00    +0.195 A 
ATOM     10  C   UNL     1      46.550  16.174  18.264  0.00  0.00    -0.278 A 
ATOM     11  C   UNL     1      46.125  17.577  18.397  0.00  0.00    +0.431 A 
ATOM     12  C   UNL     1      45.124  17.860  19.442  0.00  0.00    -0.238 A 
ATOM     21  C   UNL     1      44.669  16.830  20.197  0.00  0.00    +0.327 A 
ATOM     22  O   UNL     1      46.576  18.456  17.683  0.00  0.00    -0.439 OA
ATOM     23  O   UNL     1      45.074  15.571  20.051  0.00  0.00    -0.204 OA
ATOM     24  C   UNL     1      47.497  15.798  17.302  0.00  0.00    +0.246 A 
ATOM     27  O   UNL     1      47.689  12.209  17.945  0.00  0.00    -0.294 OA
ENDROOT
BRANCH  12  13
ATOM     13  C   UNL     1      44.625  19.240  19.661  0.00  0.00    -0.036 A 
ATOM     14  C   UNL     1      43.479  19.681  19.001  0.00  0.00    +0.058 A 
ATOM     15  C   UNL     1      43.014  20.962  19.211  0.00  0.00    -0.010 A 
ATOM     16  C   UNL     1      43.694  21.817  20.069  0.00  0.00    +0.110 A 
ATOM     19  C   UNL     1      44.838  21.383  20.722  0.00  0.00    -0.012 A 
ATOM     20  C   UNL     1      45.305  20.101  20.521  0.00  0.00    +0.034 A 
BRANCH  16  17
ATOM     17  O   UNL     1      43.236  23.081  20.268  0.00  0.00    -0.499 OA
ATOM     18  H   UNL     1      42.371  23.124  20.699  0.00  0.00    +0.392 HD
ENDBRANCH  16  17
ENDBRANCH  12  13
BRANCH  24  25
ATOM     25  O   UNL     1      48.042  16.725  16.476  0.00  0.00    -0.468 OA
ATOM     26  H   UNL     1      48.045  16.467  15.544  0.00  0.00    +0.404 HD
ENDBRANCH  24  25
TORSDOF 3
ENDMDL
MODEL 4
REMARK VINA RESULT:      -5.7      1.553      7.966
REMARK  Name = ZINC14417338
REMARK  5 active torsions:
REMARK  status: ('A' for Active; 'I' for Inactive)
REMARK    1  A    between atoms: C1_1  and  C2_2
REMARK    2  A    between atoms: C2_2  and  C20_25
REMARK    3  A    between atoms: C10_10  and  O1_11
REMARK    4  A    between atoms: C12_14  and  C14_17
REMARK    5  A    between atoms: C17_20  and  O4_23
REMARK                            x       y       z     vdW  Elec       q    Type
REMARK                         _______ _______ _______ _____ _____    ______ ____
ROOT
ATOM      1  C   UNL     1      44.684  22.161  22.401  0.00  0.00    +0.089 C 
ATOM      2  C   UNL     1      45.396  21.129  21.524  0.00  0.00    +0.146 C 
ATOM      3  C   UNL     1      46.827  20.938  22.030  0.00  0.00    +0.039 C 
ATOM      4  C   UNL     1      45.434  21.627  20.103  0.00  0.00    -0.047 C 
ATOM      5  C   UNL     1      45.465  20.757  19.094  0.00  0.00    +0.057 C 
ATOM      6  C   UNL     1      45.448  19.316  19.419  0.00  0.00    -0.190 A 
ATOM      7  C   UNL     1      45.048  18.923  20.710  0.00  0.00    +0.214 A 
ATOM      8  C   UNL     1      45.014  17.587  21.053  0.00  0.00    -0.026 A 
ATOM      9  C   UNL     1      45.376  16.614  20.126  0.00  0.00    +0.195 A 
ATOM     10  C   UNL     1      45.778  17.004  18.836  0.00  0.00    -0.278 A 
ATOM     11  C   UNL     1      46.160  15.958  17.872  0.00  0.00    +0.431 A 
ATOM     12  C   UNL     1      46.085  14.567  18.354  0.00  0.00    -0.238 A 
ATOM     21  C   UNL     1      45.678  14.346  19.628  0.00  0.00    +0.327 A 
ATOM     22  O   UNL     1      46.518  16.228  16.739  0.00  0.00    -0.439 OA
ATOM     23  O   UNL     1      45.339  15.315  20.475  0.00  0.00    -0.204 OA
ATOM     24  C   UNL     1      45.814  18.359  18.479  0.00  0.00    +0.246 A 
ATOM     27  O   UNL     1      44.699  19.885  21.602  0.00  0.00    -0.294 OA
ENDROOT
BRANCH  12  13
ATOM     13  C   UNL     1      46.448  13.436  17.466  0.00  0.00    -0.036 A 
ATOM     14  C   UNL     1      47.741  13.339  16.951  0.00  0.00    +0.058 A 
ATOM     15  C   UNL     1      48.077  12.284  16.131  0.00  0.00    -0.010 A 
ATOM     16  C   UNL     1      47.127  11.324  15.806  0.00  0.00    +0.110 A 
ATOM     19  C   UNL     1      45.838  11.422  16.312  0.00  0.00    -0.012 A 
ATOM     20  C   UNL     1      45.497  12.472  17.138  0.00  0.00    +0.034 A 
BRANCH  16  17
ATOM     17  O   UNL     1      47.461  10.289  14.991  0.00  0.00    -0.499 OA
ATOM     18  H   UNL     1      48.328  10.381  14.574  0.00  0.00    +0.392 HD
ENDBRANCH  16  17
ENDBRANCH  12  13
BRANCH  24  25
ATOM     25  O   UNL     1      46.200  18.730  17.233  0.00  0.00    -0.468 OA
ATOM     26  H   UNL     1      45.548  18.538  16.546  0.00  0.00    +0.404 HD
ENDBRANCH  24  25
TORSDOF 3
ENDMDL
MODEL 5
REMARK VINA RESULT:      -5.7      1.489      2.656
REMARK  Name = ZINC14417338
REMARK  5 active torsions:
REMARK  status: ('A' for Active; 'I' for Inactive)
REMARK    1  A    between atoms: C1_1  and  C2_2
REMARK    2  A    between atoms: C2_2  and  C20_25
REMARK    3  A    between atoms: C10_10  and  O1_11
REMARK    4  A    between atoms: C12_14  and  C14_17
REMARK    5  A    between atoms: C17_20  and  O4_23
REMARK                            x       y       z     vdW  Elec       q    Type
REMARK                         _______ _______ _______ _____ _____    ______ ____
ROOT
ATOM      1  C   UNL     1      48.708  11.287  16.170  0.00  0.00    +0.089 C 
ATOM      2  C   UNL     1      48.255  12.315  17.208  0.00  0.00    +0.146 C 
ATOM      3  C   UNL     1      49.240  12.320  18.378  0.00  0.00    +0.039 C 
ATOM      4  C   UNL     1      46.886  11.940  17.713  0.00  0.00    -0.047 C 
ATOM      5  C   UNL     1      46.057  12.886  18.152  0.00  0.00    +0.057 C 
ATOM      6  C   UNL     1      46.519  14.288  18.111  0.00  0.00    -0.190 A 
ATOM      7  C   UNL     1      47.630  14.606  17.308  0.00  0.00    +0.214 A 
ATOM      8  C   UNL     1      48.091  15.905  17.238  0.00  0.00    -0.026 A 
ATOM      9  C   UNL     1      47.464  16.913  17.964  0.00  0.00    +0.195 A 
ATOM     10  C   UNL     1      46.355  16.598  18.769  0.00  0.00    -0.278 A 
ATOM     11  C   UNL     1      45.708  17.680  19.531  0.00  0.00    +0.431 A 
ATOM     12  C   UNL     1      46.291  19.025  19.378  0.00  0.00    -0.238 A 
ATOM     21  C   UNL     1      47.365  19.175  18.562  0.00  0.00    +0.327 A 
ATOM     22  O   UNL     1      44.744  17.474  20.247  0.00  0.00    -0.439 OA
ATOM     23  O   UNL     1      47.926  18.175  17.888  0.00  0.00    -0.204 OA
ATOM     24  C   UNL     1      45.879  15.282  18.844  0.00  0.00    +0.246 A 
ATOM     27  O   UNL     1      48.231  13.610  16.608  0.00  0.00    -0.294 OA
ENDROOT
BRANCH  12  13
ATOM     13  C   UNL     1      45.719  20.187  20.100  0.00  0.00    -0.036 A 
ATOM     14  C   UNL     1      44.912  21.101  19.424  0.00  0.00    +0.058 A 
ATOM     15  C   UNL     1      44.376  22.176  20.100  0.00  0.00    -0.010 A 
ATOM     16  C   UNL     1      44.649  22.357  21.450  0.00  0.00    +0.110 A 
ATOM     19  C   UNL     1      45.457  21.452  22.123  0.00  0.00    -0.012 A 
ATOM     20  C   UNL     1      45.991  20.371  21.455  0.00  0.00    +0.034 A 
BRANCH  16  17
ATOM     17  O   UNL     1      44.124  23.422  22.111  0.00  0.00    -0.499 OA
ATOM     18  H   UNL     1      44.397  23.484  23.037  0.00  0.00    +0.392 HD
ENDBRANCH  16  17
ENDBRANCH  12  13
BRANCH  24  25
ATOM     25  O   UNL     1      44.808  14.982  19.620  0.00  0.00    -0.468 OA
ATOM     26  H   UNL     1      44.941  15.165  20.561  0.00  0.00    +0.404 HD
ENDBRANCH  24  25
TORSDOF 3
ENDMDL
MODEL 6
REMARK VINA RESULT:      -5.5      2.105      8.051
REMARK  Name = ZINC14417338
REMARK  5 active torsions:
REMARK  status: ('A' for Active; 'I' for Inactive)
REMARK    1  A    between atoms: C1_1  and  C2_2
REMARK    2  A    between atoms: C2_2  and  C20_25
REMARK    3  A    between atoms: C10_10  and  O1_11
REMARK    4  A    between atoms: C12_14  and  C14_17
REMARK    5  A    between atoms: C17_20  and  O4_23
REMARK                            x       y       z     vdW  Elec       q    Type
REMARK                         _______ _______ _______ _____ _____    ______ ____
ROOT
ATOM      1  C   UNL     1      43.108  19.292  22.505  0.00  0.00    +0.089 C 
ATOM      2  C   UNL     1      44.201  18.717  21.602  0.00  0.00    +0.146 C 
ATOM      3  C   UNL     1      45.558  18.871  22.290  0.00  0.00    +0.039 C 
ATOM      4  C   UNL     1      44.217  19.472  20.299  0.00  0.00    -0.047 C 
ATOM      5  C   UNL     1      44.630  18.869  19.185  0.00  0.00    +0.057 C 
ATOM      6  C   UNL     1      45.050  17.456  19.276  0.00  0.00    -0.190 A 
ATOM      7  C   UNL     1      44.673  16.715  20.411  0.00  0.00    +0.214 A 
ATOM      8  C   UNL     1      45.041  15.391  20.534  0.00  0.00    -0.026 A 
ATOM      9  C   UNL     1      45.791  14.775  19.536  0.00  0.00    +0.195 A 
ATOM     10  C   UNL     1      46.171  15.514  18.401  0.00  0.00    -0.278 A 
ATOM     11  C   UNL     1      46.966  14.843  17.359  0.00  0.00    +0.431 A 
ATOM     12  C   UNL     1      47.301  13.428  17.601  0.00  0.00    -0.238 A 
ATOM     21  C   UNL     1      46.863  12.848  18.746  0.00  0.00    +0.327 A 
ATOM     22  O   UNL     1      47.328  15.426  16.351  0.00  0.00    -0.439 OA
ATOM     23  O   UNL     1      46.145  13.483  19.669  0.00  0.00    -0.204 OA
ATOM     24  C   UNL     1      45.800  16.859  18.268  0.00  0.00    +0.246 A 
ATOM     27  O   UNL     1      43.943  17.331  21.376  0.00  0.00    -0.294 OA
ENDROOT
BRANCH  12  13
ATOM     13  C   UNL     1      48.099  12.658  16.617  0.00  0.00    -0.036 A 
ATOM     14  C   UNL     1      47.463  11.992  15.570  0.00  0.00    +0.058 A 
ATOM     15  C   UNL     1      48.208  11.281  14.653  0.00  0.00    -0.010 A 
ATOM     16  C   UNL     1      49.589  11.219  14.778  0.00  0.00    +0.110 A 
ATOM     19  C   UNL     1      50.224  11.876  15.822  0.00  0.00    -0.012 A 
ATOM     20  C   UNL     1      49.486  12.593  16.739  0.00  0.00    +0.034 A 
BRANCH  16  17
ATOM     17  O   UNL     1      50.320  10.512  13.876  0.00  0.00    -0.499 OA
ATOM     18  H   UNL     1      51.212  10.858  13.733  0.00  0.00    +0.392 HD
ENDBRANCH  16  17
ENDBRANCH  12  13
BRANCH  24  25
ATOM     25  O   UNL     1      46.166  17.567  17.171  0.00  0.00    -0.468 OA
ATOM     26  H   UNL     1      47.110  17.518  16.969  0.00  0.00    +0.404 HD
ENDBRANCH  24  25
TORSDOF 3
ENDMDL
MODEL 7
REMARK VINA RESULT:      -5.5      3.730      5.019
REMARK  Name = ZINC14417338
REMARK  5 active torsions:
REMARK  status: ('A' for Active; 'I' for Inactive)
REMARK    1  A    between atoms: C1_1  and  C2_2
REMARK    2  A    between atoms: C2_2  and  C20_25
REMARK    3  A    between atoms: C10_10  and  O1_11
REMARK    4  A    between atoms: C12_14  and  C14_17
REMARK    5  A    between atoms: C17_20  and  O4_23
REMARK                            x       y       z     vdW  Elec       q    Type
REMARK                         _______ _______ _______ _____ _____    ______ ____
ROOT
ATOM      1  C   UNL     1      53.123  16.506  19.231  0.00  0.00    +0.089 C 
ATOM      2  C   UNL     1      51.899  17.272  18.725  0.00  0.00    +0.146 C 
ATOM      3  C   UNL     1      51.609  16.860  17.280  0.00  0.00    +0.039 C 
ATOM      4  C   UNL     1      52.185  18.750  18.771  0.00  0.00    -0.047 C 
ATOM      5  C   UNL     1      51.185  19.616  18.933  0.00  0.00    +0.057 C 
ATOM      6  C   UNL     1      49.816  19.077  19.075  0.00  0.00    -0.190 A 
ATOM      7  C   UNL     1      49.660  17.714  19.386  0.00  0.00    +0.214 A 
ATOM      8  C   UNL     1      48.399  17.172  19.532  0.00  0.00    -0.026 A 
ATOM      9  C   UNL     1      47.269  17.968  19.369  0.00  0.00    +0.195 A 
ATOM     10  C   UNL     1      47.423  19.330  19.055  0.00  0.00    -0.278 A 
ATOM     11  C   UNL     1      46.213  20.153  18.884  0.00  0.00    +0.431 A 
ATOM     12  C   UNL     1      44.923  19.463  19.062  0.00  0.00    -0.238 A 
ATOM     21  C   UNL     1      44.934  18.141  19.365  0.00  0.00    +0.327 A 
ATOM     22  O   UNL     1      46.276  21.339  18.612  0.00  0.00    -0.439 OA
ATOM     23  O   UNL     1      46.046  17.425  19.512  0.00  0.00    -0.204 OA
ATOM     24  C   UNL     1      48.699  19.889  18.907  0.00  0.00    +0.246 A 
ATOM     27  O   UNL     1      50.773  16.952  19.541  0.00  0.00    -0.294 OA
ENDROOT
BRANCH  12  13
ATOM     13  C   UNL     1      43.643  20.197  18.912  0.00  0.00    -0.036 A 
ATOM     14  C   UNL     1      42.564  19.594  18.266  0.00  0.00    +0.058 A 
ATOM     15  C   UNL     1      41.374  20.277  18.134  0.00  0.00    -0.010 A 
ATOM     16  C   UNL     1      41.253  21.568  18.630  0.00  0.00    +0.110 A 
ATOM     19  C   UNL     1      42.326  22.172  19.268  0.00  0.00    -0.012 A 
ATOM     20  C   UNL     1      43.518  21.492  19.409  0.00  0.00    +0.034 A 
BRANCH  16  17
ATOM     17  O   UNL     1      40.079  22.240  18.491  0.00  0.00    -0.499 OA
ATOM     18  H   UNL     1      39.303  21.743  18.786  0.00  0.00    +0.392 HD
ENDBRANCH  16  17
ENDBRANCH  12  13
BRANCH  24  25
ATOM     25  O   UNL     1      48.843  21.203  18.606  0.00  0.00    -0.468 OA
ATOM     26  H   UNL     1      49.534  21.649  19.114  0.00  0.00    +0.404 HD
ENDBRANCH  24  25
TORSDOF 3
ENDMDL
MODEL 8
REMARK VINA RESULT:      -5.5      4.404      7.606
REMARK  Name = ZINC14417338
REMARK  5 active torsions:
REMARK  status: ('A' for Active; 'I' for Inactive)
REMARK    1  A    between atoms: C1_1  and  C2_2
REMARK    2  A    between atoms: C2_2  and  C20_25
REMARK    3  A    between atoms: C10_10  and  O1_11
REMARK    4  A    between atoms: C12_14  and  C14_17
REMARK    5  A    between atoms: C17_20  and  O4_23
REMARK                            x       y       z     vdW  Elec       q    Type
REMARK                         _______ _______ _______ _____ _____    ______ ____
ROOT
ATOM      1  C   UNL     1      39.614  21.494  18.924  0.00  0.00    +0.089 C 
ATOM      2  C   UNL     1      40.843  20.587  19.021  0.00  0.00    +0.146 C 
ATOM      3  C   UNL     1      40.956  19.751  17.745  0.00  0.00    +0.039 C 
ATOM      4  C   UNL     1      40.689  19.667  20.204  0.00  0.00    -0.047 C 
ATOM      5  C   UNL     1      41.768  19.208  20.835  0.00  0.00    +0.057 C 
ATOM      6  C   UNL     1      43.094  19.639  20.346  0.00  0.00    -0.190 A 
ATOM      7  C   UNL     1      43.165  20.758  19.496  0.00  0.00    +0.214 A 
ATOM      8  C   UNL     1      44.384  21.196  19.020  0.00  0.00    -0.026 A 
ATOM      9  C   UNL     1      45.556  20.534  19.373  0.00  0.00    +0.195 A 
ATOM     10  C   UNL     1      45.487  19.412  20.220  0.00  0.00    -0.278 A 
ATOM     11  C   UNL     1      46.739  18.724  20.578  0.00  0.00    +0.431 A 
ATOM     12  C   UNL     1      47.978  19.283  20.007  0.00  0.00    -0.238 A 
ATOM     21  C   UNL     1      47.886  20.372  19.204  0.00  0.00    +0.327 A 
ATOM     22  O   UNL     1      46.749  17.748  21.307  0.00  0.00    -0.439 OA
ATOM     23  O   UNL     1      46.738  20.970  18.900  0.00  0.00    -0.204 OA
ATOM     24  C   UNL     1      44.254  18.962  20.709  0.00  0.00    +0.246 A 
ATOM     27  O   UNL     1      42.013  21.393  19.161  0.00  0.00    -0.294 OA
ENDROOT
BRANCH  12  13
ATOM     13  C   UNL     1      49.294  18.666  20.303  0.00  0.00    -0.036 A 
ATOM     14  C   UNL     1      50.024  19.078  21.416  0.00  0.00    +0.058 A 
ATOM     15  C   UNL     1      51.245  18.499  21.692  0.00  0.00    -0.010 A 
ATOM     16  C   UNL     1      51.753  17.515  20.854  0.00  0.00    +0.110 A 
ATOM     19  C   UNL     1      51.031  17.107  19.742  0.00  0.00    -0.012 A 
ATOM     20  C   UNL     1      49.807  17.678  19.464  0.00  0.00    +0.034 A 
BRANCH  16  17
ATOM     17  O   UNL     1      52.960  16.952  21.125  0.00  0.00    -0.499 OA
ATOM     18  H   UNL     1      53.642  17.146  20.467  0.00  0.00    +0.392 HD
ENDBRANCH  16  17
ENDBRANCH  12  13
BRANCH  24  25
ATOM     25  O   UNL     1      44.192  17.882  21.527  0.00  0.00    -0.468 OA
ATOM     26  H   UNL     1      44.176  17.036  21.060  0.00  0.00    +0.404 HD
ENDBRANCH  24  25
TORSDOF 3
ENDMDL
MODEL 9
REMARK VINA RESULT:      -5.4      2.734      3.236
REMARK  Name = ZINC14417338
REMARK  5 active torsions:
REMARK  status: ('A' for Active; 'I' for Inactive)
REMARK    1  A    between atoms: C1_1  and  C2_2
REMARK    2  A    between atoms: C2_2  and  C20_25
REMARK    3  A    between atoms: C10_10  and  O1_11
REMARK    4  A    between atoms: C12_14  and  C14_17
REMARK    5  A    between atoms: C17_20  and  O4_23
REMARK                            x       y       z     vdW  Elec       q    Type
REMARK                         _______ _______ _______ _____ _____    ______ ____
ROOT
ATOM      1  C   UNL     1      50.279  12.910  21.253  0.00  0.00    +0.089 C 
ATOM      2  C   UNL     1      49.161  13.657  20.523  0.00  0.00    +0.146 C 
ATOM      3  C   UNL     1      48.136  12.648  20.001  0.00  0.00    +0.039 C 
ATOM      4  C   UNL     1      49.747  14.415  19.361  0.00  0.00    -0.047 C 
ATOM      5  C   UNL     1      49.160  15.531  18.930  0.00  0.00    +0.057 C 
ATOM      6  C   UNL     1      47.944  15.991  19.632  0.00  0.00    -0.190 A 
ATOM      7  C   UNL     1      47.663  15.463  20.906  0.00  0.00    +0.214 A 
ATOM      8  C   UNL     1      46.540  15.869  21.597  0.00  0.00    -0.026 A 
ATOM      9  C   UNL     1      45.673  16.804  21.042  0.00  0.00    +0.195 A 
ATOM     10  C   UNL     1      45.950  17.332  19.767  0.00  0.00    -0.278 A 
ATOM     11  C   UNL     1      45.017  18.318  19.197  0.00  0.00    +0.431 A 
ATOM     12  C   UNL     1      43.851  18.672  20.028  0.00  0.00    -0.238 A 
ATOM     21  C   UNL     1      43.718  18.078  21.240  0.00  0.00    +0.327 A 
ATOM     22  O   UNL     1      45.198  18.814  18.098  0.00  0.00    -0.439 OA
ATOM     23  O   UNL     1      44.580  17.190  21.726  0.00  0.00    -0.204 OA
ATOM     24  C   UNL     1      47.089  16.926  19.059  0.00  0.00    +0.246 A 
ATOM     27  O   UNL     1      48.520  14.551  21.433  0.00  0.00    -0.294 OA
ENDROOT
BRANCH  12  13
ATOM     13  C   UNL     1      42.849  19.654  19.549  0.00  0.00    -0.036 A 
ATOM     14  C   UNL     1      43.154  21.014  19.534  0.00  0.00    +0.058 A 
ATOM     15  C   UNL     1      42.222  21.924  19.083  0.00  0.00    -0.010 A 
ATOM     16  C   UNL     1      40.975  21.488  18.655  0.00  0.00    +0.110 A 
ATOM     19  C   UNL     1      40.666  20.136  18.674  0.00  0.00    -0.012 A 
ATOM     20  C   UNL     1      41.596  19.220  19.118  0.00  0.00    +0.034 A 
BRANCH  16  17
ATOM     17  O   UNL     1      40.056  22.389  18.217  0.00  0.00    -0.499 OA
ATOM     18  H   UNL     1      39.765  22.244  17.305  0.00  0.00    +0.392 HD
ENDBRANCH  16  17
ENDBRANCH  12  13
BRANCH  24  25
ATOM     25  O   UNL     1      47.353  17.439  17.832  0.00  0.00    -0.468 OA
ATOM     26  H   UNL     1      48.146  17.993  17.800  0.00  0.00    +0.404 HD
ENDBRANCH  24  25
TORSDOF 3
ENDMDL
