MODEL 1
REMARK VINA RESULT:      -7.1      0.000      0.000
REMARK  Name = ZINC95486320
REMARK  5 active torsions:
REMARK  status: ('A' for Active; 'I' for Inactive)
REMARK    1  A    between atoms: C1_1  and  C2_2
REMARK    2  A    between atoms: C10_11  and  C11_14
REMARK    3  A    between atoms: C16_21  and  O4_29
REMARK    4  A    between atoms: C22_27  and  O3_28
REMARK    5  A    between atoms: O4_29  and  C23_30
REMARK                            x       y       z     vdW  Elec       q    Type
REMARK                         _______ _______ _______ _____ _____    ______ ____
ROOT
ATOM      1  C   UNL     1      39.471  21.586  18.447  0.00  0.00    +0.096 C 
ATOM      2  C   UNL     1      40.832  21.191  19.023  0.00  0.00    +0.167 C 
ATOM      3  C   UNL     1      41.757  22.409  19.034  0.00  0.00    +0.140 C 
ATOM      4  C   UNL     1      43.159  21.980  19.382  0.00  0.00    -0.070 A 
ATOM      5  C   UNL     1      44.075  22.942  19.780  0.00  0.00    +0.041 A 
ATOM      6  C   UNL     1      45.361  22.595  20.114  0.00  0.00    +0.075 A 
ATOM      7  C   UNL     1      45.781  21.255  20.051  0.00  0.00    -0.051 A 
ATOM      8  C   UNL     1      44.851  20.301  19.631  0.00  0.00    +0.147 A 
ATOM      9  O   UNL     1      45.239  19.014  19.507  0.00  0.00    -0.313 OA
ATOM     10  C   UNL     1      46.247  18.767  18.679  0.00  0.00    +0.547 C 
ATOM     11  C   UNL     1      47.646  18.956  19.000  0.00  0.00    -0.238 A 
ATOM     12  C   UNL     1      48.609  18.137  18.419  0.00  0.00    +0.196 A 
ATOM     13  C   UNL     1      49.948  18.284  18.724  0.00  0.00    -0.110 A 
ATOM     14  C   UNL     1      50.355  19.228  19.641  0.00  0.00    +0.225 A 
ATOM     17  C   UNL     1      49.420  20.060  20.288  0.00  0.00    -0.126 A 
ATOM     18  C   UNL     1      49.854  20.910  21.327  0.00  0.00    +0.191 A 
ATOM     21  C   UNL     1      48.949  21.753  21.933  0.00  0.00    -0.021 A 
ATOM     22  C   UNL     1      47.640  21.798  21.497  0.00  0.00    +0.102 A 
ATOM     23  C   UNL     1      48.048  20.023  19.922  0.00  0.00    +0.070 A 
ATOM     24  O   UNL     1      45.975  18.352  17.569  0.00  0.00    -0.452 OA
ATOM     25  C   UNL     1      47.176  20.980  20.459  0.00  0.00    -0.095 A 
ATOM     26  C   UNL     1      43.548  20.658  19.309  0.00  0.00    -0.128 A 
ATOM     27  C   UNL     1      42.590  19.575  18.891  0.00  0.00    +0.235 C 
ATOM     28  C   UNL     1      42.096  18.832  20.135  0.00  0.00    +0.104 C 
ATOM     29  N   UNL     1      41.439  20.144  18.187  0.00  0.00    -0.501 N 
ATOM     30  H   UNL     1      41.746  20.545  17.314  0.00  0.00    +0.429 HD
ATOM     31  H   UNL     1      40.758  19.420  18.006  0.00  0.00    +0.433 HD
ENDROOT
BRANCH  14  15
ATOM     15  O   UNL     1      51.675  19.357  19.926  0.00  0.00    -0.287 OA
ATOM     16  C   UNL     1      52.553  19.614  18.828  0.00  0.00    +0.263 C 
ENDBRANCH  14  15
BRANCH  18  19
ATOM     19  O   UNL     1      51.150  20.895  21.727  0.00  0.00    -0.475 OA
ATOM     20  H   UNL     1      51.310  20.368  22.523  0.00  0.00    +0.404 HD
ENDBRANCH  18  19
TORSDOF 2
ENDMDL
MODEL 2
REMARK VINA RESULT:      -6.6      4.521      8.352
REMARK  Name = ZINC95486320
REMARK  5 active torsions:
REMARK  status: ('A' for Active; 'I' for Inactive)
REMARK    1  A    between atoms: C1_1  and  C2_2
REMARK    2  A    between atoms: C10_11  and  C11_14
REMARK    3  A    between atoms: C16_21  and  O4_29
REMARK    4  A    between atoms: C22_27  and  O3_28
REMARK    5  A    between atoms: O4_29  and  C23_30
REMARK                            x       y       z     vdW  Elec       q    Type
REMARK                         _______ _______ _______ _____ _____    ______ ____
ROOT
ATOM      1  C   UNL     1      50.109  10.880  15.232  0.00  0.00    +0.096 C 
ATOM      2  C   UNL     1      49.543  11.918  16.204  0.00  0.00    +0.167 C 
ATOM      3  C   UNL     1      48.143  11.494  16.649  0.00  0.00    +0.140 C 
ATOM      4  C   UNL     1      47.492  12.614  17.418  0.00  0.00    -0.070 A 
ATOM      5  C   UNL     1      46.380  12.334  18.198  0.00  0.00    +0.041 A 
ATOM      6  C   UNL     1      45.760  13.323  18.921  0.00  0.00    +0.075 A 
ATOM      7  C   UNL     1      46.234  14.646  18.882  0.00  0.00    -0.051 A 
ATOM      8  C   UNL     1      47.344  14.914  18.076  0.00  0.00    +0.147 A 
ATOM      9  O   UNL     1      47.790  16.184  17.972  0.00  0.00    -0.313 OA
ATOM     10  C   UNL     1      46.928  17.089  17.525  0.00  0.00    +0.547 C 
ATOM     11  C   UNL     1      45.902  17.720  18.326  0.00  0.00    -0.238 A 
ATOM     12  C   UNL     1      45.496  19.020  18.039  0.00  0.00    +0.196 A 
ATOM     13  C   UNL     1      44.533  19.651  18.801  0.00  0.00    -0.110 A 
ATOM     14  C   UNL     1      43.974  19.014  19.888  0.00  0.00    +0.225 A 
ATOM     17  C   UNL     1      44.372  17.711  20.247  0.00  0.00    -0.126 A 
ATOM     18  C   UNL     1      43.893  17.148  21.448  0.00  0.00    +0.191 A 
ATOM     21  C   UNL     1      44.249  15.860  21.781  0.00  0.00    -0.021 A 
ATOM     22  C   UNL     1      45.032  15.112  20.926  0.00  0.00    +0.102 A 
ATOM     23  C   UNL     1      45.275  16.981  19.427  0.00  0.00    +0.070 A 
ATOM     24  O   UNL     1      47.007  17.411  16.355  0.00  0.00    -0.452 OA
ATOM     25  C   UNL     1      45.516  15.631  19.719  0.00  0.00    -0.095 A 
ATOM     26  C   UNL     1      47.974  13.906  17.359  0.00  0.00    -0.128 A 
ATOM     27  C   UNL     1      49.184  14.259  16.535  0.00  0.00    +0.235 C 
ATOM     28  C   UNL     1      50.401  14.388  17.454  0.00  0.00    +0.104 C 
ATOM     29  N   UNL     1      49.449  13.224  15.533  0.00  0.00    -0.501 N 
ATOM     30  H   UNL     1      48.696  13.206  14.863  0.00  0.00    +0.429 HD
ATOM     31  H   UNL     1      50.319  13.424  15.061  0.00  0.00    +0.433 HD
ENDROOT
BRANCH  14  15
ATOM     15  O   UNL     1      43.029  19.650  20.622  0.00  0.00    -0.287 OA
ATOM     16  C   UNL     1      41.826  20.024  19.947  0.00  0.00    +0.263 C 
ENDBRANCH  14  15
BRANCH  18  19
ATOM     19  O   UNL     1      43.089  17.869  22.269  0.00  0.00    -0.475 OA
ATOM     20  H   UNL     1      43.553  18.549  22.777  0.00  0.00    +0.404 HD
ENDBRANCH  18  19
TORSDOF 2
ENDMDL
MODEL 3
REMARK VINA RESULT:      -6.2      5.451      7.865
REMARK  Name = ZINC95486320
REMARK  5 active torsions:
REMARK  status: ('A' for Active; 'I' for Inactive)
REMARK    1  A    between atoms: C1_1  and  C2_2
REMARK    2  A    between atoms: C10_11  and  C11_14
REMARK    3  A    between atoms: C16_21  and  O4_29
REMARK    4  A    between atoms: C22_27  and  O3_28
REMARK    5  A    between atoms: O4_29  and  C23_30
REMARK                            x       y       z     vdW  Elec       q    Type
REMARK                         _______ _______ _______ _____ _____    ______ ____
ROOT
ATOM      1  C   UNL     1      44.217  18.604  21.791  0.00  0.00    +0.096 C 
ATOM      2  C   UNL     1      44.775  17.826  20.598  0.00  0.00    +0.167 C 
ATOM      3  C   UNL     1      44.705  16.326  20.885  0.00  0.00    +0.140 C 
ATOM      4  C   UNL     1      45.458  15.568  19.823  0.00  0.00    -0.070 A 
ATOM      5  C   UNL     1      45.241  14.204  19.692  0.00  0.00    +0.041 A 
ATOM      6  C   UNL     1      45.900  13.475  18.732  0.00  0.00    +0.075 A 
ATOM      7  C   UNL     1      46.816  14.094  17.865  0.00  0.00    -0.051 A 
ATOM      8  C   UNL     1      47.036  15.465  18.023  0.00  0.00    +0.147 A 
ATOM      9  O   UNL     1      47.951  16.079  17.243  0.00  0.00    -0.313 OA
ATOM     10  C   UNL     1      49.194  15.615  17.295  0.00  0.00    +0.547 C 
ATOM     11  C   UNL     1      49.669  14.441  16.596  0.00  0.00    -0.238 A 
ATOM     12  C   UNL     1      50.992  14.372  16.171  0.00  0.00    +0.196 A 
ATOM     13  C   UNL     1      51.464  13.271  15.484  0.00  0.00    -0.110 A 
ATOM     14  C   UNL     1      50.620  12.227  15.173  0.00  0.00    +0.225 A 
ATOM     17  C   UNL     1      49.261  12.259  15.546  0.00  0.00    -0.126 A 
ATOM     18  C   UNL     1      48.394  11.247  15.084  0.00  0.00    +0.191 A 
ATOM     21  C   UNL     1      47.075  11.254  15.479  0.00  0.00    -0.021 A 
ATOM     22  C   UNL     1      46.617  12.217  16.356  0.00  0.00    +0.102 A 
ATOM     23  C   UNL     1      48.759  13.316  16.352  0.00  0.00    +0.070 A 
ATOM     24  O   UNL     1      49.992  16.222  17.983  0.00  0.00    -0.452 OA
ATOM     25  C   UNL     1      47.451  13.230  16.847  0.00  0.00    -0.095 A 
ATOM     26  C   UNL     1      46.355  16.198  18.986  0.00  0.00    -0.128 A 
ATOM     27  C   UNL     1      46.619  17.677  19.082  0.00  0.00    +0.235 C 
ATOM     28  C   UNL     1      45.854  18.399  17.970  0.00  0.00    +0.104 C 
ATOM     29  N   UNL     1      46.181  18.199  20.379  0.00  0.00    -0.501 N 
ATOM     30  H   UNL     1      46.753  17.804  21.109  0.00  0.00    +0.429 HD
ATOM     31  H   UNL     1      46.268  19.205  20.387  0.00  0.00    +0.433 HD
ENDROOT
BRANCH  14  15
ATOM     15  O   UNL     1      51.103  11.155  14.499  0.00  0.00    -0.287 OA
ATOM     16  C   UNL     1      52.341  10.606  14.955  0.00  0.00    +0.263 C 
ENDBRANCH  14  15
BRANCH  18  19
ATOM     19  O   UNL     1      48.855  10.277  14.255  0.00  0.00    -0.475 OA
ATOM     20  H   UNL     1      48.204   9.968  13.610  0.00  0.00    +0.404 HD
ENDBRANCH  18  19
TORSDOF 2
ENDMDL
MODEL 4
REMARK VINA RESULT:      -6.1      2.202      3.971
REMARK  Name = ZINC95486320
REMARK  5 active torsions:
REMARK  status: ('A' for Active; 'I' for Inactive)
REMARK    1  A    between atoms: C1_1  and  C2_2
REMARK    2  A    between atoms: C10_11  and  C11_14
REMARK    3  A    between atoms: C16_21  and  O4_29
REMARK    4  A    between atoms: C22_27  and  O3_28
REMARK    5  A    between atoms: O4_29  and  C23_30
REMARK                            x       y       z     vdW  Elec       q    Type
REMARK                         _______ _______ _______ _____ _____    ______ ____
ROOT
ATOM      1  C   UNL     1      40.449  18.900  21.997  0.00  0.00    +0.096 C 
ATOM      2  C   UNL     1      41.661  18.836  21.066  0.00  0.00    +0.167 C 
ATOM      3  C   UNL     1      42.568  17.678  21.483  0.00  0.00    +0.140 C 
ATOM      4  C   UNL     1      43.867  17.749  20.723  0.00  0.00    -0.070 A 
ATOM      5  C   UNL     1      44.685  16.629  20.687  0.00  0.00    +0.041 A 
ATOM      6  C   UNL     1      45.874  16.647  20.000  0.00  0.00    +0.075 A 
ATOM      7  C   UNL     1      46.294  17.805  19.324  0.00  0.00    -0.051 A 
ATOM      8  C   UNL     1      45.467  18.931  19.386  0.00  0.00    +0.147 A 
ATOM      9  O   UNL     1      45.868  20.075  18.794  0.00  0.00    -0.313 OA
ATOM     10  C   UNL     1      47.024  20.588  19.198  0.00  0.00    +0.547 C 
ATOM     11  C   UNL     1      48.328  20.133  18.763  0.00  0.00    -0.238 A 
ATOM     12  C   UNL     1      49.387  21.032  18.686  0.00  0.00    +0.196 A 
ATOM     13  C   UNL     1      50.635  20.627  18.255  0.00  0.00    -0.110 A 
ATOM     14  C   UNL     1      50.848  19.324  17.858  0.00  0.00    +0.225 A 
ATOM     17  C   UNL     1      49.803  18.380  17.881  0.00  0.00    -0.126 A 
ATOM     18  C   UNL     1      50.016  17.100  17.329  0.00  0.00    +0.191 A 
ATOM     21  C   UNL     1      49.008  16.162  17.386  0.00  0.00    -0.021 A 
ATOM     22  C   UNL     1      47.817  16.459  18.017  0.00  0.00    +0.102 A 
ATOM     23  C   UNL     1      48.535  18.722  18.424  0.00  0.00    +0.070 A 
ATOM     24  O   UNL     1      46.985  21.507  19.993  0.00  0.00    -0.452 OA
ATOM     25  C   UNL     1      47.574  17.714  18.589  0.00  0.00    -0.095 A 
ATOM     26  C   UNL     1      44.259  18.899  20.070  0.00  0.00    -0.128 A 
ATOM     27  C   UNL     1      43.404  20.139  20.072  0.00  0.00    +0.235 C 
ATOM     28  C   UNL     1      42.662  20.241  18.737  0.00  0.00    +0.104 C 
ATOM     29  N   UNL     1      42.424  20.091  21.160  0.00  0.00    -0.501 N 
ATOM     30  H   UNL     1      42.905  20.128  22.045  0.00  0.00    +0.429 HD
ATOM     31  H   UNL     1      41.793  20.875  21.084  0.00  0.00    +0.433 HD
ENDROOT
BRANCH  14  15
ATOM     15  O   UNL     1      52.081  18.947  17.439  0.00  0.00    -0.287 OA
ATOM     16  C   UNL     1      52.576  19.554  16.245  0.00  0.00    +0.263 C 
ENDBRANCH  14  15
BRANCH  18  19
ATOM     19  O   UNL     1      51.202  16.795  16.746  0.00  0.00    -0.475 OA
ATOM     20  H   UNL     1      51.179  15.997  16.199  0.00  0.00    +0.404 HD
ENDBRANCH  18  19
TORSDOF 2
ENDMDL
MODEL 5
REMARK VINA RESULT:      -6.1      4.723      8.306
REMARK  Name = ZINC95486320
REMARK  5 active torsions:
REMARK  status: ('A' for Active; 'I' for Inactive)
REMARK    1  A    between atoms: C1_1  and  C2_2
REMARK    2  A    between atoms: C10_11  and  C11_14
REMARK    3  A    between atoms: C16_21  and  O4_29
REMARK    4  A    between atoms: C22_27  and  O3_28
REMARK    5  A    between atoms: O4_29  and  C23_30
REMARK                            x       y       z     vdW  Elec       q    Type
REMARK                         _______ _______ _______ _____ _____    ______ ____
ROOT
ATOM      1  C   UNL     1      50.304  10.424  15.823  0.00  0.00    +0.096 C 
ATOM      2  C   UNL     1      49.249  11.475  16.174  0.00  0.00    +0.167 C 
ATOM      3  C   UNL     1      49.924  12.831  16.381  0.00  0.00    +0.140 C 
ATOM      4  C   UNL     1      48.931  13.813  16.948  0.00  0.00    -0.070 A 
ATOM      5  C   UNL     1      49.223  15.168  16.894  0.00  0.00    +0.041 A 
ATOM      6  C   UNL     1      48.344  16.098  17.391  0.00  0.00    +0.075 A 
ATOM      7  C   UNL     1      47.130  15.697  17.975  0.00  0.00    -0.051 A 
ATOM      8  C   UNL     1      46.860  14.327  18.039  0.00  0.00    +0.147 A 
ATOM      9  O   UNL     1      45.729  13.907  18.643  0.00  0.00    -0.313 OA
ATOM     10  C   UNL     1      45.560  14.257  19.912  0.00  0.00    +0.547 C 
ATOM     11  C   UNL     1      45.088  15.550  20.358  0.00  0.00    -0.238 A 
ATOM     12  C   UNL     1      44.352  15.654  21.534  0.00  0.00    +0.196 A 
ATOM     13  C   UNL     1      43.873  16.874  21.969  0.00  0.00    -0.110 A 
ATOM     14  C   UNL     1      44.086  18.015  21.225  0.00  0.00    +0.225 A 
ATOM     17  C   UNL     1      44.793  17.963  20.008  0.00  0.00    -0.126 A 
ATOM     18  C   UNL     1      44.864  19.117  19.200  0.00  0.00    +0.191 A 
ATOM     21  C   UNL     1      45.587  19.079  18.028  0.00  0.00    -0.021 A 
ATOM     22  C   UNL     1      46.274  17.936  17.671  0.00  0.00    +0.102 A 
ATOM     23  C   UNL     1      45.402  16.752  19.578  0.00  0.00    +0.070 A 
ATOM     24  O   UNL     1      45.823  13.429  20.764  0.00  0.00    -0.452 OA
ATOM     25  C   UNL     1      46.239  16.776  18.454  0.00  0.00    -0.095 A 
ATOM     26  C   UNL     1      47.748  13.394  17.520  0.00  0.00    -0.128 A 
ATOM     27  C   UNL     1      47.381  11.935  17.595  0.00  0.00    +0.235 C 
ATOM     28  C   UNL     1      46.371  11.612  16.491  0.00  0.00    +0.104 C 
ATOM     29  N   UNL     1      48.566  11.093  17.420  0.00  0.00    -0.501 N 
ATOM     30  H   UNL     1      49.190  11.226  18.201  0.00  0.00    +0.429 HD
ATOM     31  H   UNL     1      48.289  10.123  17.369  0.00  0.00    +0.433 HD
ENDROOT
BRANCH  14  15
ATOM     15  O   UNL     1      43.608  19.202  21.671  0.00  0.00    -0.287 OA
ATOM     16  C   UNL     1      42.450  19.164  22.505  0.00  0.00    +0.263 C 
ENDBRANCH  14  15
BRANCH  18  19
ATOM     19  O   UNL     1      44.223  20.253  19.572  0.00  0.00    -0.475 OA
ATOM     20  H   UNL     1      44.812  21.004  19.729  0.00  0.00    +0.404 HD
ENDBRANCH  18  19
TORSDOF 2
ENDMDL
MODEL 6
REMARK VINA RESULT:      -6.1      2.804      7.298
REMARK  Name = ZINC95486320
REMARK  5 active torsions:
REMARK  status: ('A' for Active; 'I' for Inactive)
REMARK    1  A    between atoms: C1_1  and  C2_2
REMARK    2  A    between atoms: C10_11  and  C11_14
REMARK    3  A    between atoms: C16_21  and  O4_29
REMARK    4  A    between atoms: C22_27  and  O3_28
REMARK    5  A    between atoms: O4_29  and  C23_30
REMARK                            x       y       z     vdW  Elec       q    Type
REMARK                         _______ _______ _______ _____ _____    ______ ____
ROOT
ATOM      1  C   UNL     1      53.746  16.702  20.921  0.00  0.00    +0.096 C 
ATOM      2  C   UNL     1      52.588  17.634  20.557  0.00  0.00    +0.167 C 
ATOM      3  C   UNL     1      51.878  18.091  21.831  0.00  0.00    +0.140 C 
ATOM      4  C   UNL     1      50.607  18.817  21.473  0.00  0.00    -0.070 A 
ATOM      5  C   UNL     1      49.991  19.604  22.435  0.00  0.00    +0.041 A 
ATOM      6  C   UNL     1      48.835  20.290  22.149  0.00  0.00    +0.075 A 
ATOM      7  C   UNL     1      48.246  20.202  20.876  0.00  0.00    -0.051 A 
ATOM      8  C   UNL     1      48.869  19.390  19.925  0.00  0.00    +0.147 A 
ATOM      9  O   UNL     1      48.298  19.241  18.711  0.00  0.00    -0.313 OA
ATOM     10  C   UNL     1      47.062  18.759  18.684  0.00  0.00    +0.547 C 
ATOM     11  C   UNL     1      45.866  19.534  18.937  0.00  0.00    -0.238 A 
ATOM     12  C   UNL     1      44.673  19.199  18.304  0.00  0.00    +0.196 A 
ATOM     13  C   UNL     1      43.524  19.935  18.514  0.00  0.00    -0.110 A 
ATOM     14  C   UNL     1      43.544  21.044  19.332  0.00  0.00    +0.225 A 
ATOM     17  C   UNL     1      44.732  21.451  19.971  0.00  0.00    -0.126 A 
ATOM     18  C   UNL     1      44.753  22.670  20.679  0.00  0.00    +0.191 A 
ATOM     21  C   UNL     1      45.901  23.051  21.337  0.00  0.00    -0.021 A 
ATOM     22  C   UNL     1      47.008  22.225  21.339  0.00  0.00    +0.102 A 
ATOM     23  C   UNL     1      45.909  20.660  19.876  0.00  0.00    +0.070 A 
ATOM     24  O   UNL     1      46.924  17.578  18.428  0.00  0.00    -0.452 OA
ATOM     25  C   UNL     1      47.020  21.001  20.659  0.00  0.00    -0.095 A 
ATOM     26  C   UNL     1      50.046  18.712  20.217  0.00  0.00    -0.128 A 
ATOM     27  C   UNL     1      50.680  17.878  19.136  0.00  0.00    +0.235 C 
ATOM     28  C   UNL     1      51.431  18.795  18.167  0.00  0.00    +0.104 C 
ATOM     29  N   UNL     1      51.624  16.916  19.710  0.00  0.00    -0.501 N 
ATOM     30  H   UNL     1      51.118  16.244  20.268  0.00  0.00    +0.429 HD
ATOM     31  H   UNL     1      52.115  16.438  18.969  0.00  0.00    +0.433 HD
ENDROOT
BRANCH  14  15
ATOM     15  O   UNL     1      42.404  21.751  19.526  0.00  0.00    -0.287 OA
ATOM     16  C   UNL     1      41.290  21.429  18.692  0.00  0.00    +0.263 C 
ENDBRANCH  14  15
BRANCH  18  19
ATOM     19  O   UNL     1      43.652  23.462  20.711  0.00  0.00    -0.475 OA
ATOM     20  H   UNL     1      42.864  23.028  21.069  0.00  0.00    +0.404 HD
ENDBRANCH  18  19
TORSDOF 2
ENDMDL
MODEL 7
REMARK VINA RESULT:      -5.9      5.357      8.891
REMARK  Name = ZINC95486320
REMARK  5 active torsions:
REMARK  status: ('A' for Active; 'I' for Inactive)
REMARK    1  A    between atoms: C1_1  and  C2_2
REMARK    2  A    between atoms: C10_11  and  C11_14
REMARK    3  A    between atoms: C16_21  and  O4_29
REMARK    4  A    between atoms: C22_27  and  O3_28
REMARK    5  A    between atoms: O4_29  and  C23_30
REMARK                            x       y       z     vdW  Elec       q    Type
REMARK                         _______ _______ _______ _____ _____    ______ ____
ROOT
ATOM      1  C   UNL     1      51.420  10.639  12.900  0.00  0.00    +0.096 C 
ATOM      2  C   UNL     1      50.598  11.718  13.608  0.00  0.00    +0.167 C 
ATOM      3  C   UNL     1      51.468  12.425  14.649  0.00  0.00    +0.140 C 
ATOM      4  C   UNL     1      50.611  13.323  15.502  0.00  0.00    -0.070 A 
ATOM      5  C   UNL     1      51.224  14.303  16.269  0.00  0.00    +0.041 A 
ATOM      6  C   UNL     1      50.482  15.149  17.056  0.00  0.00    +0.075 A 
ATOM      7  C   UNL     1      49.082  15.035  17.109  0.00  0.00    -0.051 A 
ATOM      8  C   UNL     1      48.482  14.031  16.345  0.00  0.00    +0.147 A 
ATOM      9  O   UNL     1      47.145  13.859  16.416  0.00  0.00    -0.313 OA
ATOM     10  C   UNL     1      46.635  13.604  17.615  0.00  0.00    +0.547 C 
ATOM     11  C   UNL     1      46.367  14.601  18.629  0.00  0.00    -0.238 A 
ATOM     12  C   UNL     1      45.317  14.418  19.523  0.00  0.00    +0.196 A 
ATOM     13  C   UNL     1      45.029  15.364  20.487  0.00  0.00    -0.110 A 
ATOM     14  C   UNL     1      45.759  16.531  20.561  0.00  0.00    +0.225 A 
ATOM     17  C   UNL     1      46.810  16.786  19.659  0.00  0.00    -0.126 A 
ATOM     18  C   UNL     1      47.437  18.049  19.666  0.00  0.00    +0.191 A 
ATOM     21  C   UNL     1      48.491  18.287  18.812  0.00  0.00    -0.021 A 
ATOM     22  C   UNL     1      48.958  17.283  17.988  0.00  0.00    +0.102 A 
ATOM     23  C   UNL     1      47.216  15.793  18.726  0.00  0.00    +0.070 A 
ATOM     24  O   UNL     1      46.374  12.446  17.880  0.00  0.00    -0.452 OA
ATOM     25  C   UNL     1      48.371  16.012  17.962  0.00  0.00    -0.095 A 
ATOM     26  C   UNL     1      49.239  13.189  15.540  0.00  0.00    -0.128 A 
ATOM     27  C   UNL     1      48.525  12.148  14.720  0.00  0.00    +0.235 C 
ATOM     28  C   UNL     1      47.917  12.810  13.481  0.00  0.00    +0.104 C 
ATOM     29  N   UNL     1      49.453  11.098  14.292  0.00  0.00    -0.501 N 
ATOM     30  H   UNL     1      49.778  10.589  15.100  0.00  0.00    +0.429 HD
ATOM     31  H   UNL     1      48.984  10.466  13.660  0.00  0.00    +0.433 HD
ENDROOT
BRANCH  14  15
ATOM     15  O   UNL     1      45.461  17.446  21.516  0.00  0.00    -0.287 OA
ATOM     16  C   UNL     1      44.093  17.544  21.917  0.00  0.00    +0.263 C 
ENDBRANCH  14  15
BRANCH  18  19
ATOM     19  O   UNL     1      47.004  19.023  20.506  0.00  0.00    -0.475 OA
ATOM     20  H   UNL     1      46.795  18.710  21.397  0.00  0.00    +0.404 HD
ENDBRANCH  18  19
TORSDOF 2
ENDMDL
MODEL 8
REMARK VINA RESULT:      -5.8      3.139      7.857
REMARK  Name = ZINC95486320
REMARK  5 active torsions:
REMARK  status: ('A' for Active; 'I' for Inactive)
REMARK    1  A    between atoms: C1_1  and  C2_2
REMARK    2  A    between atoms: C10_11  and  C11_14
REMARK    3  A    between atoms: C16_21  and  O4_29
REMARK    4  A    between atoms: C22_27  and  O3_28
REMARK    5  A    between atoms: O4_29  and  C23_30
REMARK                            x       y       z     vdW  Elec       q    Type
REMARK                         _______ _______ _______ _____ _____    ______ ____
ROOT
ATOM      1  C   UNL     1      54.442  15.782  19.506  0.00  0.00    +0.096 C 
ATOM      2  C   UNL     1      53.019  16.291  19.745  0.00  0.00    +0.167 C 
ATOM      3  C   UNL     1      52.379  16.675  18.410  0.00  0.00    +0.140 C 
ATOM      4  C   UNL     1      51.074  17.387  18.657  0.00  0.00    -0.070 A 
ATOM      5  C   UNL     1      50.174  17.517  17.610  0.00  0.00    +0.041 A 
ATOM      6  C   UNL     1      48.970  18.151  17.792  0.00  0.00    +0.075 A 
ATOM      7  C   UNL     1      48.626  18.692  19.042  0.00  0.00    -0.051 A 
ATOM      8  C   UNL     1      49.552  18.569  20.081  0.00  0.00    +0.147 A 
ATOM      9  O   UNL     1      49.276  19.126  21.279  0.00  0.00    -0.313 OA
ATOM     10  C   UNL     1      49.050  20.433  21.296  0.00  0.00    +0.547 C 
ATOM     11  C   UNL     1      47.797  21.061  20.932  0.00  0.00    -0.238 A 
ATOM     12  C   UNL     1      47.413  22.251  21.542  0.00  0.00    +0.196 A 
ATOM     13  C   UNL     1      46.214  22.859  21.227  0.00  0.00    -0.110 A 
ATOM     14  C   UNL     1      45.352  22.277  20.322  0.00  0.00    +0.225 A 
ATOM     17  C   UNL     1      45.673  21.053  19.701  0.00  0.00    -0.126 A 
ATOM     18  C   UNL     1      44.708  20.413  18.896  0.00  0.00    +0.191 A 
ATOM     21  C   UNL     1      45.033  19.237  18.256  0.00  0.00    -0.021 A 
ATOM     22  C   UNL     1      46.306  18.714  18.366  0.00  0.00    +0.102 A 
ATOM     23  C   UNL     1      46.944  20.451  19.907  0.00  0.00    +0.070 A 
ATOM     24  O   UNL     1      49.963  21.158  21.642  0.00  0.00    -0.452 OA
ATOM     25  C   UNL     1      47.295  19.329  19.144  0.00  0.00    -0.095 A 
ATOM     26  C   UNL     1      50.761  17.912  19.893  0.00  0.00    -0.128 A 
ATOM     27  C   UNL     1      51.701  17.790  21.063  0.00  0.00    +0.235 C 
ATOM     28  C   UNL     1      51.217  16.667  21.983  0.00  0.00    +0.104 C 
ATOM     29  N   UNL     1      53.059  17.482  20.608  0.00  0.00    -0.501 N 
ATOM     30  H   UNL     1      53.423  18.265  20.087  0.00  0.00    +0.429 HD
ATOM     31  H   UNL     1      53.652  17.301  21.406  0.00  0.00    +0.433 HD
ENDROOT
BRANCH  14  15
ATOM     15  O   UNL     1      44.180  22.890  20.025  0.00  0.00    -0.287 OA
ATOM     16  C   UNL     1      44.255  24.104  19.276  0.00  0.00    +0.263 C 
ENDBRANCH  14  15
BRANCH  18  19
ATOM     19  O   UNL     1      43.470  20.948  18.756  0.00  0.00    -0.475 OA
ATOM     20  H   UNL     1      43.458  21.800  18.297  0.00  0.00    +0.404 HD
ENDBRANCH  18  19
TORSDOF 2
ENDMDL
MODEL 9
REMARK VINA RESULT:      -5.8      4.599      6.723
REMARK  Name = ZINC95486320
REMARK  5 active torsions:
REMARK  status: ('A' for Active; 'I' for Inactive)
REMARK    1  A    between atoms: C1_1  and  C2_2
REMARK    2  A    between atoms: C10_11  and  C11_14
REMARK    3  A    between atoms: C16_21  and  O4_29
REMARK    4  A    between atoms: C22_27  and  O3_28
REMARK    5  A    between atoms: O4_29  and  C23_30
REMARK                            x       y       z     vdW  Elec       q    Type
REMARK                         _______ _______ _______ _____ _____    ______ ____
ROOT
ATOM      1  C   UNL     1      46.939  11.599  15.655  0.00  0.00    +0.096 C 
ATOM      2  C   UNL     1      47.410  13.023  15.962  0.00  0.00    +0.167 C 
ATOM      3  C   UNL     1      48.924  13.027  16.174  0.00  0.00    +0.140 C 
ATOM      4  C   UNL     1      49.361  14.370  16.698  0.00  0.00    -0.070 A 
ATOM      5  C   UNL     1      50.704  14.709  16.637  0.00  0.00    +0.041 A 
ATOM      6  C   UNL     1      51.145  15.926  17.097  0.00  0.00    +0.075 A 
ATOM      7  C   UNL     1      50.244  16.854  17.648  0.00  0.00    -0.051 A 
ATOM      8  C   UNL     1      48.897  16.489  17.719  0.00  0.00    +0.147 A 
ATOM      9  O   UNL     1      48.016  17.334  18.294  0.00  0.00    -0.313 OA
ATOM     10  C   UNL     1      48.251  17.682  19.553  0.00  0.00    +0.547 C 
ATOM     11  C   UNL     1      49.198  18.694  19.969  0.00  0.00    -0.238 A 
ATOM     12  C   UNL     1      48.960  19.437  21.121  0.00  0.00    +0.196 A 
ATOM     13  C   UNL     1      49.839  20.423  21.527  0.00  0.00    -0.110 A 
ATOM     14  C   UNL     1      50.957  20.715  20.776  0.00  0.00    +0.225 A 
ATOM     17  C   UNL     1      51.229  20.019  19.582  0.00  0.00    -0.126 A 
ATOM     18  C   UNL     1      52.296  20.442  18.763  0.00  0.00    +0.191 A 
ATOM     21  C   UNL     1      52.588  19.740  17.615  0.00  0.00    -0.021 A 
ATOM     22  C   UNL     1      51.871  18.605  17.292  0.00  0.00    +0.102 A 
ATOM     23  C   UNL     1      50.416  18.922  19.185  0.00  0.00    +0.070 A 
ATOM     24  O   UNL     1      47.623  17.107  20.422  0.00  0.00    -0.452 OA
ATOM     25  C   UNL     1      50.813  18.146  18.087  0.00  0.00    -0.095 A 
ATOM     26  C   UNL     1      48.458  15.262  17.239  0.00  0.00    -0.128 A 
ATOM     27  C   UNL     1      46.988  14.945  17.319  0.00  0.00    +0.235 C 
ATOM     28  C   UNL     1      46.253  15.670  16.189  0.00  0.00    +0.104 C 
ATOM     29  N   UNL     1      46.760  13.504  17.190  0.00  0.00    -0.501 N 
ATOM     30  H   UNL     1      47.154  13.030  17.989  0.00  0.00    +0.429 HD
ATOM     31  H   UNL     1      45.768  13.320  17.142  0.00  0.00    +0.433 HD
ENDROOT
BRANCH  14  15
ATOM     15  O   UNL     1      51.808  21.684  21.194  0.00  0.00    -0.287 OA
ATOM     16  C   UNL     1      52.381  21.529  22.493  0.00  0.00    +0.263 C 
ENDBRANCH  14  15
BRANCH  18  19
ATOM     19  O   UNL     1      53.028  21.533  19.102  0.00  0.00    -0.475 OA
ATOM     20  H   UNL     1      52.574  22.374  18.954  0.00  0.00    +0.404 HD
ENDBRANCH  18  19
TORSDOF 2
ENDMDL
