MODEL 1
REMARK VINA RESULT:      -5.9      0.000      0.000
REMARK  Name = ZINC95486325
REMARK  8 active torsions:
REMARK  status: ('A' for Active; 'I' for Inactive)
REMARK    1  A    between atoms: C1_1  and  C2_2
REMARK    2  A    between atoms: C3_3  and  O7_30
REMARK    3  A    between atoms: C5_6  and  C7_9
REMARK    4  A    between atoms: C8_10  and  O6_28
REMARK    5  A    between atoms: C12_14  and  O3_15
REMARK    6  A    between atoms: O3_15  and  C13_16
REMARK    7  A    between atoms: C16_20  and  C17_22
REMARK    8  A    between atoms: O6_28  and  C23_29
REMARK                            x       y       z     vdW  Elec       q    Type
REMARK                         _______ _______ _______ _____ _____    ______ ____
ROOT
ATOM      8  C   UNL     1      48.365  18.139  18.960  0.00  0.00    -0.110 A 
ATOM      9  C   UNL     1      47.653  17.633  17.864  0.00  0.00    +0.226 A 
ATOM     12  C   UNL     1      46.342  18.015  17.640  0.00  0.00    -0.090 A 
ATOM     13  C   UNL     1      45.719  18.907  18.501  0.00  0.00    +0.211 A 
ATOM     14  C   UNL     1      46.426  19.420  19.603  0.00  0.00    -0.283 A 
ATOM     15  C   UNL     1      45.740  20.365  20.500  0.00  0.00    +0.425 A 
ATOM     16  C   UNL     1      44.399  20.699  20.191  0.00  0.00    -0.142 A 
ATOM     17  C   UNL     1      43.804  20.147  19.101  0.00  0.00    +0.203 A 
ATOM     24  O   UNL     1      46.305  20.842  21.471  0.00  0.00    -0.452 OA
ATOM     25  O   UNL     1      44.440  19.287  18.291  0.00  0.00    -0.218 OA
ATOM     26  C   UNL     1      47.750  19.031  19.836  0.00  0.00    +0.246 A 
ENDROOT
BRANCH   8   7
ATOM      1  C   UNL     1      53.766  16.433  19.936  0.00  0.00    +0.182 C 
ATOM      2  C   UNL     1      52.370  16.920  19.642  0.00  0.00    +0.077 A 
ATOM      3  C   UNL     1      52.196  17.926  18.757  0.00  0.00    -0.055 A 
ATOM      6  C   UNL     1      50.878  18.382  18.483  0.00  0.00    +0.387 A 
ATOM      7  C   UNL     1      49.770  17.722  19.189  0.00  0.00    -0.221 A 
ATOM     29  C   UNL     1      50.068  16.718  20.060  0.00  0.00    +0.341 A 
ATOM     30  O   UNL     1      50.673  19.288  17.691  0.00  0.00    -0.481 OA
ATOM     31  O   UNL     1      51.335  16.341  20.261  0.00  0.00    -0.191 OA
BRANCH   3   4
ATOM      4  O   UNL     1      53.268  18.494  18.138  0.00  0.00    -0.455 OA
ATOM      5  H   UNL     1      53.099  18.754  17.221  0.00  0.00    +0.407 HD
ENDBRANCH   3   4
ENDBRANCH   8   7
BRANCH  17  18
ATOM     18  C   UNL     1      42.405  20.508  18.797  0.00  0.00    -0.073 A 
ATOM     19  C   UNL     1      41.494  19.521  18.417  0.00  0.00    +0.056 A 
ATOM     20  C   UNL     1      40.188  19.865  18.134  0.00  0.00    +0.014 A 
ATOM     21  C   UNL     1      39.781  21.184  18.225  0.00  0.00    +0.037 A 
ATOM     22  C   UNL     1      40.679  22.167  18.600  0.00  0.00    +0.009 A 
ATOM     23  C   UNL     1      41.987  21.836  18.891  0.00  0.00    +0.054 A 
ENDBRANCH  17  18
BRANCH   9  10
ATOM     10  O   UNL     1      48.254  16.760  17.016  0.00  0.00    -0.295 OA
ATOM     11  C   UNL     1      47.738  15.428  16.983  0.00  0.00    +0.256 C 
ENDBRANCH   9  10
BRANCH  26  27
ATOM     27  O   UNL     1      48.431  19.522  20.902  0.00  0.00    -0.315 OA
ATOM     28  C   UNL     1      49.252  20.670  20.675  0.00  0.00    +0.249 C 
ENDBRANCH  26  27
TORSDOF 5
ENDMDL
MODEL 2
REMARK VINA RESULT:      -5.8      3.690      5.440
REMARK  Name = ZINC95486325
REMARK  8 active torsions:
REMARK  status: ('A' for Active; 'I' for Inactive)
REMARK    1  A    between atoms: C1_1  and  C2_2
REMARK    2  A    between atoms: C3_3  and  O7_30
REMARK    3  A    between atoms: C5_6  and  C7_9
REMARK    4  A    between atoms: C8_10  and  O6_28
REMARK    5  A    between atoms: C12_14  and  O3_15
REMARK    6  A    between atoms: O3_15  and  C13_16
REMARK    7  A    between atoms: C16_20  and  C17_22
REMARK    8  A    between atoms: O6_28  and  C23_29
REMARK                            x       y       z     vdW  Elec       q    Type
REMARK                         _______ _______ _______ _____ _____    ______ ____
ROOT
ATOM      8  C   UNL     1      49.117  13.668  16.884  0.00  0.00    -0.110 A 
ATOM      9  C   UNL     1      47.869  13.118  17.207  0.00  0.00    +0.226 A 
ATOM     12  C   UNL     1      46.852  13.921  17.693  0.00  0.00    -0.090 A 
ATOM     13  C   UNL     1      47.058  15.281  17.864  0.00  0.00    +0.211 A 
ATOM     14  C   UNL     1      48.307  15.842  17.542  0.00  0.00    -0.283 A 
ATOM     15  C   UNL     1      48.499  17.290  17.734  0.00  0.00    +0.425 A 
ATOM     16  C   UNL     1      47.401  18.031  18.235  0.00  0.00    -0.142 A 
ATOM     17  C   UNL     1      46.234  17.393  18.516  0.00  0.00    +0.203 A 
ATOM     24  O   UNL     1      49.562  17.829  17.472  0.00  0.00    -0.452 OA
ATOM     25  O   UNL     1      46.072  16.074  18.336  0.00  0.00    -0.218 OA
ATOM     26  C   UNL     1      49.341  15.032  17.058  0.00  0.00    +0.246 A 
ENDROOT
BRANCH   8   7
ATOM      1  C   UNL     1      53.356  10.278  14.995  0.00  0.00    +0.182 C 
ATOM      2  C   UNL     1      52.227  11.175  15.435  0.00  0.00    +0.077 A 
ATOM      3  C   UNL     1      51.405  11.704  14.503  0.00  0.00    -0.055 A 
ATOM      6  C   UNL     1      50.342  12.549  14.923  0.00  0.00    +0.387 A 
ATOM      7  C   UNL     1      50.200  12.798  16.365  0.00  0.00    -0.221 A 
ATOM     29  C   UNL     1      51.090  12.208  17.211  0.00  0.00    +0.341 A 
ATOM     30  O   UNL     1      49.575  13.050  14.116  0.00  0.00    -0.481 OA
ATOM     31  O   UNL     1      52.062  11.421  16.739  0.00  0.00    -0.191 OA
BRANCH   3   4
ATOM      4  O   UNL     1      51.593  11.433  13.182  0.00  0.00    -0.455 OA
ATOM      5  H   UNL     1      50.913  11.806  12.604  0.00  0.00    +0.407 HD
ENDBRANCH   3   4
ENDBRANCH   8   7
BRANCH  17  18
ATOM     18  C   UNL     1      45.101  18.184  19.037  0.00  0.00    -0.073 A 
ATOM     19  C   UNL     1      44.416  17.759  20.177  0.00  0.00    +0.056 A 
ATOM     20  C   UNL     1      43.358  18.503  20.659  0.00  0.00    +0.014 A 
ATOM     21  C   UNL     1      42.976  19.666  20.015  0.00  0.00    +0.037 A 
ATOM     22  C   UNL     1      43.650  20.092  18.885  0.00  0.00    +0.009 A 
ATOM     23  C   UNL     1      44.713  19.361  18.395  0.00  0.00    +0.054 A 
ENDBRANCH  17  18
BRANCH   9  10
ATOM     10  O   UNL     1      47.657  11.788  17.042  0.00  0.00    -0.295 OA
ATOM     11  C   UNL     1      46.670  11.402  16.083  0.00  0.00    +0.256 C 
ENDBRANCH   9  10
BRANCH  26  27
ATOM     27  O   UNL     1      50.548  15.572  16.752  0.00  0.00    -0.315 OA
ATOM     28  C   UNL     1      51.549  15.545  17.772  0.00  0.00    +0.249 C 
ENDBRANCH  26  27
TORSDOF 5
ENDMDL
MODEL 3
REMARK VINA RESULT:      -5.8      3.921      5.781
REMARK  Name = ZINC95486325
REMARK  8 active torsions:
REMARK  status: ('A' for Active; 'I' for Inactive)
REMARK    1  A    between atoms: C1_1  and  C2_2
REMARK    2  A    between atoms: C3_3  and  O7_30
REMARK    3  A    between atoms: C5_6  and  C7_9
REMARK    4  A    between atoms: C8_10  and  O6_28
REMARK    5  A    between atoms: C12_14  and  O3_15
REMARK    6  A    between atoms: O3_15  and  C13_16
REMARK    7  A    between atoms: C16_20  and  C17_22
REMARK    8  A    between atoms: O6_28  and  C23_29
REMARK                            x       y       z     vdW  Elec       q    Type
REMARK                         _______ _______ _______ _____ _____    ______ ____
ROOT
ATOM      8  C   UNL     1      48.356  13.234  17.154  0.00  0.00    -0.110 A 
ATOM      9  C   UNL     1      47.229  12.574  17.662  0.00  0.00    +0.226 A 
ATOM     12  C   UNL     1      46.267  13.269  18.374  0.00  0.00    -0.090 A 
ATOM     13  C   UNL     1      46.410  14.631  18.591  0.00  0.00    +0.211 A 
ATOM     14  C   UNL     1      47.537  15.303  18.085  0.00  0.00    -0.283 A 
ATOM     15  C   UNL     1      47.662  16.750  18.330  0.00  0.00    +0.425 A 
ATOM     16  C   UNL     1      46.629  17.377  19.068  0.00  0.00    -0.142 A 
ATOM     17  C   UNL     1      45.580  16.637  19.514  0.00  0.00    +0.203 A 
ATOM     24  O   UNL     1      48.619  17.383  17.914  0.00  0.00    -0.452 OA
ATOM     25  O   UNL     1      45.477  15.319  19.284  0.00  0.00    -0.218 OA
ATOM     26  C   UNL     1      48.515  14.602  17.370  0.00  0.00    +0.246 A 
ENDROOT
BRANCH   8   7
ATOM      1  C   UNL     1      52.384  10.277  14.317  0.00  0.00    +0.182 C 
ATOM      2  C   UNL     1      51.303  11.065  15.010  0.00  0.00    +0.077 A 
ATOM      3  C   UNL     1      50.332  11.644  14.269  0.00  0.00    -0.055 A 
ATOM      6  C   UNL     1      49.314  12.385  14.927  0.00  0.00    +0.387 A 
ATOM      7  C   UNL     1      49.379  12.478  16.393  0.00  0.00    -0.221 A 
ATOM     29  C   UNL     1      50.406  11.852  17.032  0.00  0.00    +0.341 A 
ATOM     30  O   UNL     1      48.417  12.925  14.298  0.00  0.00    -0.481 OA
ATOM     31  O   UNL     1      51.325  11.168  16.343  0.00  0.00    -0.191 OA
BRANCH   3   4
ATOM      4  O   UNL     1      50.331  11.518  12.913  0.00  0.00    -0.455 OA
ATOM      5  H   UNL     1      50.620  12.313  12.445  0.00  0.00    +0.407 HD
ENDBRANCH   3   4
ENDBRANCH   8   7
BRANCH  17  18
ATOM     18  C   UNL     1      44.513  17.310  20.282  0.00  0.00    -0.073 A 
ATOM     19  C   UNL     1      44.020  16.731  21.453  0.00  0.00    +0.056 A 
ATOM     20  C   UNL     1      43.022  17.365  22.164  0.00  0.00    +0.014 A 
ATOM     21  C   UNL     1      42.510  18.571  21.720  0.00  0.00    +0.037 A 
ATOM     22  C   UNL     1      42.994  19.150  20.561  0.00  0.00    +0.009 A 
ATOM     23  C   UNL     1      43.995  18.530  19.842  0.00  0.00    +0.054 A 
ENDBRANCH  17  18
BRANCH   9  10
ATOM     10  O   UNL     1      47.080  11.240  17.454  0.00  0.00    -0.295 OA
ATOM     11  C   UNL     1      46.157  10.842  16.438  0.00  0.00    +0.256 C 
ENDBRANCH   9  10
BRANCH  26  27
ATOM     27  O   UNL     1      49.605  15.249  16.886  0.00  0.00    -0.315 OA
ATOM     28  C   UNL     1      50.784  15.231  17.694  0.00  0.00    +0.249 C 
ENDBRANCH  26  27
TORSDOF 5
ENDMDL
MODEL 4
REMARK VINA RESULT:      -5.6      4.074      6.067
REMARK  Name = ZINC95486325
REMARK  8 active torsions:
REMARK  status: ('A' for Active; 'I' for Inactive)
REMARK    1  A    between atoms: C1_1  and  C2_2
REMARK    2  A    between atoms: C3_3  and  O7_30
REMARK    3  A    between atoms: C5_6  and  C7_9
REMARK    4  A    between atoms: C8_10  and  O6_28
REMARK    5  A    between atoms: C12_14  and  O3_15
REMARK    6  A    between atoms: O3_15  and  C13_16
REMARK    7  A    between atoms: C16_20  and  C17_22
REMARK    8  A    between atoms: O6_28  and  C23_29
REMARK                            x       y       z     vdW  Elec       q    Type
REMARK                         _______ _______ _______ _____ _____    ______ ____
ROOT
ATOM      8  C   UNL     1      49.753  13.835  17.264  0.00  0.00    -0.110 A 
ATOM      9  C   UNL     1      50.025  15.207  17.360  0.00  0.00    +0.226 A 
ATOM     12  C   UNL     1      49.108  16.068  17.936  0.00  0.00    -0.090 A 
ATOM     13  C   UNL     1      47.906  15.579  18.426  0.00  0.00    +0.211 A 
ATOM     14  C   UNL     1      47.624  14.205  18.334  0.00  0.00    -0.283 A 
ATOM     15  C   UNL     1      46.339  13.714  18.862  0.00  0.00    +0.425 A 
ATOM     16  C   UNL     1      45.463  14.667  19.435  0.00  0.00    -0.142 A 
ATOM     17  C   UNL     1      45.830  15.975  19.475  0.00  0.00    +0.203 A 
ATOM     24  O   UNL     1      46.042  12.531  18.809  0.00  0.00    -0.452 OA
ATOM     25  O   UNL     1      47.004  16.411  18.991  0.00  0.00    -0.218 OA
ATOM     26  C   UNL     1      48.546  13.332  17.746  0.00  0.00    +0.246 A 
ENDROOT
BRANCH   8   7
ATOM      1  C   UNL     1      53.645  10.277  14.981  0.00  0.00    +0.182 C 
ATOM      2  C   UNL     1      52.604  11.220  15.526  0.00  0.00    +0.077 A 
ATOM      3  C   UNL     1      51.750  11.823  14.670  0.00  0.00    -0.055 A 
ATOM      6  C   UNL     1      50.769  12.712  15.189  0.00  0.00    +0.387 A 
ATOM      7  C   UNL     1      50.744  12.923  16.644  0.00  0.00    -0.221 A 
ATOM     29  C   UNL     1      51.657  12.259  17.407  0.00  0.00    +0.341 A 
ATOM     30  O   UNL     1      49.976  13.279  14.454  0.00  0.00    -0.481 OA
ATOM     31  O   UNL     1      52.546  11.434  16.845  0.00  0.00    -0.191 OA
BRANCH   3   4
ATOM      4  O   UNL     1      51.828  11.583  13.333  0.00  0.00    -0.455 OA
ATOM      5  H   UNL     1      52.260  12.289  12.831  0.00  0.00    +0.407 HD
ENDBRANCH   3   4
ENDBRANCH   8   7
BRANCH  17  18
ATOM     18  C   UNL     1      44.903  16.955  20.076  0.00  0.00    -0.073 A 
ATOM     19  C   UNL     1      44.664  18.175  19.441  0.00  0.00    +0.056 A 
ATOM     20  C   UNL     1      43.797  19.086  20.009  0.00  0.00    +0.014 A 
ATOM     21  C   UNL     1      43.164  18.791  21.204  0.00  0.00    +0.037 A 
ATOM     22  C   UNL     1      43.396  17.584  21.838  0.00  0.00    +0.009 A 
ATOM     23  C   UNL     1      44.257  16.662  21.279  0.00  0.00    +0.054 A 
ENDBRANCH  17  18
BRANCH   9  10
ATOM     10  O   UNL     1      51.200  15.694  16.884  0.00  0.00    -0.295 OA
ATOM     11  C   UNL     1      51.323  17.116  16.796  0.00  0.00    +0.256 C 
ENDBRANCH   9  10
BRANCH  26  27
ATOM     27  O   UNL     1      48.272  12.006  17.652  0.00  0.00    -0.315 OA
ATOM     28  C   UNL     1      47.689  11.548  16.430  0.00  0.00    +0.249 C 
ENDBRANCH  26  27
TORSDOF 5
ENDMDL
MODEL 5
REMARK VINA RESULT:      -5.6      3.239      5.154
REMARK  Name = ZINC95486325
REMARK  8 active torsions:
REMARK  status: ('A' for Active; 'I' for Inactive)
REMARK    1  A    between atoms: C1_1  and  C2_2
REMARK    2  A    between atoms: C3_3  and  O7_30
REMARK    3  A    between atoms: C5_6  and  C7_9
REMARK    4  A    between atoms: C8_10  and  O6_28
REMARK    5  A    between atoms: C12_14  and  O3_15
REMARK    6  A    between atoms: O3_15  and  C13_16
REMARK    7  A    between atoms: C16_20  and  C17_22
REMARK    8  A    between atoms: O6_28  and  C23_29
REMARK                            x       y       z     vdW  Elec       q    Type
REMARK                         _______ _______ _______ _____ _____    ______ ____
ROOT
ATOM      8  C   UNL     1      49.831  15.156  17.026  0.00  0.00    -0.110 A 
ATOM      9  C   UNL     1      50.354  16.453  16.936  0.00  0.00    +0.226 A 
ATOM     12  C   UNL     1      49.582  17.548  17.281  0.00  0.00    -0.090 A 
ATOM     13  C   UNL     1      48.279  17.371  17.723  0.00  0.00    +0.211 A 
ATOM     14  C   UNL     1      47.746  16.073  17.817  0.00  0.00    -0.283 A 
ATOM     15  C   UNL     1      46.360  15.915  18.289  0.00  0.00    +0.425 A 
ATOM     16  C   UNL     1      45.647  17.092  18.621  0.00  0.00    -0.142 A 
ATOM     17  C   UNL     1      46.254  18.302  18.495  0.00  0.00    +0.203 A 
ATOM     24  O   UNL     1      45.847  14.812  18.391  0.00  0.00    -0.452 OA
ATOM     25  O   UNL     1      47.517  18.433  18.064  0.00  0.00    -0.218 OA
ATOM     26  C   UNL     1      48.522  14.963  17.462  0.00  0.00    +0.246 A 
ENDROOT
BRANCH   8   7
ATOM      1  C   UNL     1      53.038  10.653  15.454  0.00  0.00    +0.182 C 
ATOM      2  C   UNL     1      52.214  11.825  15.921  0.00  0.00    +0.077 A 
ATOM      3  C   UNL     1      52.210  12.146  17.234  0.00  0.00    -0.055 A 
ATOM      6  C   UNL     1      51.432  13.252  17.670  0.00  0.00    +0.387 A 
ATOM      7  C   UNL     1      50.669  13.990  16.653  0.00  0.00    -0.221 A 
ATOM     29  C   UNL     1      50.750  13.573  15.359  0.00  0.00    +0.341 A 
ATOM     30  O   UNL     1      51.399  13.579  18.846  0.00  0.00    -0.481 OA
ATOM     31  O   UNL     1      51.509  12.524  15.025  0.00  0.00    -0.191 OA
BRANCH   3   4
ATOM      4  O   UNL     1      52.941  11.420  18.124  0.00  0.00    -0.455 OA
ATOM      5  H   UNL     1      52.914  10.465  17.969  0.00  0.00    +0.407 HD
ENDBRANCH   3   4
ENDBRANCH   8   7
BRANCH  17  18
ATOM     18  C   UNL     1      45.493  19.518  18.846  0.00  0.00    -0.073 A 
ATOM     19  C   UNL     1      46.113  20.768  18.806  0.00  0.00    +0.056 A 
ATOM     20  C   UNL     1      45.396  21.900  19.135  0.00  0.00    +0.014 A 
ATOM     21  C   UNL     1      44.066  21.798  19.504  0.00  0.00    +0.037 A 
ATOM     22  C   UNL     1      43.446  20.563  19.545  0.00  0.00    +0.009 A 
ATOM     23  C   UNL     1      44.150  19.422  19.214  0.00  0.00    +0.054 A 
ENDBRANCH  17  18
BRANCH   9  10
ATOM     10  O   UNL     1      51.628  16.636  16.505  0.00  0.00    -0.295 OA
ATOM     11  C   UNL     1      51.932  17.893  15.896  0.00  0.00    +0.256 C 
ENDBRANCH   9  10
BRANCH  26  27
ATOM     27  O   UNL     1      48.006  13.712  17.548  0.00  0.00    -0.315 OA
ATOM     28  C   UNL     1      47.452  13.153  16.355  0.00  0.00    +0.249 C 
ENDBRANCH  26  27
TORSDOF 5
ENDMDL
MODEL 6
REMARK VINA RESULT:      -5.6      3.480      5.317
REMARK  Name = ZINC95486325
REMARK  8 active torsions:
REMARK  status: ('A' for Active; 'I' for Inactive)
REMARK    1  A    between atoms: C1_1  and  C2_2
REMARK    2  A    between atoms: C3_3  and  O7_30
REMARK    3  A    between atoms: C5_6  and  C7_9
REMARK    4  A    between atoms: C8_10  and  O6_28
REMARK    5  A    between atoms: C12_14  and  O3_15
REMARK    6  A    between atoms: O3_15  and  C13_16
REMARK    7  A    between atoms: C16_20  and  C17_22
REMARK    8  A    between atoms: O6_28  and  C23_29
REMARK                            x       y       z     vdW  Elec       q    Type
REMARK                         _______ _______ _______ _____ _____    ______ ____
ROOT
ATOM      8  C   UNL     1      49.396  14.290  16.631  0.00  0.00    -0.110 A 
ATOM      9  C   UNL     1      48.023  14.025  16.539  0.00  0.00    +0.226 A 
ATOM     12  C   UNL     1      47.095  14.979  16.920  0.00  0.00    -0.090 A 
ATOM     13  C   UNL     1      47.518  16.210  17.398  0.00  0.00    +0.211 A 
ATOM     14  C   UNL     1      48.893  16.485  17.493  0.00  0.00    -0.283 A 
ATOM     15  C   UNL     1      49.314  17.802  18.003  0.00  0.00    +0.425 A 
ATOM     16  C   UNL     1      48.294  18.714  18.367  0.00  0.00    -0.142 A 
ATOM     17  C   UNL     1      46.991  18.351  18.237  0.00  0.00    +0.203 A 
ATOM     24  O   UNL     1      50.494  18.094  18.107  0.00  0.00    -0.452 OA
ATOM     25  O   UNL     1      46.621  17.149  17.771  0.00  0.00    -0.218 OA
ATOM     26  C   UNL     1      49.834  15.521  17.115  0.00  0.00    +0.246 A 
ENDROOT
BRANCH   8   7
ATOM      1  C   UNL     1      53.212  10.350  14.918  0.00  0.00    +0.182 C 
ATOM      2  C   UNL     1      52.210  11.357  15.420  0.00  0.00    +0.077 A 
ATOM      3  C   UNL     1      51.765  11.266  16.693  0.00  0.00    -0.055 A 
ATOM      6  C   UNL     1      50.820  12.219  17.161  0.00  0.00    +0.387 A 
ATOM      7  C   UNL     1      50.380  13.259  16.220  0.00  0.00    -0.221 A 
ATOM     29  C   UNL     1      50.898  13.250  14.961  0.00  0.00    +0.341 A 
ATOM     30  O   UNL     1      50.391  12.176  18.303  0.00  0.00    -0.481 OA
ATOM     31  O   UNL     1      51.789  12.322  14.595  0.00  0.00    -0.191 OA
BRANCH   3   4
ATOM      4  O   UNL     1      52.215  10.277  17.512  0.00  0.00    -0.455 OA
ATOM      5  H   UNL     1      52.514  10.589  18.378  0.00  0.00    +0.407 HD
ENDBRANCH   3   4
ENDBRANCH   8   7
BRANCH  17  18
ATOM     18  C   UNL     1      45.943  19.317  18.623  0.00  0.00    -0.073 A 
ATOM     19  C   UNL     1      44.658  18.869  18.935  0.00  0.00    +0.056 A 
ATOM     20  C   UNL     1      43.683  19.777  19.295  0.00  0.00    +0.014 A 
ATOM     21  C   UNL     1      43.977  21.129  19.346  0.00  0.00    +0.037 A 
ATOM     22  C   UNL     1      45.248  21.579  19.038  0.00  0.00    +0.009 A 
ATOM     23  C   UNL     1      46.234  20.681  18.681  0.00  0.00    +0.054 A 
ENDBRANCH  17  18
BRANCH   9  10
ATOM     10  O   UNL     1      47.599  12.822  16.073  0.00  0.00    -0.295 OA
ATOM     11  C   UNL     1      46.914  11.973  16.997  0.00  0.00    +0.256 C 
ENDBRANCH   9  10
BRANCH  26  27
ATOM     27  O   UNL     1      51.162  15.784  17.212  0.00  0.00    -0.315 OA
ATOM     28  C   UNL     1      51.823  15.363  18.407  0.00  0.00    +0.249 C 
ENDBRANCH  26  27
TORSDOF 5
ENDMDL
MODEL 7
REMARK VINA RESULT:      -5.4      3.093      5.113
REMARK  Name = ZINC95486325
REMARK  8 active torsions:
REMARK  status: ('A' for Active; 'I' for Inactive)
REMARK    1  A    between atoms: C1_1  and  C2_2
REMARK    2  A    between atoms: C3_3  and  O7_30
REMARK    3  A    between atoms: C5_6  and  C7_9
REMARK    4  A    between atoms: C8_10  and  O6_28
REMARK    5  A    between atoms: C12_14  and  O3_15
REMARK    6  A    between atoms: O3_15  and  C13_16
REMARK    7  A    between atoms: C16_20  and  C17_22
REMARK    8  A    between atoms: O6_28  and  C23_29
REMARK                            x       y       z     vdW  Elec       q    Type
REMARK                         _______ _______ _______ _____ _____    ______ ____
ROOT
ATOM      8  C   UNL     1      49.755  15.333  17.502  0.00  0.00    -0.110 A 
ATOM      9  C   UNL     1      48.398  15.152  17.798  0.00  0.00    +0.226 A 
ATOM     12  C   UNL     1      47.634  16.205  18.269  0.00  0.00    -0.090 A 
ATOM     13  C   UNL     1      48.207  17.455  18.453  0.00  0.00    +0.211 A 
ATOM     14  C   UNL     1      49.569  17.646  18.158  0.00  0.00    -0.283 A 
ATOM     15  C   UNL     1      50.152  18.983  18.362  0.00  0.00    +0.425 A 
ATOM     16  C   UNL     1      49.294  20.000  18.846  0.00  0.00    -0.142 A 
ATOM     17  C   UNL     1      47.990  19.713  19.101  0.00  0.00    +0.203 A 
ATOM     24  O   UNL     1      51.328  19.205  18.123  0.00  0.00    -0.452 OA
ATOM     25  O   UNL     1      47.471  18.490  18.911  0.00  0.00    -0.218 OA
ATOM     26  C   UNL     1      50.346  16.581  17.688  0.00  0.00    +0.246 A 
ENDROOT
BRANCH   8   7
ATOM      1  C   UNL     1      52.861  10.966  15.427  0.00  0.00    +0.182 C 
ATOM      2  C   UNL     1      52.057  12.091  16.025  0.00  0.00    +0.077 A 
ATOM      3  C   UNL     1      51.940  12.175  17.369  0.00  0.00    -0.055 A 
ATOM      6  C   UNL     1      51.181  13.238  17.928  0.00  0.00    +0.387 A 
ATOM      7  C   UNL     1      50.563  14.196  16.999  0.00  0.00    -0.221 A 
ATOM     29  C   UNL     1      50.752  14.009  15.663  0.00  0.00    +0.341 A 
ATOM     30  O   UNL     1      51.048  13.354  19.136  0.00  0.00    -0.481 OA
ATOM     31  O   UNL     1      51.484  12.985  15.212  0.00  0.00    -0.191 OA
BRANCH   3   4
ATOM      4  O   UNL     1      52.539  11.254  18.173  0.00  0.00    -0.455 OA
ATOM      5  H   UNL     1      53.504  11.317  18.192  0.00  0.00    +0.407 HD
ENDBRANCH   3   4
ENDBRANCH   8   7
BRANCH  17  18
ATOM     18  C   UNL     1      47.112  20.787  19.606  0.00  0.00    -0.073 A 
ATOM     19  C   UNL     1      47.415  21.435  20.805  0.00  0.00    +0.056 A 
ATOM     20  C   UNL     1      46.589  22.437  21.270  0.00  0.00    +0.014 A 
ATOM     21  C   UNL     1      45.463  22.801  20.552  0.00  0.00    +0.037 A 
ATOM     22  C   UNL     1      45.158  22.163  19.364  0.00  0.00    +0.009 A 
ATOM     23  C   UNL     1      45.977  21.162  18.884  0.00  0.00    +0.054 A 
ENDBRANCH  17  18
BRANCH   9  10
ATOM     10  O   UNL     1      47.827  13.933  17.621  0.00  0.00    -0.295 OA
ATOM     11  C   UNL     1      46.952  13.783  16.501  0.00  0.00    +0.256 C 
ENDBRANCH   9  10
BRANCH  26  27
ATOM     27  O   UNL     1      51.661  16.764  17.409  0.00  0.00    -0.315 OA
ATOM     28  C   UNL     1      52.597  16.424  18.435  0.00  0.00    +0.249 C 
ENDBRANCH  26  27
TORSDOF 5
ENDMDL
MODEL 8
REMARK VINA RESULT:      -5.4      2.759      7.343
REMARK  Name = ZINC95486325
REMARK  8 active torsions:
REMARK  status: ('A' for Active; 'I' for Inactive)
REMARK    1  A    between atoms: C1_1  and  C2_2
REMARK    2  A    between atoms: C3_3  and  O7_30
REMARK    3  A    between atoms: C5_6  and  C7_9
REMARK    4  A    between atoms: C8_10  and  O6_28
REMARK    5  A    between atoms: C12_14  and  O3_15
REMARK    6  A    between atoms: O3_15  and  C13_16
REMARK    7  A    between atoms: C16_20  and  C17_22
REMARK    8  A    between atoms: O6_28  and  C23_29
REMARK                            x       y       z     vdW  Elec       q    Type
REMARK                         _______ _______ _______ _____ _____    ______ ____
ROOT
ATOM      8  C   UNL     1      45.856  19.337  19.659  0.00  0.00    -0.110 A 
ATOM      9  C   UNL     1      44.860  18.471  20.131  0.00  0.00    +0.226 A 
ATOM     12  C   UNL     1      44.900  17.121  19.827  0.00  0.00    -0.090 A 
ATOM     13  C   UNL     1      45.931  16.612  19.051  0.00  0.00    +0.211 A 
ATOM     14  C   UNL     1      46.934  17.473  18.574  0.00  0.00    -0.283 A 
ATOM     15  C   UNL     1      48.016  16.904  17.752  0.00  0.00    +0.425 A 
ATOM     16  C   UNL     1      47.976  15.513  17.494  0.00  0.00    -0.142 A 
ATOM     17  C   UNL     1      46.960  14.766  18.003  0.00  0.00    +0.203 A 
ATOM     24  O   UNL     1      48.913  17.605  17.311  0.00  0.00    -0.452 OA
ATOM     25  O   UNL     1      45.980  15.296  18.751  0.00  0.00    -0.218 OA
ATOM     26  C   UNL     1      46.893  18.840  18.873  0.00  0.00    +0.246 A 
ENDROOT
BRANCH   8   7
ATOM      1  C   UNL     1      45.573  24.955  20.836  0.00  0.00    +0.182 C 
ATOM      2  C   UNL     1      45.681  23.475  20.575  0.00  0.00    +0.077 A 
ATOM      3  C   UNL     1      46.397  22.706  21.425  0.00  0.00    -0.055 A 
ATOM      6  C   UNL     1      46.495  21.311  21.174  0.00  0.00    +0.387 A 
ATOM      7  C   UNL     1      45.802  20.782  19.990  0.00  0.00    -0.221 A 
ATOM     29  C   UNL     1      45.110  21.654  19.206  0.00  0.00    +0.341 A 
ATOM     30  O   UNL     1      47.131  20.578  21.915  0.00  0.00    -0.481 OA
ATOM     31  O   UNL     1      45.060  22.955  19.510  0.00  0.00    -0.191 OA
BRANCH   3   4
ATOM      4  O   UNL     1      47.014  23.261  22.504  0.00  0.00    -0.455 OA
ATOM      5  H   UNL     1      47.951  23.031  22.581  0.00  0.00    +0.407 HD
ENDBRANCH   3   4
ENDBRANCH   8   7
BRANCH  17  18
ATOM     18  C   UNL     1      46.935  13.317  17.723  0.00  0.00    -0.073 A 
ATOM     19  C   UNL     1      47.913  12.481  18.264  0.00  0.00    +0.056 A 
ATOM     20  C   UNL     1      47.884  11.127  17.998  0.00  0.00    +0.014 A 
ATOM     21  C   UNL     1      46.888  10.598  17.196  0.00  0.00    +0.037 A 
ATOM     22  C   UNL     1      45.916  11.421  16.656  0.00  0.00    +0.009 A 
ATOM     23  C   UNL     1      45.930  12.776  16.918  0.00  0.00    +0.054 A 
ENDBRANCH  17  18
BRANCH   9  10
ATOM     10  O   UNL     1      43.848  18.960  20.892  0.00  0.00    -0.295 OA
ATOM     11  C   UNL     1      42.547  18.990  20.300  0.00  0.00    +0.256 C 
ENDBRANCH   9  10
BRANCH  26  27
ATOM     27  O   UNL     1      47.859  19.672  18.408  0.00  0.00    -0.315 OA
ATOM     28  C   UNL     1      48.995  19.882  19.248  0.00  0.00    +0.249 C 
ENDBRANCH  26  27
TORSDOF 5
ENDMDL
MODEL 9
REMARK VINA RESULT:      -5.3      2.145      2.813
REMARK  Name = ZINC95486325
REMARK  8 active torsions:
REMARK  status: ('A' for Active; 'I' for Inactive)
REMARK    1  A    between atoms: C1_1  and  C2_2
REMARK    2  A    between atoms: C3_3  and  O7_30
REMARK    3  A    between atoms: C5_6  and  C7_9
REMARK    4  A    between atoms: C8_10  and  O6_28
REMARK    5  A    between atoms: C12_14  and  O3_15
REMARK    6  A    between atoms: O3_15  and  C13_16
REMARK    7  A    between atoms: C16_20  and  C17_22
REMARK    8  A    between atoms: O6_28  and  C23_29
REMARK                            x       y       z     vdW  Elec       q    Type
REMARK                         _______ _______ _______ _____ _____    ______ ____
ROOT
ATOM      8  C   UNL     1      48.008  16.112  19.113  0.00  0.00    -0.110 A 
ATOM      9  C   UNL     1      46.754  15.486  19.124  0.00  0.00    +0.226 A 
ATOM     12  C   UNL     1      45.592  16.237  19.075  0.00  0.00    -0.090 A 
ATOM     13  C   UNL     1      45.659  17.621  19.013  0.00  0.00    +0.211 A 
ATOM     14  C   UNL     1      46.913  18.257  19.001  0.00  0.00    -0.283 A 
ATOM     15  C   UNL     1      46.953  19.729  18.935  0.00  0.00    +0.425 A 
ATOM     16  C   UNL     1      45.715  20.413  18.887  0.00  0.00    -0.142 A 
ATOM     17  C   UNL     1      44.556  19.703  18.903  0.00  0.00    +0.203 A 
ATOM     24  O   UNL     1      48.013  20.334  18.922  0.00  0.00    -0.452 OA
ATOM     25  O   UNL     1      44.532  18.363  18.963  0.00  0.00    -0.218 OA
ATOM     26  C   UNL     1      48.090  17.502  19.058  0.00  0.00    +0.246 A 
ENDROOT
BRANCH   8   7
ATOM      1  C   UNL     1      52.809  12.972  19.450  0.00  0.00    +0.182 C 
ATOM      2  C   UNL     1      51.550  13.787  19.304  0.00  0.00    +0.077 A 
ATOM      3  C   UNL     1      51.010  13.951  18.076  0.00  0.00    -0.055 A 
ATOM      6  C   UNL     1      49.823  14.720  17.943  0.00  0.00    +0.387 A 
ATOM      7  C   UNL     1      49.246  15.297  19.166  0.00  0.00    -0.221 A 
ATOM     29  C   UNL     1      49.879  15.064  20.349  0.00  0.00    +0.341 A 
ATOM     30  O   UNL     1      49.299  14.894  16.854  0.00  0.00    -0.481 OA
ATOM     31  O   UNL     1      50.992  14.325  20.394  0.00  0.00    -0.191 OA
BRANCH   3   4
ATOM      4  O   UNL     1      51.596  13.388  16.983  0.00  0.00    -0.455 OA
ATOM      5  H   UNL     1      51.370  13.822  16.149  0.00  0.00    +0.407 HD
ENDBRANCH   3   4
ENDBRANCH   8   7
BRANCH  17  18
ATOM     18  C   UNL     1      43.274  20.435  18.852  0.00  0.00    -0.073 A 
ATOM     19  C   UNL     1      43.215  21.772  19.247  0.00  0.00    +0.056 A 
ATOM     20  C   UNL     1      42.014  22.450  19.197  0.00  0.00    +0.014 A 
ATOM     21  C   UNL     1      40.870  21.806  18.758  0.00  0.00    +0.037 A 
ATOM     22  C   UNL     1      40.922  20.481  18.365  0.00  0.00    +0.009 A 
ATOM     23  C   UNL     1      42.118  19.793  18.405  0.00  0.00    +0.054 A 
ENDBRANCH  17  18
BRANCH   9  10
ATOM     10  O   UNL     1      46.679  14.132  19.183  0.00  0.00    -0.295 OA
ATOM     11  C   UNL     1      46.216  13.456  18.012  0.00  0.00    +0.256 C 
ENDBRANCH   9  10
BRANCH  26  27
ATOM     27  O   UNL     1      49.299  18.117  19.051  0.00  0.00    -0.315 OA
ATOM     28  C   UNL     1      49.967  18.224  17.792  0.00  0.00    +0.249 C 
ENDBRANCH  26  27
TORSDOF 5
ENDMDL
