MODEL 1
REMARK VINA RESULT:      -6.4      0.000      0.000
REMARK  Name = ZINC03871989
REMARK  11 active torsions:
REMARK  status: ('A' for Active; 'I' for Inactive)
REMARK    1  A    between atoms: C1_1  and  C2_2
REMARK    2  A    between atoms: C2_2  and  C3_3
REMARK    3  A    between atoms: C9_11  and  O4_37
REMARK    4  A    between atoms: C10_12  and  O3_35
REMARK    5  A    between atoms: C15_18  and  C16_20
REMARK    6  A    between atoms: C16_20  and  C17_21
REMARK    7  A    between atoms: C20_25  and  O2_33
REMARK    8  A    between atoms: C21_26  and  O1_32
REMARK    9  A    between atoms: O2_33  and  C26_34
REMARK   10  A    between atoms: O3_35  and  C27_36
REMARK   11  A    between atoms: O4_37  and  C28_38
REMARK                            x       y       z     vdW  Elec       q    Type
REMARK                         _______ _______ _______ _____ _____    ______ ____
ROOT
ATOM      3  C   UNL     1      50.513  18.904  17.744  0.00  0.00    +0.003 C 
ATOM      4  C   UNL     1      51.237  17.567  17.555  0.00  0.00    +0.268 C 
ATOM      5  N   UNL     1      50.256  16.522  17.241  0.00  0.00    -0.380 N 
ATOM      6  H   UNL     1      49.729  16.792  16.424  0.00  0.00    +0.425 HD
ATOM      7  C   UNL     1      50.943  15.252  16.972  0.00  0.00    +0.273 C 
ATOM      8  C   UNL     1      49.943  14.278  16.349  0.00  0.00    +0.128 C 
ATOM      9  C   UNL     1      48.691  14.221  17.188  0.00  0.00    -0.075 A 
ATOM     10  C   UNL     1      47.814  13.164  16.997  0.00  0.00    -0.016 A 
ATOM     11  C   UNL     1      46.653  13.076  17.745  0.00  0.00    +0.141 A 
ATOM     14  C   UNL     1      46.366  14.055  18.691  0.00  0.00    +0.118 A 
ATOM     17  C   UNL     1      47.245  15.107  18.878  0.00  0.00    -0.020 A 
ATOM     18  C   UNL     1      48.409  15.190  18.128  0.00  0.00    -0.139 A 
ATOM     19  C   UNL     1      49.342  16.345  18.371  0.00  0.00    +0.234 C 
ATOM     20  C   UNL     1      48.538  17.629  18.587  0.00  0.00    +0.067 C 
ATOM     21  C   UNL     1      49.505  18.779  18.888  0.00  0.00    -0.023 C 
ENDROOT
BRANCH   3   2
ATOM      1  C   UNL     1      51.888  20.767  16.806  0.00  0.00    +0.028 C 
ATOM      2  C   UNL     1      51.534  19.993  18.078  0.00  0.00    +0.039 C 
ENDBRANCH   3   2
BRANCH  11  12
ATOM     12  O   UNL     1      45.795  12.037  17.554  0.00  0.00    -0.293 OA
ATOM     13  C   UNL     1      46.031  11.200  16.421  0.00  0.00    +0.260 C 
ENDBRANCH  11  12
BRANCH  14  15
ATOM     15  O   UNL     1      45.226  13.978  19.429  0.00  0.00    -0.292 OA
ATOM     16  C   UNL     1      45.375  13.939  20.850  0.00  0.00    +0.245 C 
ENDBRANCH  14  15
BRANCH  21  22
ATOM     22  C   UNL     1      48.720  20.085  19.022  0.00  0.00    +0.086 C 
BRANCH  22  23
ATOM     23  C   UNL     1      48.378  20.326  20.494  0.00  0.00    +0.230 C 
ATOM     24  C   UNL     1      47.087  21.098  20.584  0.00  0.00    -0.107 A 
ATOM     25  C   UNL     1      46.054  20.760  19.723  0.00  0.00    -0.037 A 
ATOM     26  C   UNL     1      44.851  21.440  19.773  0.00  0.00    +0.121 A 
ATOM     29  C   UNL     1      44.677  22.469  20.694  0.00  0.00    +0.118 A 
ATOM     32  C   UNL     1      45.711  22.803  21.551  0.00  0.00    +0.057 A 
ATOM     33  C   UNL     1      46.915  22.118  21.496  0.00  0.00    -0.106 A 
ATOM     34  C   UNL     1      48.018  22.521  22.442  0.00  0.00    +0.131 C 
ATOM     35  C   UNL     1      49.077  21.419  22.501  0.00  0.00    +0.278 C 
ATOM     36  N   UNL     1      49.469  21.072  21.128  0.00  0.00    -0.506 N 
ATOM     37  H   UNL     1      49.651  21.916  20.604  0.00  0.00    +0.433 HD
ATOM     38  H   UNL     1      50.302  20.501  21.148  0.00  0.00    +0.426 HD
BRANCH  26  27
ATOM     27  O   UNL     1      43.841  21.104  18.926  0.00  0.00    -0.293 OA
ATOM     28  C   UNL     1      43.094  19.927  19.241  0.00  0.00    +0.251 C 
ENDBRANCH  26  27
BRANCH  29  30
ATOM     30  O   UNL     1      43.497  23.141  20.752  0.00  0.00    -0.479 OA
ATOM     31  H   UNL     1      43.593  24.104  20.750  0.00  0.00    +0.405 HD
ENDBRANCH  29  30
ENDBRANCH  22  23
ENDBRANCH  21  22
TORSDOF 7
ENDMDL
MODEL 2
REMARK VINA RESULT:      -6.4      2.863      7.235
REMARK  Name = ZINC03871989
REMARK  11 active torsions:
REMARK  status: ('A' for Active; 'I' for Inactive)
REMARK    1  A    between atoms: C1_1  and  C2_2
REMARK    2  A    between atoms: C2_2  and  C3_3
REMARK    3  A    between atoms: C9_11  and  O4_37
REMARK    4  A    between atoms: C10_12  and  O3_35
REMARK    5  A    between atoms: C15_18  and  C16_20
REMARK    6  A    between atoms: C16_20  and  C17_21
REMARK    7  A    between atoms: C20_25  and  O2_33
REMARK    8  A    between atoms: C21_26  and  O1_32
REMARK    9  A    between atoms: O2_33  and  C26_34
REMARK   10  A    between atoms: O3_35  and  C27_36
REMARK   11  A    between atoms: O4_37  and  C28_38
REMARK                            x       y       z     vdW  Elec       q    Type
REMARK                         _______ _______ _______ _____ _____    ______ ____
ROOT
ATOM      3  C   UNL     1      49.231  16.778  21.038  0.00  0.00    +0.003 C 
ATOM      4  C   UNL     1      47.917  16.375  21.714  0.00  0.00    +0.268 C 
ATOM      5  N   UNL     1      46.796  17.032  21.033  0.00  0.00    -0.380 N 
ATOM      6  H   UNL     1      46.813  16.792  20.053  0.00  0.00    +0.425 HD
ATOM      7  C   UNL     1      45.524  16.587  21.616  0.00  0.00    +0.273 C 
ATOM      8  C   UNL     1      44.385  17.032  20.698  0.00  0.00    +0.128 C 
ATOM      9  C   UNL     1      44.523  18.501  20.383  0.00  0.00    -0.075 A 
ATOM     10  C   UNL     1      43.428  19.171  19.860  0.00  0.00    -0.016 A 
ATOM     11  C   UNL     1      43.514  20.518  19.555  0.00  0.00    +0.141 A 
ATOM     14  C   UNL     1      44.708  21.200  19.774  0.00  0.00    +0.118 A 
ATOM     17  C   UNL     1      45.797  20.526  20.296  0.00  0.00    -0.020 A 
ATOM     18  C   UNL     1      45.705  19.176  20.603  0.00  0.00    -0.139 A 
ATOM     19  C   UNL     1      46.911  18.485  21.179  0.00  0.00    +0.234 C 
ATOM     20  C   UNL     1      48.179  18.973  20.475  0.00  0.00    +0.067 C 
ATOM     21  C   UNL     1      49.396  18.298  21.115  0.00  0.00    -0.023 C 
ENDROOT
BRANCH   3   2
ATOM      1  C   UNL     1      50.953  14.976  20.870  0.00  0.00    +0.028 C 
ATOM      2  C   UNL     1      50.402  16.100  21.751  0.00  0.00    +0.039 C 
ENDBRANCH   3   2
BRANCH  11  12
ATOM     12  O   UNL     1      42.437  21.173  19.043  0.00  0.00    -0.293 OA
ATOM     13  C   UNL     1      41.450  20.380  18.381  0.00  0.00    +0.260 C 
ENDBRANCH  11  12
BRANCH  14  15
ATOM     15  O   UNL     1      44.803  22.523  19.475  0.00  0.00    -0.292 OA
ATOM     16  C   UNL     1      45.135  23.408  20.547  0.00  0.00    +0.245 C 
ENDBRANCH  14  15
BRANCH  21  22
ATOM     22  C   UNL     1      50.664  18.713  20.364  0.00  0.00    +0.086 C 
BRANCH  22  23
ATOM     23  C   UNL     1      50.278  19.434  19.071  0.00  0.00    +0.230 C 
ATOM     24  C   UNL     1      50.931  18.741  17.903  0.00  0.00    -0.107 A 
ATOM     25  C   UNL     1      50.964  17.354  17.891  0.00  0.00    -0.037 A 
ATOM     26  C   UNL     1      51.550  16.678  16.836  0.00  0.00    +0.121 A 
ATOM     29  C   UNL     1      52.110  17.394  15.783  0.00  0.00    +0.118 A 
ATOM     32  C   UNL     1      52.076  18.777  15.799  0.00  0.00    +0.057 A 
ATOM     33  C   UNL     1      51.487  19.450  16.859  0.00  0.00    -0.106 A 
ATOM     34  C   UNL     1      51.479  20.957  16.840  0.00  0.00    +0.131 C 
ATOM     35  C   UNL     1      50.461  21.483  17.854  0.00  0.00    +0.278 C 
ATOM     36  N   UNL     1      50.711  20.831  19.148  0.00  0.00    -0.506 N 
ATOM     37  H   UNL     1      51.697  20.869  19.361  0.00  0.00    +0.433 HD
ATOM     38  H   UNL     1      50.190  21.307  19.871  0.00  0.00    +0.426 HD
BRANCH  26  27
ATOM     27  O   UNL     1      51.579  15.318  16.830  0.00  0.00    -0.293 OA
ATOM     28  C   UNL     1      50.320  14.642  16.809  0.00  0.00    +0.251 C 
ENDBRANCH  26  27
BRANCH  29  30
ATOM     30  O   UNL     1      52.687  16.737  14.741  0.00  0.00    -0.479 OA
ATOM     31  H   UNL     1      52.237  15.916  14.496  0.00  0.00    +0.405 HD
ENDBRANCH  29  30
ENDBRANCH  22  23
ENDBRANCH  21  22
TORSDOF 7
ENDMDL
MODEL 3
REMARK VINA RESULT:      -6.3      2.418      4.124
REMARK  Name = ZINC03871989
REMARK  11 active torsions:
REMARK  status: ('A' for Active; 'I' for Inactive)
REMARK    1  A    between atoms: C1_1  and  C2_2
REMARK    2  A    between atoms: C2_2  and  C3_3
REMARK    3  A    between atoms: C9_11  and  O4_37
REMARK    4  A    between atoms: C10_12  and  O3_35
REMARK    5  A    between atoms: C15_18  and  C16_20
REMARK    6  A    between atoms: C16_20  and  C17_21
REMARK    7  A    between atoms: C20_25  and  O2_33
REMARK    8  A    between atoms: C21_26  and  O1_32
REMARK    9  A    between atoms: O2_33  and  C26_34
REMARK   10  A    between atoms: O3_35  and  C27_36
REMARK   11  A    between atoms: O4_37  and  C28_38
REMARK                            x       y       z     vdW  Elec       q    Type
REMARK                         _______ _______ _______ _____ _____    ______ ____
ROOT
ATOM      3  C   UNL     1      48.259  19.534  18.818  0.00  0.00    +0.003 C 
ATOM      4  C   UNL     1      49.756  19.216  18.882  0.00  0.00    +0.268 C 
ATOM      5  N   UNL     1      50.057  18.103  17.975  0.00  0.00    -0.380 N 
ATOM      6  H   UNL     1      49.755  18.341  17.042  0.00  0.00    +0.425 HD
ATOM      7  C   UNL     1      51.503  17.844  17.961  0.00  0.00    +0.273 C 
ATOM      8  C   UNL     1      51.820  16.911  16.792  0.00  0.00    +0.128 C 
ATOM      9  C   UNL     1      50.904  15.713  16.827  0.00  0.00    -0.075 A 
ATOM     10  C   UNL     1      51.244  14.598  16.076  0.00  0.00    -0.016 A 
ATOM     11  C   UNL     1      50.429  13.479  16.080  0.00  0.00    +0.141 A 
ATOM     14  C   UNL     1      49.263  13.477  16.840  0.00  0.00    +0.118 A 
ATOM     17  C   UNL     1      48.930  14.592  17.587  0.00  0.00    -0.020 A 
ATOM     18  C   UNL     1      49.751  15.711  17.583  0.00  0.00    -0.139 A 
ATOM     19  C   UNL     1      49.356  16.897  18.420  0.00  0.00    +0.234 C 
ATOM     20  C   UNL     1      47.844  17.120  18.329  0.00  0.00    +0.067 C 
ATOM     21  C   UNL     1      47.458  18.297  19.230  0.00  0.00    -0.023 C 
ENDROOT
BRANCH   3   2
ATOM      1  C   UNL     1      49.024  20.776  20.846  0.00  0.00    +0.028 C 
ATOM      2  C   UNL     1      47.941  20.689  19.768  0.00  0.00    +0.039 C 
ENDBRANCH   3   2
BRANCH  11  12
ATOM     12  O   UNL     1      50.766  12.387  15.342  0.00  0.00    -0.293 OA
ATOM     13  C   UNL     1      50.605  12.485  13.926  0.00  0.00    +0.260 C 
ENDBRANCH  11  12
BRANCH  14  15
ATOM     15  O   UNL     1      48.455  12.383  16.847  0.00  0.00    -0.292 OA
ATOM     16  C   UNL     1      47.239  12.470  16.101  0.00  0.00    +0.245 C 
ENDBRANCH  14  15
BRANCH  21  22
ATOM     22  C   UNL     1      45.962  18.584  19.083  0.00  0.00    +0.086 C 
BRANCH  22  23
ATOM     23  C   UNL     1      45.159  17.429  19.687  0.00  0.00    +0.230 C 
ATOM     24  C   UNL     1      43.895  17.972  20.302  0.00  0.00    -0.107 A 
ATOM     25  C   UNL     1      43.202  18.962  19.622  0.00  0.00    -0.037 A 
ATOM     26  C   UNL     1      42.035  19.486  20.148  0.00  0.00    +0.121 A 
ATOM     29  C   UNL     1      41.556  19.016  21.367  0.00  0.00    +0.118 A 
ATOM     32  C   UNL     1      42.252  18.029  22.043  0.00  0.00    +0.057 A 
ATOM     33  C   UNL     1      43.421  17.507  21.510  0.00  0.00    -0.106 A 
ATOM     34  C   UNL     1      44.151  16.439  22.283  0.00  0.00    +0.131 C 
ATOM     35  C   UNL     1      45.153  15.732  21.369  0.00  0.00    +0.278 C 
ATOM     36  N   UNL     1      45.974  16.751  20.698  0.00  0.00    -0.506 N 
ATOM     37  H   UNL     1      46.300  17.423  21.377  0.00  0.00    +0.433 HD
ATOM     38  H   UNL     1      46.765  16.307  20.253  0.00  0.00    +0.426 HD
BRANCH  26  27
ATOM     27  O   UNL     1      41.359  20.457  19.477  0.00  0.00    -0.293 OA
ATOM     28  C   UNL     1      40.927  20.149  18.150  0.00  0.00    +0.251 C 
ENDBRANCH  26  27
BRANCH  29  30
ATOM     30  O   UNL     1      40.409  19.524  21.892  0.00  0.00    -0.479 OA
ATOM     31  H   UNL     1      40.536  20.337  22.401  0.00  0.00    +0.405 HD
ENDBRANCH  29  30
ENDBRANCH  22  23
ENDBRANCH  21  22
TORSDOF 7
ENDMDL
MODEL 4
REMARK VINA RESULT:      -6.2      3.144      5.675
REMARK  Name = ZINC03871989
REMARK  11 active torsions:
REMARK  status: ('A' for Active; 'I' for Inactive)
REMARK    1  A    between atoms: C1_1  and  C2_2
REMARK    2  A    between atoms: C2_2  and  C3_3
REMARK    3  A    between atoms: C9_11  and  O4_37
REMARK    4  A    between atoms: C10_12  and  O3_35
REMARK    5  A    between atoms: C15_18  and  C16_20
REMARK    6  A    between atoms: C16_20  and  C17_21
REMARK    7  A    between atoms: C20_25  and  O2_33
REMARK    8  A    between atoms: C21_26  and  O1_32
REMARK    9  A    between atoms: O2_33  and  C26_34
REMARK   10  A    between atoms: O3_35  and  C27_36
REMARK   11  A    between atoms: O4_37  and  C28_38
REMARK                            x       y       z     vdW  Elec       q    Type
REMARK                         _______ _______ _______ _____ _____    ______ ____
ROOT
ATOM      3  C   UNL     1      47.196  20.556  19.406  0.00  0.00    +0.003 C 
ATOM      4  C   UNL     1      48.390  21.019  20.245  0.00  0.00    +0.268 C 
ATOM      5  N   UNL     1      49.597  20.307  19.810  0.00  0.00    -0.380 N 
ATOM      6  H   UNL     1      49.738  20.460  18.823  0.00  0.00    +0.425 HD
ATOM      7  C   UNL     1      50.766  20.803  20.547  0.00  0.00    +0.273 C 
ATOM      8  C   UNL     1      52.031  20.281  19.863  0.00  0.00    +0.128 C 
ATOM      9  C   UNL     1      51.927  18.791  19.657  0.00  0.00    -0.075 A 
ATOM     10  C   UNL     1      53.083  18.079  19.375  0.00  0.00    -0.016 A 
ATOM     11  C   UNL     1      53.029  16.711  19.177  0.00  0.00    +0.141 A 
ATOM     14  C   UNL     1      51.808  16.049  19.261  0.00  0.00    +0.118 A 
ATOM     17  C   UNL     1      50.658  16.764  19.543  0.00  0.00    -0.020 A 
ATOM     18  C   UNL     1      50.716  18.136  19.744  0.00  0.00    -0.139 A 
ATOM     19  C   UNL     1      49.443  18.872  20.060  0.00  0.00    +0.234 C 
ATOM     20  C   UNL     1      48.297  18.323  19.208  0.00  0.00    +0.067 C 
ATOM     21  C   UNL     1      47.002  19.048  19.586  0.00  0.00    -0.023 C 
ENDROOT
BRANCH   3   2
ATOM      1  C   UNL     1      45.710  21.040  21.356  0.00  0.00    +0.028 C 
ATOM      2  C   UNL     1      45.935  21.292  19.863  0.00  0.00    +0.039 C 
ENDBRANCH   3   2
BRANCH  11  12
ATOM     12  O   UNL     1      54.166  16.016  18.900  0.00  0.00    -0.293 OA
ATOM     13  C   UNL     1      55.051  15.758  19.992  0.00  0.00    +0.260 C 
ENDBRANCH  11  12
BRANCH  14  15
ATOM     15  O   UNL     1      51.745  14.705  19.065  0.00  0.00    -0.292 OA
ATOM     16  C   UNL     1      50.495  14.171  18.625  0.00  0.00    +0.245 C 
ENDBRANCH  14  15
BRANCH  21  22
ATOM     22  C   UNL     1      45.864  18.568  18.682  0.00  0.00    +0.086 C 
BRANCH  22  23
ATOM     23  C   UNL     1      45.119  17.420  19.366  0.00  0.00    +0.230 C 
ATOM     24  C   UNL     1      43.925  17.971  20.101  0.00  0.00    -0.107 A 
ATOM     25  C   UNL     1      43.172  18.963  19.490  0.00  0.00    -0.037 A 
ATOM     26  C   UNL     1      42.066  19.494  20.127  0.00  0.00    +0.121 A 
ATOM     29  C   UNL     1      41.708  19.031  21.389  0.00  0.00    +0.118 A 
ATOM     32  C   UNL     1      42.462  18.042  21.996  0.00  0.00    +0.057 A 
ATOM     33  C   UNL     1      43.570  17.513  21.352  0.00  0.00    -0.106 A 
ATOM     34  C   UNL     1      44.368  16.443  22.053  0.00  0.00    +0.131 C 
ATOM     35  C   UNL     1      45.271  15.728  21.047  0.00  0.00    +0.278 C 
ATOM     36  N   UNL     1      46.026  16.740  20.294  0.00  0.00    -0.506 N 
ATOM     37  H   UNL     1      46.422  17.412  20.935  0.00  0.00    +0.433 HD
ATOM     38  H   UNL     1      46.767  16.291  19.775  0.00  0.00    +0.426 HD
BRANCH  26  27
ATOM     27  O   UNL     1      41.332  20.467  19.523  0.00  0.00    -0.293 OA
ATOM     28  C   UNL     1      40.787  20.164  18.237  0.00  0.00    +0.251 C 
ENDBRANCH  26  27
BRANCH  29  30
ATOM     30  O   UNL     1      40.621  19.546  22.023  0.00  0.00    -0.479 OA
ATOM     31  H   UNL     1      40.828  20.001  22.852  0.00  0.00    +0.405 HD
ENDBRANCH  29  30
ENDBRANCH  22  23
ENDBRANCH  21  22
TORSDOF 7
ENDMDL
MODEL 5
REMARK VINA RESULT:      -6.0      3.518      5.708
REMARK  Name = ZINC03871989
REMARK  11 active torsions:
REMARK  status: ('A' for Active; 'I' for Inactive)
REMARK    1  A    between atoms: C1_1  and  C2_2
REMARK    2  A    between atoms: C2_2  and  C3_3
REMARK    3  A    between atoms: C9_11  and  O4_37
REMARK    4  A    between atoms: C10_12  and  O3_35
REMARK    5  A    between atoms: C15_18  and  C16_20
REMARK    6  A    between atoms: C16_20  and  C17_21
REMARK    7  A    between atoms: C20_25  and  O2_33
REMARK    8  A    between atoms: C21_26  and  O1_32
REMARK    9  A    between atoms: O2_33  and  C26_34
REMARK   10  A    between atoms: O3_35  and  C27_36
REMARK   11  A    between atoms: O4_37  and  C28_38
REMARK                            x       y       z     vdW  Elec       q    Type
REMARK                         _______ _______ _______ _____ _____    ______ ____
ROOT
ATOM      3  C   UNL     1      48.954  16.644  20.231  0.00  0.00    +0.003 C 
ATOM      4  C   UNL     1      47.442  16.605  19.991  0.00  0.00    +0.268 C 
ATOM      5  N   UNL     1      47.067  15.289  19.463  0.00  0.00    -0.380 N 
ATOM      6  H   UNL     1      47.372  14.572  20.102  0.00  0.00    +0.425 HD
ATOM      7  C   UNL     1      45.608  15.207  19.309  0.00  0.00    +0.273 C 
ATOM      8  C   UNL     1      45.225  13.747  19.064  0.00  0.00    +0.128 C 
ATOM      9  C   UNL     1      46.069  13.173  17.954  0.00  0.00    -0.075 A 
ATOM     10  C   UNL     1      45.657  11.995  17.350  0.00  0.00    -0.016 A 
ATOM     11  C   UNL     1      46.405  11.434  16.329  0.00  0.00    +0.141 A 
ATOM     14  C   UNL     1      47.576  12.058  15.909  0.00  0.00    +0.118 A 
ATOM     17  C   UNL     1      47.982  13.234  16.515  0.00  0.00    -0.020 A 
ATOM     18  C   UNL     1      47.228  13.794  17.536  0.00  0.00    -0.139 A 
ATOM     19  C   UNL     1      47.701  15.079  18.159  0.00  0.00    +0.234 C 
ATOM     20  C   UNL     1      49.221  15.049  18.328  0.00  0.00    +0.067 C 
ATOM     21  C   UNL     1      49.685  16.388  18.911  0.00  0.00    -0.023 C 
ENDROOT
BRANCH   3   2
ATOM      1  C   UNL     1      48.555  19.104  20.046  0.00  0.00    +0.028 C 
ATOM      2  C   UNL     1      49.349  18.018  20.776  0.00  0.00    +0.039 C 
ENDBRANCH   3   2
BRANCH  11  12
ATOM     12  O   UNL     1      45.997  10.278  15.739  0.00  0.00    -0.293 OA
ATOM     13  C   UNL     1      44.772  10.322  15.004  0.00  0.00    +0.260 C 
ENDBRANCH  11  12
BRANCH  14  15
ATOM     15  O   UNL     1      48.319  11.514  14.909  0.00  0.00    -0.292 OA
ATOM     16  C   UNL     1      49.622  11.038  15.253  0.00  0.00    +0.245 C 
ENDBRANCH  14  15
BRANCH  21  22
ATOM     22  C   UNL     1      51.194  16.340  19.164  0.00  0.00    +0.086 C 
BRANCH  22  23
ATOM     23  C   UNL     1      51.917  17.150  18.085  0.00  0.00    +0.230 C 
ATOM     24  C   UNL     1      52.039  18.582  18.538  0.00  0.00    -0.107 A 
ATOM     25  C   UNL     1      52.360  18.830  19.865  0.00  0.00    -0.037 A 
ATOM     26  C   UNL     1      52.486  20.129  20.322  0.00  0.00    +0.121 A 
ATOM     29  C   UNL     1      52.289  21.192  19.445  0.00  0.00    +0.118 A 
ATOM     32  C   UNL     1      51.968  20.940  18.123  0.00  0.00    +0.057 A 
ATOM     33  C   UNL     1      51.843  19.635  17.670  0.00  0.00    -0.106 A 
ATOM     34  C   UNL     1      51.483  19.406  16.224  0.00  0.00    +0.131 C 
ATOM     35  C   UNL     1      51.785  17.956  15.839  0.00  0.00    +0.278 C 
ATOM     36  N   UNL     1      51.162  17.069  16.832  0.00  0.00    -0.506 N 
ATOM     37  H   UNL     1      50.208  17.358  16.992  0.00  0.00    +0.433 HD
ATOM     38  H   UNL     1      51.175  16.119  16.490  0.00  0.00    +0.426 HD
BRANCH  26  27
ATOM     27  O   UNL     1      52.801  20.367  21.624  0.00  0.00    -0.293 OA
ATOM     28  C   UNL     1      52.817  19.241  22.504  0.00  0.00    +0.251 C 
ENDBRANCH  26  27
BRANCH  29  30
ATOM     30  O   UNL     1      52.412  22.473  19.886  0.00  0.00    -0.479 OA
ATOM     31  H   UNL     1      52.674  22.546  20.814  0.00  0.00    +0.405 HD
ENDBRANCH  29  30
ENDBRANCH  22  23
ENDBRANCH  21  22
TORSDOF 7
ENDMDL
MODEL 6
REMARK VINA RESULT:      -6.0      2.815      5.059
REMARK  Name = ZINC03871989
REMARK  11 active torsions:
REMARK  status: ('A' for Active; 'I' for Inactive)
REMARK    1  A    between atoms: C1_1  and  C2_2
REMARK    2  A    between atoms: C2_2  and  C3_3
REMARK    3  A    between atoms: C9_11  and  O4_37
REMARK    4  A    between atoms: C10_12  and  O3_35
REMARK    5  A    between atoms: C15_18  and  C16_20
REMARK    6  A    between atoms: C16_20  and  C17_21
REMARK    7  A    between atoms: C20_25  and  O2_33
REMARK    8  A    between atoms: C21_26  and  O1_32
REMARK    9  A    between atoms: O2_33  and  C26_34
REMARK   10  A    between atoms: O3_35  and  C27_36
REMARK   11  A    between atoms: O4_37  and  C28_38
REMARK                            x       y       z     vdW  Elec       q    Type
REMARK                         _______ _______ _______ _____ _____    ______ ____
ROOT
ATOM      3  C   UNL     1      46.654  15.049  18.964  0.00  0.00    +0.003 C 
ATOM      4  C   UNL     1      46.858  13.548  19.190  0.00  0.00    +0.268 C 
ATOM      5  N   UNL     1      48.154  13.144  18.633  0.00  0.00    -0.380 N 
ATOM      6  H   UNL     1      48.886  13.698  19.050  0.00  0.00    +0.425 HD
ATOM      7  C   UNL     1      48.402  11.724  18.918  0.00  0.00    +0.273 C 
ATOM      8  C   UNL     1      49.868  11.414  18.612  0.00  0.00    +0.128 C 
ATOM      9  C   UNL     1      50.222  11.913  17.233  0.00  0.00    -0.075 A 
ATOM     10  C   UNL     1      51.378  11.437  16.634  0.00  0.00    -0.016 A 
ATOM     11  C   UNL     1      51.739  11.872  15.371  0.00  0.00    +0.141 A 
ATOM     14  C   UNL     1      50.936  12.791  14.701  0.00  0.00    +0.118 A 
ATOM     17  C   UNL     1      49.784  13.261  15.304  0.00  0.00    -0.020 A 
ATOM     18  C   UNL     1      49.424  12.821  16.570  0.00  0.00    -0.139 A 
ATOM     19  C   UNL     1      48.156  13.350  17.183  0.00  0.00    +0.234 C 
ATOM     20  C   UNL     1      48.011  14.843  16.878  0.00  0.00    +0.067 C 
ATOM     21  C   UNL     1      46.688  15.347  17.463  0.00  0.00    -0.023 C 
ENDROOT
BRANCH   3   2
ATOM      1  C   UNL     1      45.298  15.254  21.053  0.00  0.00    +0.028 C 
ATOM      2  C   UNL     1      45.301  15.472  19.538  0.00  0.00    +0.039 C 
ENDBRANCH   3   2
BRANCH  11  12
ATOM     12  O   UNL     1      52.875  11.402  14.786  0.00  0.00    -0.293 OA
ATOM     13  C   UNL     1      53.504  10.277  15.401  0.00  0.00    +0.260 C 
ENDBRANCH  11  12
BRANCH  14  15
ATOM     15  O   UNL     1      51.284  13.225  13.461  0.00  0.00    -0.292 OA
ATOM     16  C   UNL     1      50.424  12.858  12.380  0.00  0.00    +0.245 C 
ENDBRANCH  14  15
BRANCH  21  22
ATOM     22  C   UNL     1      46.571  16.856  17.239  0.00  0.00    +0.086 C 
BRANCH  22  23
ATOM     23  C   UNL     1      47.190  17.597  18.426  0.00  0.00    +0.230 C 
ATOM     24  C   UNL     1      46.446  18.889  18.646  0.00  0.00    -0.107 A 
ATOM     25  C   UNL     1      45.063  18.884  18.529  0.00  0.00    -0.037 A 
ATOM     26  C   UNL     1      44.341  20.046  18.726  0.00  0.00    +0.121 A 
ATOM     29  C   UNL     1      45.005  21.227  19.043  0.00  0.00    +0.118 A 
ATOM     32  C   UNL     1      46.384  21.228  19.158  0.00  0.00    +0.057 A 
ATOM     33  C   UNL     1      47.104  20.060  18.959  0.00  0.00    -0.106 A 
ATOM     34  C   UNL     1      48.605  20.108  19.085  0.00  0.00    +0.131 C 
ATOM     35  C   UNL     1      49.158  18.689  19.229  0.00  0.00    +0.278 C 
ATOM     36  N   UNL     1      48.605  17.859  18.149  0.00  0.00    -0.506 N 
ATOM     37  H   UNL     1      48.693  18.346  17.270  0.00  0.00    +0.433 HD
ATOM     38  H   UNL     1      49.107  16.984  18.104  0.00  0.00    +0.426 HD
BRANCH  26  27
ATOM     27  O   UNL     1      42.985  20.036  18.610  0.00  0.00    -0.293 OA
ATOM     28  C   UNL     1      42.244  19.496  19.707  0.00  0.00    +0.251 C 
ENDBRANCH  26  27
BRANCH  29  30
ATOM     30  O   UNL     1      44.303  22.375  19.240  0.00  0.00    -0.479 OA
ATOM     31  H   UNL     1      44.829  23.180  19.139  0.00  0.00    +0.405 HD
ENDBRANCH  29  30
ENDBRANCH  22  23
ENDBRANCH  21  22
TORSDOF 7
ENDMDL
MODEL 7
REMARK VINA RESULT:      -5.9      1.591      7.404
REMARK  Name = ZINC03871989
REMARK  11 active torsions:
REMARK  status: ('A' for Active; 'I' for Inactive)
REMARK    1  A    between atoms: C1_1  and  C2_2
REMARK    2  A    between atoms: C2_2  and  C3_3
REMARK    3  A    between atoms: C9_11  and  O4_37
REMARK    4  A    between atoms: C10_12  and  O3_35
REMARK    5  A    between atoms: C15_18  and  C16_20
REMARK    6  A    between atoms: C16_20  and  C17_21
REMARK    7  A    between atoms: C20_25  and  O2_33
REMARK    8  A    between atoms: C21_26  and  O1_32
REMARK    9  A    between atoms: O2_33  and  C26_34
REMARK   10  A    between atoms: O3_35  and  C27_36
REMARK   11  A    between atoms: O4_37  and  C28_38
REMARK                            x       y       z     vdW  Elec       q    Type
REMARK                         _______ _______ _______ _____ _____    ______ ____
ROOT
ATOM      3  C   UNL     1      51.333  16.810  18.934  0.00  0.00    +0.003 C 
ATOM      4  C   UNL     1      51.624  18.314  18.914  0.00  0.00    +0.268 C 
ATOM      5  N   UNL     1      50.485  19.037  19.490  0.00  0.00    -0.380 N 
ATOM      6  H   UNL     1      50.306  18.693  20.421  0.00  0.00    +0.425 HD
ATOM      7  C   UNL     1      50.785  20.474  19.557  0.00  0.00    +0.273 C 
ATOM      8  C   UNL     1      49.733  21.151  20.435  0.00  0.00    +0.128 C 
ATOM      9  C   UNL     1      48.350  20.756  19.980  0.00  0.00    -0.075 A 
ATOM     10  C   UNL     1      47.270  21.512  20.409  0.00  0.00    -0.016 A 
ATOM     11  C   UNL     1      45.985  21.181  20.015  0.00  0.00    +0.141 A 
ATOM     14  C   UNL     1      45.780  20.082  19.186  0.00  0.00    +0.118 A 
ATOM     17  C   UNL     1      46.861  19.332  18.761  0.00  0.00    -0.020 A 
ATOM     18  C   UNL     1      48.148  19.669  19.155  0.00  0.00    -0.139 A 
ATOM     19  C   UNL     1      49.296  18.832  18.660  0.00  0.00    +0.234 C 
ATOM     20  C   UNL     1      48.908  17.352  18.676  0.00  0.00    +0.067 C 
ATOM     21  C   UNL     1      50.070  16.525  18.117  0.00  0.00    -0.023 C 
ENDROOT
BRANCH   3   2
ATOM      1  C   UNL     1      53.762  16.280  19.186  0.00  0.00    +0.028 C 
ATOM      2  C   UNL     1      52.516  16.053  18.327  0.00  0.00    +0.039 C 
ENDBRANCH   3   2
BRANCH  11  12
ATOM     12  O   UNL     1      44.928  21.925  20.438  0.00  0.00    -0.293 OA
ATOM     13  C   UNL     1      44.667  23.140  19.734  0.00  0.00    +0.260 C 
ENDBRANCH  11  12
BRANCH  14  15
ATOM     15  O   UNL     1      44.521  19.747  18.796  0.00  0.00    -0.292 OA
ATOM     16  C   UNL     1      43.839  18.766  19.580  0.00  0.00    +0.245 C 
ENDBRANCH  14  15
BRANCH  21  22
ATOM     22  C   UNL     1      49.729  15.036  18.206  0.00  0.00    +0.086 C 
BRANCH  22  23
ATOM     23  C   UNL     1      48.908  14.627  16.982  0.00  0.00    +0.230 C 
ATOM     24  C   UNL     1      47.583  14.070  17.435  0.00  0.00    -0.107 A 
ATOM     25  C   UNL     1      46.924  14.702  18.479  0.00  0.00    -0.037 A 
ATOM     26  C   UNL     1      45.704  14.227  18.925  0.00  0.00    +0.121 A 
ATOM     29  C   UNL     1      45.136  13.109  18.322  0.00  0.00    +0.118 A 
ATOM     32  C   UNL     1      45.798  12.481  17.282  0.00  0.00    +0.057 A 
ATOM     33  C   UNL     1      47.021  12.962  16.839  0.00  0.00    -0.106 A 
ATOM     34  C   UNL     1      47.711  12.242  15.708  0.00  0.00    +0.131 C 
ATOM     35  C   UNL     1      48.804  13.135  15.117  0.00  0.00    +0.278 C 
ATOM     36  N   UNL     1      49.652  13.624  16.214  0.00  0.00    -0.506 N 
ATOM     37  H   UNL     1      49.903  12.854  16.817  0.00  0.00    +0.433 HD
ATOM     38  H   UNL     1      50.489  14.042  15.834  0.00  0.00    +0.426 HD
BRANCH  26  27
ATOM     27  O   UNL     1      45.062  14.850  19.950  0.00  0.00    -0.293 OA
ATOM     28  C   UNL     1      45.780  15.878  20.636  0.00  0.00    +0.251 C 
ENDBRANCH  26  27
BRANCH  29  30
ATOM     30  O   UNL     1      43.937  12.636  18.753  0.00  0.00    -0.479 OA
ATOM     31  H   UNL     1      44.003  11.992  19.473  0.00  0.00    +0.405 HD
ENDBRANCH  29  30
ENDBRANCH  22  23
ENDBRANCH  21  22
TORSDOF 7
ENDMDL
MODEL 8
REMARK VINA RESULT:      -5.9      3.442      6.114
REMARK  Name = ZINC03871989
REMARK  11 active torsions:
REMARK  status: ('A' for Active; 'I' for Inactive)
REMARK    1  A    between atoms: C1_1  and  C2_2
REMARK    2  A    between atoms: C2_2  and  C3_3
REMARK    3  A    between atoms: C9_11  and  O4_37
REMARK    4  A    between atoms: C10_12  and  O3_35
REMARK    5  A    between atoms: C15_18  and  C16_20
REMARK    6  A    between atoms: C16_20  and  C17_21
REMARK    7  A    between atoms: C20_25  and  O2_33
REMARK    8  A    between atoms: C21_26  and  O1_32
REMARK    9  A    between atoms: O2_33  and  C26_34
REMARK   10  A    between atoms: O3_35  and  C27_36
REMARK   11  A    between atoms: O4_37  and  C28_38
REMARK                            x       y       z     vdW  Elec       q    Type
REMARK                         _______ _______ _______ _____ _____    ______ ____
ROOT
ATOM      3  C   UNL     1      46.252  14.395  19.278  0.00  0.00    +0.003 C 
ATOM      4  C   UNL     1      45.582  13.276  18.474  0.00  0.00    +0.268 C 
ATOM      5  N   UNL     1      46.607  12.516  17.749  0.00  0.00    -0.380 N 
ATOM      6  H   UNL     1      47.288  12.163  18.405  0.00  0.00    +0.425 HD
ATOM      7  C   UNL     1      45.989  11.387  17.042  0.00  0.00    +0.273 C 
ATOM      8  C   UNL     1      47.096  10.445  16.566  0.00  0.00    +0.128 C 
ATOM      9  C   UNL     1      48.153  11.226  15.827  0.00  0.00    -0.075 A 
ATOM     10  C   UNL     1      49.051  10.534  15.029  0.00  0.00    -0.016 A 
ATOM     11  C   UNL     1      50.038  11.214  14.336  0.00  0.00    +0.141 A 
ATOM     14  C   UNL     1      50.127  12.599  14.444  0.00  0.00    +0.118 A 
ATOM     17  C   UNL     1      49.228  13.284  15.241  0.00  0.00    -0.020 A 
ATOM     18  C   UNL     1      48.238  12.599  15.932  0.00  0.00    -0.139 A 
ATOM     19  C   UNL     1      47.274  13.385  16.778  0.00  0.00    +0.234 C 
ATOM     20  C   UNL     1      48.017  14.502  17.514  0.00  0.00    +0.067 C 
ATOM     21  C   UNL     1      47.009  15.323  18.325  0.00  0.00    -0.023 C 
ENDROOT
BRANCH   3   2
ATOM      1  C   UNL     1      45.251  14.858  21.520  0.00  0.00    +0.028 C 
ATOM      2  C   UNL     1      45.184  15.193  20.028  0.00  0.00    +0.039 C 
ENDBRANCH   3   2
BRANCH  11  12
ATOM     12  O   UNL     1      50.917  10.531  13.554  0.00  0.00    -0.293 OA
ATOM     13  C   UNL     1      52.211  10.277  14.102  0.00  0.00    +0.260 C 
ENDBRANCH  11  12
BRANCH  14  15
ATOM     15  O   UNL     1      51.094  13.275  13.769  0.00  0.00    -0.292 OA
ATOM     16  C   UNL     1      51.007  13.279  12.342  0.00  0.00    +0.245 C 
ENDBRANCH  14  15
BRANCH  21  22
ATOM     22  C   UNL     1      47.750  16.390  19.133  0.00  0.00    +0.086 C 
BRANCH  22  23
ATOM     23  C   UNL     1      47.294  17.780  18.680  0.00  0.00    +0.230 C 
ATOM     24  C   UNL     1      48.499  18.673  18.533  0.00  0.00    -0.107 A 
ATOM     25  C   UNL     1      49.647  18.145  17.960  0.00  0.00    -0.037 A 
ATOM     26  C   UNL     1      50.774  18.930  17.803  0.00  0.00    +0.121 A 
ATOM     29  C   UNL     1      50.755  20.258  18.221  0.00  0.00    +0.118 A 
ATOM     32  C   UNL     1      49.608  20.780  18.792  0.00  0.00    +0.057 A 
ATOM     33  C   UNL     1      48.481  19.988  18.948  0.00  0.00    -0.106 A 
ATOM     34  C   UNL     1      47.256  20.595  19.583  0.00  0.00    +0.131 C 
ATOM     35  C   UNL     1      46.037  19.715  19.300  0.00  0.00    +0.278 C 
ATOM     36  N   UNL     1      46.364  18.330  19.669  0.00  0.00    -0.506 N 
ATOM     37  H   UNL     1      46.793  18.315  20.582  0.00  0.00    +0.433 HD
ATOM     38  H   UNL     1      45.519  17.776  19.683  0.00  0.00    +0.426 HD
BRANCH  26  27
ATOM     27  O   UNL     1      51.898  18.408  17.241  0.00  0.00    -0.293 OA
ATOM     28  C   UNL     1      51.866  18.163  15.833  0.00  0.00    +0.251 C 
ENDBRANCH  26  27
BRANCH  29  30
ATOM     30  O   UNL     1      51.858  21.038  18.069  0.00  0.00    -0.479 OA
ATOM     31  H   UNL     1      52.657  20.673  18.474  0.00  0.00    +0.405 HD
ENDBRANCH  29  30
ENDBRANCH  22  23
ENDBRANCH  21  22
TORSDOF 7
ENDMDL
MODEL 9
REMARK VINA RESULT:      -5.8      2.011      2.700
REMARK  Name = ZINC03871989
REMARK  11 active torsions:
REMARK  status: ('A' for Active; 'I' for Inactive)
REMARK    1  A    between atoms: C1_1  and  C2_2
REMARK    2  A    between atoms: C2_2  and  C3_3
REMARK    3  A    between atoms: C9_11  and  O4_37
REMARK    4  A    between atoms: C10_12  and  O3_35
REMARK    5  A    between atoms: C15_18  and  C16_20
REMARK    6  A    between atoms: C16_20  and  C17_21
REMARK    7  A    between atoms: C20_25  and  O2_33
REMARK    8  A    between atoms: C21_26  and  O1_32
REMARK    9  A    between atoms: O2_33  and  C26_34
REMARK   10  A    between atoms: O3_35  and  C27_36
REMARK   11  A    between atoms: O4_37  and  C28_38
REMARK                            x       y       z     vdW  Elec       q    Type
REMARK                         _______ _______ _______ _____ _____    ______ ____
ROOT
ATOM      3  C   UNL     1      49.815  19.634  18.690  0.00  0.00    +0.003 C 
ATOM      4  C   UNL     1      50.944  18.599  18.664  0.00  0.00    +0.268 C 
ATOM      5  N   UNL     1      50.530  17.448  17.853  0.00  0.00    -0.380 N 
ATOM      6  H   UNL     1      50.277  17.763  16.929  0.00  0.00    +0.425 HD
ATOM      7  C   UNL     1      51.635  16.485  17.748  0.00  0.00    +0.273 C 
ATOM      8  C   UNL     1      51.293  15.468  16.658  0.00  0.00    +0.128 C 
ATOM      9  C   UNL     1      49.912  14.910  16.890  0.00  0.00    -0.075 A 
ATOM     10  C   UNL     1      49.549  13.745  16.233  0.00  0.00    -0.016 A 
ATOM     11  C   UNL     1      48.290  13.201  16.417  0.00  0.00    +0.141 A 
ATOM     14  C   UNL     1      47.385  13.831  17.267  0.00  0.00    +0.118 A 
ATOM     17  C   UNL     1      47.752  14.993  17.921  0.00  0.00    -0.020 A 
ATOM     18  C   UNL     1      49.017  15.533  17.735  0.00  0.00    -0.139 A 
ATOM     19  C   UNL     1      49.378  16.792  18.476  0.00  0.00    +0.234 C 
ATOM     20  C   UNL     1      48.186  17.751  18.486  0.00  0.00    +0.067 C 
ATOM     21  C   UNL     1      48.558  19.001  19.291  0.00  0.00    -0.023 C 
ENDROOT
BRANCH   3   2
ATOM      1  C   UNL     1      51.638  21.289  19.115  0.00  0.00    +0.028 C 
ATOM      2  C   UNL     1      50.241  20.832  19.540  0.00  0.00    +0.039 C 
ENDBRANCH   3   2
BRANCH  11  12
ATOM     12  O   UNL     1      47.938  12.057  15.770  0.00  0.00    -0.293 OA
ATOM     13  C   UNL     1      47.708  12.152  14.363  0.00  0.00    +0.260 C 
ENDBRANCH  11  12
BRANCH  14  15
ATOM     15  O   UNL     1      46.144  13.306  17.453  0.00  0.00    -0.292 OA
ATOM     16  C   UNL     1      45.695  13.164  18.802  0.00  0.00    +0.245 C 
ENDBRANCH  14  15
BRANCH  21  22
ATOM     22  C   UNL     1      47.405  20.005  19.239  0.00  0.00    +0.086 C 
BRANCH  22  23
ATOM     23  C   UNL     1      47.040  20.437  20.661  0.00  0.00    +0.230 C 
ATOM     24  C   UNL     1      45.768  19.746  21.078  0.00  0.00    -0.107 A 
ATOM     25  C   UNL     1      45.598  18.412  20.739  0.00  0.00    -0.037 A 
ATOM     26  C   UNL     1      44.448  17.738  21.105  0.00  0.00    +0.121 A 
ATOM     29  C   UNL     1      43.455  18.404  21.818  0.00  0.00    +0.118 A 
ATOM     32  C   UNL     1      43.627  19.735  22.153  0.00  0.00    +0.057 A 
ATOM     33  C   UNL     1      44.783  20.406  21.783  0.00  0.00    -0.106 A 
ATOM     34  C   UNL     1      44.926  21.858  22.162  0.00  0.00    +0.131 C 
ATOM     35  C   UNL     1      46.389  22.286  22.028  0.00  0.00    +0.278 C 
ATOM     36  N   UNL     1      46.871  21.892  20.696  0.00  0.00    -0.506 N 
ATOM     37  H   UNL     1      46.199  22.172  19.996  0.00  0.00    +0.433 HD
ATOM     38  H   UNL     1      47.757  22.340  20.512  0.00  0.00    +0.426 HD
BRANCH  26  27
ATOM     27  O   UNL     1      44.286  16.430  20.770  0.00  0.00    -0.293 OA
ATOM     28  C   UNL     1      44.979  15.466  21.566  0.00  0.00    +0.251 C 
ENDBRANCH  26  27
BRANCH  29  30
ATOM     30  O   UNL     1      42.320  17.749  22.183  0.00  0.00    -0.479 OA
ATOM     31  H   UNL     1      42.337  17.409  23.089  0.00  0.00    +0.405 HD
ENDBRANCH  29  30
ENDBRANCH  22  23
ENDBRANCH  21  22
TORSDOF 7
ENDMDL
