MODEL 1
REMARK VINA RESULT:      -6.4      0.000      0.000
REMARK  Name = ZINC95485992
REMARK  17 active torsions:
REMARK  status: ('A' for Active; 'I' for Inactive)
REMARK    1  A    between atoms: C1_1  and  C2_2
REMARK    2  A    between atoms: C3_3  and  C4_4
REMARK    3  A    between atoms: C3_3  and  C5_5
REMARK    4  A    between atoms: C5_5  and  C6_6
REMARK    5  A    between atoms: C6_6  and  C7_7
REMARK    6  A    between atoms: C9_9  and  C13_14
REMARK    7  A    between atoms: C12_12  and  O1_13
REMARK    8  A    between atoms: C14_15  and  C15_16
REMARK    9  A    between atoms: C15_16  and  C16_18
REMARK   10  A    between atoms: C18_20  and  C22_26
REMARK   11  A    between atoms: C19_21  and  O4_25
REMARK   12  A    between atoms: C21_23  and  O3_24
REMARK   13  A    between atoms: C22_26  and  C23_27
REMARK   14  A    between atoms: C23_27  and  C24_28
REMARK   15  A    between atoms: C24_28  and  C25_30
REMARK   16  A    between atoms: C24_28  and  O5_33
REMARK   17  A    between atoms: C25_30  and  C27_32
REMARK                            x       y       z     vdW  Elec       q    Type
REMARK                         _______ _______ _______ _____ _____    ______ ____
ROOT
ATOM     11  C   UNL     1      51.092  20.789  18.969  0.00  0.00    +0.423 C 
ATOM     30  O   UNL     1      51.868  21.705  19.185  0.00  0.00    -0.443 OA
ENDROOT
BRANCH  11  12
ATOM     12  C   UNL     1      51.401  19.793  17.927  0.00  0.00    -0.195 A 
ATOM     13  C   UNL     1      51.165  18.435  18.164  0.00  0.00    +0.097 A 
ATOM     14  C   UNL     1      51.454  17.508  17.189  0.00  0.00    -0.128 A 
ATOM     23  C   UNL     1      51.980  17.916  15.968  0.00  0.00    +0.159 A 
ATOM     26  C   UNL     1      52.218  19.260  15.723  0.00  0.00    -0.044 A 
ATOM     27  C   UNL     1      51.926  20.203  16.693  0.00  0.00    +0.180 A 
BRANCH  23  24
ATOM     24  O   UNL     1      52.263  16.995  15.012  0.00  0.00    -0.489 OA
ATOM     25  H   UNL     1      51.509  16.446  14.759  0.00  0.00    +0.394 HD
ENDBRANCH  23  24
BRANCH  27  28
ATOM     28  O   UNL     1      52.152  21.519  16.453  0.00  0.00    -0.479 OA
ATOM     29  H   UNL     1      52.926  21.876  16.913  0.00  0.00    +0.398 HD
ENDBRANCH  27  28
BRANCH  14  15
ATOM     15  C   UNL     1      51.198  16.045  17.446  0.00  0.00    +0.091 C 
BRANCH  15  16
ATOM     16  C   UNL     1      50.226  15.894  18.618  0.00  0.00    -0.001 C 
BRANCH  16  17
ATOM     17  C   UNL     1      48.831  15.563  18.083  0.00  0.00    +0.247 C 
BRANCH  17  20
ATOM     20  C   UNL     1      47.900  16.715  18.360  0.00  0.00    -0.165 C 
ATOM     21  C   UNL     1      47.257  16.856  19.715  0.00  0.00    +0.077 C 
ATOM     22  C   UNL     1      47.651  17.595  17.422  0.00  0.00    +0.024 C 
ENDBRANCH  17  20
BRANCH  17  18
ATOM     18  O   UNL     1      48.902  15.336  16.674  0.00  0.00    -0.552 OA
ATOM     19  H   UNL     1      48.424  15.991  16.145  0.00  0.00    +0.374 HD
ENDBRANCH  17  18
ENDBRANCH  16  17
ENDBRANCH  15  16
ENDBRANCH  14  15
ENDBRANCH  11  12
BRANCH  11  10
ATOM      9  C   UNL     1      48.660  20.816  19.127  0.00  0.00    +0.127 C 
ATOM     10  C   UNL     1      49.856  20.681  19.742  0.00  0.00    -0.104 C 
BRANCH   9   8
ATOM      6  C   UNL     1      45.046  21.043  20.091  0.00  0.00    -0.109 A 
ATOM      7  C   UNL     1      46.206  21.148  19.358  0.00  0.00    +0.059 A 
ATOM      8  C   UNL     1      47.418  20.708  19.905  0.00  0.00    -0.088 A 
ATOM     31  C   UNL     1      47.442  20.162  21.194  0.00  0.00    +0.046 A 
ATOM     32  C   UNL     1      46.275  20.061  21.917  0.00  0.00    -0.011 A 
ATOM     33  C   UNL     1      45.076  20.506  21.373  0.00  0.00    +0.125 A 
BRANCH  33  34
ATOM     34  O   UNL     1      43.929  20.410  22.093  0.00  0.00    -0.493 OA
ATOM     35  H   UNL     1      43.238  19.887  21.664  0.00  0.00    +0.391 HD
ENDBRANCH  33  34
BRANCH   6   5
ATOM      5  C   UNL     1      43.740  21.517  19.505  0.00  0.00    +0.084 C 
BRANCH   5   4
ATOM      4  C   UNL     1      43.023  20.340  18.840  0.00  0.00    +0.060 C 
BRANCH   4   3
ATOM      1  C   UNL     1      39.339  21.411  18.675  0.00  0.00    +0.064 C 
ATOM      2  C   UNL     1      40.820  21.306  18.420  0.00  0.00    -0.057 C 
ATOM      3  C   UNL     1      41.542  20.446  19.095  0.00  0.00    -0.134 C 
ATOM     36  C   UNL     1      40.891  19.564  20.129  0.00  0.00    +0.073 C 
ENDBRANCH   4   3
ENDBRANCH   5   4
ENDBRANCH   6   5
ENDBRANCH   9   8
ENDBRANCH  11  10
TORSDOF 14
ENDMDL
MODEL 2
REMARK VINA RESULT:      -6.3      2.381      7.770
REMARK  Name = ZINC95485992
REMARK  17 active torsions:
REMARK  status: ('A' for Active; 'I' for Inactive)
REMARK    1  A    between atoms: C1_1  and  C2_2
REMARK    2  A    between atoms: C3_3  and  C4_4
REMARK    3  A    between atoms: C3_3  and  C5_5
REMARK    4  A    between atoms: C5_5  and  C6_6
REMARK    5  A    between atoms: C6_6  and  C7_7
REMARK    6  A    between atoms: C9_9  and  C13_14
REMARK    7  A    between atoms: C12_12  and  O1_13
REMARK    8  A    between atoms: C14_15  and  C15_16
REMARK    9  A    between atoms: C15_16  and  C16_18
REMARK   10  A    between atoms: C18_20  and  C22_26
REMARK   11  A    between atoms: C19_21  and  O4_25
REMARK   12  A    between atoms: C21_23  and  O3_24
REMARK   13  A    between atoms: C22_26  and  C23_27
REMARK   14  A    between atoms: C23_27  and  C24_28
REMARK   15  A    between atoms: C24_28  and  C25_30
REMARK   16  A    between atoms: C24_28  and  O5_33
REMARK   17  A    between atoms: C25_30  and  C27_32
REMARK                            x       y       z     vdW  Elec       q    Type
REMARK                         _______ _______ _______ _____ _____    ______ ____
ROOT
ATOM     11  C   UNL     1      44.777  21.303  19.456  0.00  0.00    +0.423 C 
ATOM     30  O   UNL     1      44.684  22.518  19.459  0.00  0.00    -0.443 OA
ENDROOT
BRANCH  11  12
ATOM     12  C   UNL     1      43.668  20.478  19.969  0.00  0.00    -0.195 A 
ATOM     13  C   UNL     1      43.907  19.518  20.959  0.00  0.00    +0.097 A 
ATOM     14  C   UNL     1      42.870  18.751  21.436  0.00  0.00    -0.128 A 
ATOM     23  C   UNL     1      41.582  18.925  20.938  0.00  0.00    +0.159 A 
ATOM     26  C   UNL     1      41.334  19.873  19.956  0.00  0.00    -0.044 A 
ATOM     27  C   UNL     1      42.368  20.656  19.472  0.00  0.00    +0.180 A 
BRANCH  23  24
ATOM     24  O   UNL     1      40.565  18.163  21.413  0.00  0.00    -0.489 OA
ATOM     25  H   UNL     1      39.717  18.626  21.465  0.00  0.00    +0.394 HD
ENDBRANCH  23  24
BRANCH  27  28
ATOM     28  O   UNL     1      42.126  21.588  18.517  0.00  0.00    -0.479 OA
ATOM     29  H   UNL     1      42.894  21.794  17.964  0.00  0.00    +0.398 HD
ENDBRANCH  27  28
BRANCH  14  15
ATOM     15  C   UNL     1      43.130  17.718  22.502  0.00  0.00    +0.091 C 
BRANCH  15  16
ATOM     16  C   UNL     1      44.577  17.232  22.401  0.00  0.00    -0.001 C 
BRANCH  16  17
ATOM     17  C   UNL     1      44.640  16.006  21.486  0.00  0.00    +0.247 C 
BRANCH  17  20
ATOM     20  C   UNL     1      45.702  16.216  20.438  0.00  0.00    -0.165 C 
ATOM     21  C   UNL     1      47.133  15.844  20.729  0.00  0.00    +0.077 C 
ATOM     22  C   UNL     1      45.381  16.723  19.273  0.00  0.00    +0.024 C 
ENDBRANCH  17  20
BRANCH  17  18
ATOM     18  O   UNL     1      44.958  14.849  22.262  0.00  0.00    -0.552 OA
ATOM     19  H   UNL     1      45.015  14.033  21.745  0.00  0.00    +0.374 HD
ENDBRANCH  17  18
ENDBRANCH  16  17
ENDBRANCH  15  16
ENDBRANCH  14  15
ENDBRANCH  11  12
BRANCH  11  10
ATOM      9  C   UNL     1      47.168  20.849  19.573  0.00  0.00    +0.127 C 
ATOM     10  C   UNL     1      45.987  20.663  18.943  0.00  0.00    -0.104 C 
BRANCH   9   8
ATOM      6  C   UNL     1      49.538  18.238  18.304  0.00  0.00    -0.109 A 
ATOM      7  C   UNL     1      48.395  18.833  18.788  0.00  0.00    +0.059 A 
ATOM      8  C   UNL     1      48.385  20.207  19.057  0.00  0.00    -0.088 A 
ATOM     31  C   UNL     1      49.539  20.969  18.831  0.00  0.00    +0.046 A 
ATOM     32  C   UNL     1      50.676  20.363  18.347  0.00  0.00    -0.011 A 
ATOM     33  C   UNL     1      50.683  18.997  18.088  0.00  0.00    +0.125 A 
BRANCH  33  34
ATOM     34  O   UNL     1      51.809  18.404  17.616  0.00  0.00    -0.493 OA
ATOM     35  H   UNL     1      51.663  17.846  16.840  0.00  0.00    +0.391 HD
ENDBRANCH  33  34
BRANCH   6   5
ATOM      5  C   UNL     1      49.551  16.759  18.015  0.00  0.00    +0.084 C 
BRANCH   5   4
ATOM      4  C   UNL     1      48.397  16.414  17.072  0.00  0.00    +0.060 C 
BRANCH   4   3
ATOM      1  C   UNL     1      46.519  13.066  16.938  0.00  0.00    +0.064 C 
ATOM      2  C   UNL     1      46.888  14.518  16.770  0.00  0.00    -0.057 C 
ATOM      3  C   UNL     1      48.027  14.962  17.239  0.00  0.00    -0.134 C 
ATOM     36  C   UNL     1      48.968  14.023  17.949  0.00  0.00    +0.073 C 
ENDBRANCH   4   3
ENDBRANCH   5   4
ENDBRANCH   6   5
ENDBRANCH   9   8
ENDBRANCH  11  10
TORSDOF 14
ENDMDL
MODEL 3
REMARK VINA RESULT:      -6.3      2.359      5.469
REMARK  Name = ZINC95485992
REMARK  17 active torsions:
REMARK  status: ('A' for Active; 'I' for Inactive)
REMARK    1  A    between atoms: C1_1  and  C2_2
REMARK    2  A    between atoms: C3_3  and  C4_4
REMARK    3  A    between atoms: C3_3  and  C5_5
REMARK    4  A    between atoms: C5_5  and  C6_6
REMARK    5  A    between atoms: C6_6  and  C7_7
REMARK    6  A    between atoms: C9_9  and  C13_14
REMARK    7  A    between atoms: C12_12  and  O1_13
REMARK    8  A    between atoms: C14_15  and  C15_16
REMARK    9  A    between atoms: C15_16  and  C16_18
REMARK   10  A    between atoms: C18_20  and  C22_26
REMARK   11  A    between atoms: C19_21  and  O4_25
REMARK   12  A    between atoms: C21_23  and  O3_24
REMARK   13  A    between atoms: C22_26  and  C23_27
REMARK   14  A    between atoms: C23_27  and  C24_28
REMARK   15  A    between atoms: C24_28  and  C25_30
REMARK   16  A    between atoms: C24_28  and  O5_33
REMARK   17  A    between atoms: C25_30  and  C27_32
REMARK                            x       y       z     vdW  Elec       q    Type
REMARK                         _______ _______ _______ _____ _____    ______ ____
ROOT
ATOM     11  C   UNL     1      50.966  16.325  17.171  0.00  0.00    +0.423 C 
ATOM     30  O   UNL     1      51.881  15.531  17.043  0.00  0.00    -0.443 OA
ENDROOT
BRANCH  11  12
ATOM     12  C   UNL     1      51.192  17.758  16.909  0.00  0.00    -0.195 A 
ATOM     13  C   UNL     1      50.653  18.722  17.768  0.00  0.00    +0.097 A 
ATOM     14  C   UNL     1      50.867  20.058  17.522  0.00  0.00    -0.128 A 
ATOM     23  C   UNL     1      51.618  20.456  16.420  0.00  0.00    +0.159 A 
ATOM     26  C   UNL     1      52.156  19.509  15.562  0.00  0.00    -0.044 A 
ATOM     27  C   UNL     1      51.954  18.161  15.803  0.00  0.00    +0.180 A 
BRANCH  23  24
ATOM     24  O   UNL     1      51.823  21.776  16.183  0.00  0.00    -0.489 OA
ATOM     25  H   UNL     1      51.715  22.338  16.963  0.00  0.00    +0.394 HD
ENDBRANCH  23  24
BRANCH  27  28
ATOM     28  O   UNL     1      52.486  17.233  14.967  0.00  0.00    -0.479 OA
ATOM     29  H   UNL     1      52.516  16.340  15.340  0.00  0.00    +0.398 HD
ENDBRANCH  27  28
BRANCH  14  15
ATOM     15  C   UNL     1      50.285  21.094  18.448  0.00  0.00    +0.091 C 
BRANCH  15  16
ATOM     16  C   UNL     1      49.568  20.398  19.607  0.00  0.00    -0.001 C 
BRANCH  16  17
ATOM     17  C   UNL     1      48.224  21.085  19.860  0.00  0.00    +0.247 C 
BRANCH  17  20
ATOM     20  C   UNL     1      47.139  20.360  19.107  0.00  0.00    -0.165 C 
ATOM     21  C   UNL     1      45.879  21.087  18.713  0.00  0.00    +0.077 C 
ATOM     22  C   UNL     1      47.292  19.097  18.794  0.00  0.00    +0.024 C 
ENDBRANCH  17  20
BRANCH  17  18
ATOM     18  O   UNL     1      47.932  21.060  21.259  0.00  0.00    -0.552 OA
ATOM     19  H   UNL     1      48.502  21.633  21.790  0.00  0.00    +0.374 HD
ENDBRANCH  17  18
ENDBRANCH  16  17
ENDBRANCH  15  16
ENDBRANCH  14  15
ENDBRANCH  11  12
BRANCH  11  10
ATOM      9  C   UNL     1      49.197  14.649  17.173  0.00  0.00    +0.127 C 
ATOM     10  C   UNL     1      49.644  15.856  17.583  0.00  0.00    -0.104 C 
BRANCH   9   8
ATOM      6  C   UNL     1      46.012  14.267  19.111  0.00  0.00    -0.109 A 
ATOM      7  C   UNL     1      47.257  14.711  18.728  0.00  0.00    +0.059 A 
ATOM      8  C   UNL     1      47.868  14.178  17.587  0.00  0.00    -0.088 A 
ATOM     31  C   UNL     1      47.207  13.195  16.839  0.00  0.00    +0.046 A 
ATOM     32  C   UNL     1      45.962  12.759  17.230  0.00  0.00    -0.011 A 
ATOM     33  C   UNL     1      45.362  13.286  18.369  0.00  0.00    +0.125 A 
BRANCH  33  34
ATOM     34  O   UNL     1      44.137  12.848  18.753  0.00  0.00    -0.493 OA
ATOM     35  H   UNL     1      43.706  12.269  18.110  0.00  0.00    +0.391 HD
ENDBRANCH  33  34
BRANCH   6   5
ATOM      5  C   UNL     1      45.353  14.839  20.340  0.00  0.00    +0.084 C 
BRANCH   5   4
ATOM      4  C   UNL     1      45.693  16.326  20.455  0.00  0.00    +0.060 C 
BRANCH   4   3
ATOM      1  C   UNL     1      42.837  18.890  20.589  0.00  0.00    +0.064 C 
ATOM      2  C   UNL     1      44.065  18.124  20.170  0.00  0.00    -0.057 C 
ATOM      3  C   UNL     1      44.465  17.092  20.872  0.00  0.00    -0.134 C 
ATOM     36  C   UNL     1      43.697  16.672  22.099  0.00  0.00    +0.073 C 
ENDBRANCH   4   3
ENDBRANCH   5   4
ENDBRANCH   6   5
ENDBRANCH   9   8
ENDBRANCH  11  10
TORSDOF 14
ENDMDL
MODEL 4
REMARK VINA RESULT:      -6.2      1.777      2.308
REMARK  Name = ZINC95485992
REMARK  17 active torsions:
REMARK  status: ('A' for Active; 'I' for Inactive)
REMARK    1  A    between atoms: C1_1  and  C2_2
REMARK    2  A    between atoms: C3_3  and  C4_4
REMARK    3  A    between atoms: C3_3  and  C5_5
REMARK    4  A    between atoms: C5_5  and  C6_6
REMARK    5  A    between atoms: C6_6  and  C7_7
REMARK    6  A    between atoms: C9_9  and  C13_14
REMARK    7  A    between atoms: C12_12  and  O1_13
REMARK    8  A    between atoms: C14_15  and  C15_16
REMARK    9  A    between atoms: C15_16  and  C16_18
REMARK   10  A    between atoms: C18_20  and  C22_26
REMARK   11  A    between atoms: C19_21  and  O4_25
REMARK   12  A    between atoms: C21_23  and  O3_24
REMARK   13  A    between atoms: C22_26  and  C23_27
REMARK   14  A    between atoms: C23_27  and  C24_28
REMARK   15  A    between atoms: C24_28  and  C25_30
REMARK   16  A    between atoms: C24_28  and  O5_33
REMARK   17  A    between atoms: C25_30  and  C27_32
REMARK                            x       y       z     vdW  Elec       q    Type
REMARK                         _______ _______ _______ _____ _____    ______ ____
ROOT
ATOM     11  C   UNL     1      50.451  20.132  18.329  0.00  0.00    +0.423 C 
ATOM     30  O   UNL     1      51.358  20.743  17.791  0.00  0.00    -0.443 OA
ENDROOT
BRANCH  11  12
ATOM     12  C   UNL     1      50.528  18.666  18.463  0.00  0.00    -0.195 A 
ATOM     13  C   UNL     1      49.621  17.850  17.779  0.00  0.00    +0.097 A 
ATOM     14  C   UNL     1      49.697  16.483  17.905  0.00  0.00    -0.128 A 
ATOM     23  C   UNL     1      50.673  15.906  18.713  0.00  0.00    +0.159 A 
ATOM     26  C   UNL     1      51.576  16.706  19.397  0.00  0.00    -0.044 A 
ATOM     27  C   UNL     1      51.515  18.083  19.272  0.00  0.00    +0.180 A 
BRANCH  23  24
ATOM     24  O   UNL     1      50.740  14.556  18.834  0.00  0.00    -0.489 OA
ATOM     25  H   UNL     1      49.973  14.162  19.272  0.00  0.00    +0.394 HD
ENDBRANCH  23  24
BRANCH  27  28
ATOM     28  O   UNL     1      52.402  18.867  19.935  0.00  0.00    -0.479 OA
ATOM     29  H   UNL     1      53.137  18.378  20.333  0.00  0.00    +0.398 HD
ENDBRANCH  27  28
BRANCH  14  15
ATOM     15  C   UNL     1      48.719  15.605  17.167  0.00  0.00    +0.091 C 
BRANCH  15  16
ATOM     16  C   UNL     1      47.459  15.420  18.014  0.00  0.00    -0.001 C 
BRANCH  16  17
ATOM     17  C   UNL     1      46.335  16.296  17.455  0.00  0.00    +0.247 C 
BRANCH  17  20
ATOM     20  C   UNL     1      46.187  17.528  18.310  0.00  0.00    -0.165 C 
ATOM     21  C   UNL     1      46.237  17.414  19.811  0.00  0.00    +0.077 C 
ATOM     22  C   UNL     1      46.013  18.698  17.747  0.00  0.00    +0.024 C 
ENDBRANCH  17  20
BRANCH  17  18
ATOM     18  O   UNL     1      46.652  16.680  16.116  0.00  0.00    -0.552 OA
ATOM     19  H   UNL     1      47.006  17.577  16.037  0.00  0.00    +0.374 HD
ENDBRANCH  17  18
ENDBRANCH  16  17
ENDBRANCH  15  16
ENDBRANCH  14  15
ENDBRANCH  11  12
BRANCH  11  10
ATOM      9  C   UNL     1      48.782  20.545  20.057  0.00  0.00    +0.127 C 
ATOM     10  C   UNL     1      49.287  20.853  18.842  0.00  0.00    -0.104 C 
BRANCH   9   8
ATOM      6  C   UNL     1      45.300  21.893  20.373  0.00  0.00    -0.109 A 
ATOM      7  C   UNL     1      46.393  21.213  19.885  0.00  0.00    +0.059 A 
ATOM      8  C   UNL     1      47.612  21.269  20.572  0.00  0.00    -0.088 A 
ATOM     31  C   UNL     1      47.713  22.016  21.752  0.00  0.00    +0.046 A 
ATOM     32  C   UNL     1      46.613  22.692  22.231  0.00  0.00    -0.011 A 
ATOM     33  C   UNL     1      45.406  22.639  21.542  0.00  0.00    +0.125 A 
BRANCH  33  34
ATOM     34  O   UNL     1      44.327  23.312  22.015  0.00  0.00    -0.493 OA
ATOM     35  H   UNL     1      44.066  24.069  21.473  0.00  0.00    +0.391 HD
ENDBRANCH  33  34
BRANCH   6   5
ATOM      5  C   UNL     1      43.987  21.834  19.636  0.00  0.00    +0.084 C 
BRANCH   5   4
ATOM      4  C   UNL     1      43.408  20.422  19.737  0.00  0.00    +0.060 C 
BRANCH   4   3
ATOM      1  C   UNL     1      39.967  21.547  18.454  0.00  0.00    +0.064 C 
ATOM      2  C   UNL     1      41.429  21.519  18.818  0.00  0.00    -0.057 C 
ATOM      3  C   UNL     1      41.946  20.451  19.373  0.00  0.00    -0.134 C 
ATOM     36  C   UNL     1      41.077  19.251  19.649  0.00  0.00    +0.073 C 
ENDBRANCH   4   3
ENDBRANCH   5   4
ENDBRANCH   6   5
ENDBRANCH   9   8
ENDBRANCH  11  10
TORSDOF 14
ENDMDL
MODEL 5
REMARK VINA RESULT:      -6.2      1.514      3.937
REMARK  Name = ZINC95485992
REMARK  17 active torsions:
REMARK  status: ('A' for Active; 'I' for Inactive)
REMARK    1  A    between atoms: C1_1  and  C2_2
REMARK    2  A    between atoms: C3_3  and  C4_4
REMARK    3  A    between atoms: C3_3  and  C5_5
REMARK    4  A    between atoms: C5_5  and  C6_6
REMARK    5  A    between atoms: C6_6  and  C7_7
REMARK    6  A    between atoms: C9_9  and  C13_14
REMARK    7  A    between atoms: C12_12  and  O1_13
REMARK    8  A    between atoms: C14_15  and  C15_16
REMARK    9  A    between atoms: C15_16  and  C16_18
REMARK   10  A    between atoms: C18_20  and  C22_26
REMARK   11  A    between atoms: C19_21  and  O4_25
REMARK   12  A    between atoms: C21_23  and  O3_24
REMARK   13  A    between atoms: C22_26  and  C23_27
REMARK   14  A    between atoms: C23_27  and  C24_28
REMARK   15  A    between atoms: C24_28  and  C25_30
REMARK   16  A    between atoms: C24_28  and  O5_33
REMARK   17  A    between atoms: C25_30  and  C27_32
REMARK                            x       y       z     vdW  Elec       q    Type
REMARK                         _______ _______ _______ _____ _____    ______ ____
ROOT
ATOM     11  C   UNL     1      47.129  17.207  17.420  0.00  0.00    +0.423 C 
ATOM     30  O   UNL     1      46.441  16.407  16.810  0.00  0.00    -0.443 OA
ENDROOT
BRANCH  11  12
ATOM     12  C   UNL     1      48.583  16.994  17.535  0.00  0.00    -0.195 A 
ATOM     13  C   UNL     1      49.469  17.784  16.795  0.00  0.00    +0.097 A 
ATOM     14  C   UNL     1      50.824  17.582  16.904  0.00  0.00    -0.128 A 
ATOM     23  C   UNL     1      51.320  16.594  17.750  0.00  0.00    +0.159 A 
ATOM     26  C   UNL     1      50.451  15.804  18.488  0.00  0.00    -0.044 A 
ATOM     27  C   UNL     1      49.084  16.002  18.390  0.00  0.00    +0.180 A 
BRANCH  23  24
ATOM     24  O   UNL     1      52.659  16.400  17.852  0.00  0.00    -0.489 OA
ATOM     25  H   UNL     1      52.930  15.937  18.656  0.00  0.00    +0.394 HD
ENDBRANCH  23  24
BRANCH  27  28
ATOM     28  O   UNL     1      48.233  15.235  19.117  0.00  0.00    -0.479 OA
ATOM     29  H   UNL     1      47.409  15.016  18.656  0.00  0.00    +0.398 HD
ENDBRANCH  27  28
BRANCH  14  15
ATOM     15  C   UNL     1      51.777  18.435  16.107  0.00  0.00    +0.091 C 
BRANCH  15  16
ATOM     16  C   UNL     1      51.475  19.913  16.361  0.00  0.00    -0.001 C 
BRANCH  16  17
ATOM     17  C   UNL     1      52.381  20.433  17.480  0.00  0.00    +0.247 C 
BRANCH  17  20
ATOM     20  C   UNL     1      51.535  21.016  18.581  0.00  0.00    -0.165 C 
ATOM     21  C   UNL     1      50.037  21.072  18.431  0.00  0.00    +0.077 C 
ATOM     22  C   UNL     1      52.102  21.474  19.670  0.00  0.00    +0.024 C 
ENDBRANCH  17  20
BRANCH  17  18
ATOM     18  O   UNL     1      53.164  19.357  17.999  0.00  0.00    -0.552 OA
ATOM     19  H   UNL     1      54.036  19.271  17.589  0.00  0.00    +0.374 HD
ENDBRANCH  17  18
ENDBRANCH  16  17
ENDBRANCH  15  16
ENDBRANCH  14  15
ENDBRANCH  11  12
BRANCH  11  10
ATOM      9  C   UNL     1      47.116  18.992  19.080  0.00  0.00    +0.127 C 
ATOM     10  C   UNL     1      46.510  18.379  18.039  0.00  0.00    -0.104 C 
BRANCH   9   8
ATOM      6  C   UNL     1      44.602  21.627  19.963  0.00  0.00    -0.109 A 
ATOM      7  C   UNL     1      45.179  20.524  19.376  0.00  0.00    +0.059 A 
ATOM      8  C   UNL     1      46.494  20.169  19.702  0.00  0.00    -0.088 A 
ATOM     31  C   UNL     1      47.215  20.938  20.624  0.00  0.00    +0.046 A 
ATOM     32  C   UNL     1      46.627  22.039  21.205  0.00  0.00    -0.011 A 
ATOM     33  C   UNL     1      45.324  22.391  20.874  0.00  0.00    +0.125 A 
BRANCH  33  34
ATOM     34  O   UNL     1      44.751  23.481  21.445  0.00  0.00    -0.493 OA
ATOM     35  H   UNL     1      45.067  23.668  22.340  0.00  0.00    +0.391 HD
ENDBRANCH  33  34
BRANCH   6   5
ATOM      5  C   UNL     1      43.187  22.012  19.614  0.00  0.00    +0.084 C 
BRANCH   5   4
ATOM      4  C   UNL     1      42.537  20.885  18.808  0.00  0.00    +0.060 C 
BRANCH   4   3
ATOM      1  C   UNL     1      38.762  21.584  18.715  0.00  0.00    +0.064 C 
ATOM      2  C   UNL     1      40.241  21.621  18.425  0.00  0.00    -0.057 C 
ATOM      3  C   UNL     1      41.059  20.849  19.097  0.00  0.00    -0.134 C 
ATOM     36  C   UNL     1      40.522  19.926  20.161  0.00  0.00    +0.073 C 
ENDBRANCH   4   3
ENDBRANCH   5   4
ENDBRANCH   6   5
ENDBRANCH   9   8
ENDBRANCH  11  10
TORSDOF 14
ENDMDL
MODEL 6
REMARK VINA RESULT:      -5.9      2.236      7.740
REMARK  Name = ZINC95485992
REMARK  17 active torsions:
REMARK  status: ('A' for Active; 'I' for Inactive)
REMARK    1  A    between atoms: C1_1  and  C2_2
REMARK    2  A    between atoms: C3_3  and  C4_4
REMARK    3  A    between atoms: C3_3  and  C5_5
REMARK    4  A    between atoms: C5_5  and  C6_6
REMARK    5  A    between atoms: C6_6  and  C7_7
REMARK    6  A    between atoms: C9_9  and  C13_14
REMARK    7  A    between atoms: C12_12  and  O1_13
REMARK    8  A    between atoms: C14_15  and  C15_16
REMARK    9  A    between atoms: C15_16  and  C16_18
REMARK   10  A    between atoms: C18_20  and  C22_26
REMARK   11  A    between atoms: C19_21  and  O4_25
REMARK   12  A    between atoms: C21_23  and  O3_24
REMARK   13  A    between atoms: C22_26  and  C23_27
REMARK   14  A    between atoms: C23_27  and  C24_28
REMARK   15  A    between atoms: C24_28  and  C25_30
REMARK   16  A    between atoms: C24_28  and  O5_33
REMARK   17  A    between atoms: C25_30  and  C27_32
REMARK                            x       y       z     vdW  Elec       q    Type
REMARK                         _______ _______ _______ _____ _____    ______ ____
ROOT
ATOM     11  C   UNL     1      44.883  22.088  19.740  0.00  0.00    +0.423 C 
ATOM     30  O   UNL     1      44.608  23.153  19.215  0.00  0.00    -0.443 OA
ENDROOT
BRANCH  11  12
ATOM     12  C   UNL     1      43.826  21.088  19.975  0.00  0.00    -0.195 A 
ATOM     13  C   UNL     1      44.101  19.939  20.723  0.00  0.00    +0.097 A 
ATOM     14  C   UNL     1      43.112  19.008  20.941  0.00  0.00    -0.128 A 
ATOM     23  C   UNL     1      41.837  19.205  20.419  0.00  0.00    +0.159 A 
ATOM     26  C   UNL     1      41.554  20.340  19.674  0.00  0.00    -0.044 A 
ATOM     27  C   UNL     1      42.539  21.287  19.454  0.00  0.00    +0.180 A 
BRANCH  23  24
ATOM     24  O   UNL     1      40.867  18.281  20.637  0.00  0.00    -0.489 OA
ATOM     25  H   UNL     1      41.049  17.418  20.241  0.00  0.00    +0.394 HD
ENDBRANCH  23  24
BRANCH  27  28
ATOM     28  O   UNL     1      42.261  22.402  18.732  0.00  0.00    -0.479 OA
ATOM     29  H   UNL     1      41.806  23.093  19.234  0.00  0.00    +0.398 HD
ENDBRANCH  27  28
BRANCH  14  15
ATOM     15  C   UNL     1      43.410  17.771  21.748  0.00  0.00    +0.091 C 
BRANCH  15  16
ATOM     16  C   UNL     1      44.816  17.269  21.412  0.00  0.00    -0.001 C 
BRANCH  16  17
ATOM     17  C   UNL     1      44.848  16.774  19.964  0.00  0.00    +0.247 C 
BRANCH  17  20
ATOM     20  C   UNL     1      46.062  17.334  19.269  0.00  0.00    -0.165 C 
ATOM     21  C   UNL     1      47.392  17.357  19.977  0.00  0.00    +0.077 C 
ATOM     22  C   UNL     1      45.961  17.802  18.049  0.00  0.00    +0.024 C 
ENDBRANCH  17  20
BRANCH  17  18
ATOM     18  O   UNL     1      44.906  15.347  19.949  0.00  0.00    -0.552 OA
ATOM     19  H   UNL     1      44.265  14.933  19.353  0.00  0.00    +0.374 HD
ENDBRANCH  17  18
ENDBRANCH  16  17
ENDBRANCH  15  16
ENDBRANCH  14  15
ENDBRANCH  11  12
BRANCH  11  10
ATOM      9  C   UNL     1      47.097  21.181  19.276  0.00  0.00    +0.127 C 
ATOM     10  C   UNL     1      46.261  21.803  20.137  0.00  0.00    -0.104 C 
BRANCH   9   8
ATOM      6  C   UNL     1      50.798  20.621  19.097  0.00  0.00    -0.109 A 
ATOM      7  C   UNL     1      49.503  20.890  18.717  0.00  0.00    +0.059 A 
ATOM      8  C   UNL     1      48.482  20.894  19.675  0.00  0.00    -0.088 A 
ATOM     31  C   UNL     1      48.784  20.624  21.016  0.00  0.00    +0.046 A 
ATOM     32  C   UNL     1      50.083  20.358  21.384  0.00  0.00    -0.011 A 
ATOM     33  C   UNL     1      51.093  20.348  20.428  0.00  0.00    +0.125 A 
BRANCH  33  34
ATOM     34  O   UNL     1      52.371  20.078  20.796  0.00  0.00    -0.493 OA
ATOM     35  H   UNL     1      52.603  20.402  21.678  0.00  0.00    +0.391 HD
ENDBRANCH  33  34
BRANCH   6   5
ATOM      5  C   UNL     1      51.899  20.616  18.067  0.00  0.00    +0.084 C 
BRANCH   5   4
ATOM      4  C   UNL     1      51.467  19.777  16.864  0.00  0.00    +0.060 C 
BRANCH   4   3
ATOM      1  C   UNL     1      49.929  16.300  17.413  0.00  0.00    +0.064 C 
ATOM      2  C   UNL     1      50.144  17.728  16.979  0.00  0.00    -0.057 C 
ATOM      3  C   UNL     1      51.251  18.349  17.298  0.00  0.00    -0.134 C 
ATOM     36  C   UNL     1      52.311  17.639  18.101  0.00  0.00    +0.073 C 
ENDBRANCH   4   3
ENDBRANCH   5   4
ENDBRANCH   6   5
ENDBRANCH   9   8
ENDBRANCH  11  10
TORSDOF 14
ENDMDL
MODEL 7
REMARK VINA RESULT:      -5.9      1.749      3.338
REMARK  Name = ZINC95485992
REMARK  17 active torsions:
REMARK  status: ('A' for Active; 'I' for Inactive)
REMARK    1  A    between atoms: C1_1  and  C2_2
REMARK    2  A    between atoms: C3_3  and  C4_4
REMARK    3  A    between atoms: C3_3  and  C5_5
REMARK    4  A    between atoms: C5_5  and  C6_6
REMARK    5  A    between atoms: C6_6  and  C7_7
REMARK    6  A    between atoms: C9_9  and  C13_14
REMARK    7  A    between atoms: C12_12  and  O1_13
REMARK    8  A    between atoms: C14_15  and  C15_16
REMARK    9  A    between atoms: C15_16  and  C16_18
REMARK   10  A    between atoms: C18_20  and  C22_26
REMARK   11  A    between atoms: C19_21  and  O4_25
REMARK   12  A    between atoms: C21_23  and  O3_24
REMARK   13  A    between atoms: C22_26  and  C23_27
REMARK   14  A    between atoms: C23_27  and  C24_28
REMARK   15  A    between atoms: C24_28  and  C25_30
REMARK   16  A    between atoms: C24_28  and  O5_33
REMARK   17  A    between atoms: C25_30  and  C27_32
REMARK                            x       y       z     vdW  Elec       q    Type
REMARK                         _______ _______ _______ _____ _____    ______ ____
ROOT
ATOM     11  C   UNL     1      50.579  20.705  18.978  0.00  0.00    +0.423 C 
ATOM     30  O   UNL     1      51.314  21.572  19.420  0.00  0.00    -0.443 OA
ENDROOT
BRANCH  11  12
ATOM     12  C   UNL     1      51.073  19.778  17.944  0.00  0.00    -0.195 A 
ATOM     13  C   UNL     1      51.088  18.400  18.185  0.00  0.00    +0.097 A 
ATOM     14  C   UNL     1      51.549  17.538  17.218  0.00  0.00    -0.128 A 
ATOM     23  C   UNL     1      52.002  18.031  15.998  0.00  0.00    +0.159 A 
ATOM     26  C   UNL     1      51.993  19.395  15.748  0.00  0.00    -0.044 A 
ATOM     27  C   UNL     1      51.525  20.273  16.711  0.00  0.00    +0.180 A 
BRANCH  23  24
ATOM     24  O   UNL     1      52.457  17.174  15.049  0.00  0.00    -0.489 OA
ATOM     25  H   UNL     1      51.831  17.016  14.329  0.00  0.00    +0.394 HD
ENDBRANCH  23  24
BRANCH  27  28
ATOM     28  O   UNL     1      51.509  21.607  16.465  0.00  0.00    -0.479 OA
ATOM     29  H   UNL     1      51.123  21.845  15.610  0.00  0.00    +0.398 HD
ENDBRANCH  27  28
BRANCH  14  15
ATOM     15  C   UNL     1      51.564  16.054  17.480  0.00  0.00    +0.091 C 
BRANCH  15  16
ATOM     16  C   UNL     1      50.330  15.411  16.843  0.00  0.00    -0.001 C 
BRANCH  16  17
ATOM     17  C   UNL     1      49.200  15.346  17.873  0.00  0.00    +0.247 C 
BRANCH  17  20
ATOM     20  C   UNL     1      47.932  15.882  17.261  0.00  0.00    -0.165 C 
ATOM     21  C   UNL     1      46.918  14.933  16.676  0.00  0.00    +0.077 C 
ATOM     22  C   UNL     1      47.711  17.173  17.238  0.00  0.00    +0.024 C 
ENDBRANCH  17  20
BRANCH  17  18
ATOM     18  O   UNL     1      48.999  13.990  18.275  0.00  0.00    -0.552 OA
ATOM     19  H   UNL     1      49.562  13.354  17.811  0.00  0.00    +0.374 HD
ENDBRANCH  17  18
ENDBRANCH  16  17
ENDBRANCH  15  16
ENDBRANCH  14  15
ENDBRANCH  11  12
BRANCH  11  10
ATOM      9  C   UNL     1      48.170  20.667  18.613  0.00  0.00    +0.127 C 
ATOM     10  C   UNL     1      49.209  20.586  19.473  0.00  0.00    -0.104 C 
BRANCH   9   8
ATOM      6  C   UNL     1      45.045  19.224  20.095  0.00  0.00    -0.109 A 
ATOM      7  C   UNL     1      46.336  19.330  19.629  0.00  0.00    +0.059 A 
ATOM      8  C   UNL     1      46.793  20.547  19.110  0.00  0.00    -0.088 A 
ATOM     31  C   UNL     1      45.933  21.652  19.068  0.00  0.00    +0.046 A 
ATOM     32  C   UNL     1      44.644  21.535  19.536  0.00  0.00    -0.011 A 
ATOM     33  C   UNL     1      44.193  20.322  20.045  0.00  0.00    +0.125 A 
BRANCH  33  34
ATOM     34  O   UNL     1      42.919  20.211  20.500  0.00  0.00    -0.493 OA
ATOM     35  H   UNL     1      42.855  20.023  21.447  0.00  0.00    +0.391 HD
ENDBRANCH  33  34
BRANCH   6   5
ATOM      5  C   UNL     1      44.551  17.914  20.654  0.00  0.00    +0.084 C 
BRANCH   5   4
ATOM      4  C   UNL     1      45.648  17.281  21.512  0.00  0.00    +0.060 C 
BRANCH   4   3
ATOM      1  C   UNL     1      45.434  13.857  19.785  0.00  0.00    +0.064 C 
ATOM      2  C   UNL     1      45.086  15.217  20.335  0.00  0.00    -0.057 C 
ATOM      3  C   UNL     1      45.995  15.921  20.962  0.00  0.00    -0.134 C 
ATOM     36  C   UNL     1      47.387  15.372  21.136  0.00  0.00    +0.073 C 
ENDBRANCH   4   3
ENDBRANCH   5   4
ENDBRANCH   6   5
ENDBRANCH   9   8
ENDBRANCH  11  10
TORSDOF 14
ENDMDL
MODEL 8
REMARK VINA RESULT:      -5.6      2.515      6.270
REMARK  Name = ZINC95485992
REMARK  17 active torsions:
REMARK  status: ('A' for Active; 'I' for Inactive)
REMARK    1  A    between atoms: C1_1  and  C2_2
REMARK    2  A    between atoms: C3_3  and  C4_4
REMARK    3  A    between atoms: C3_3  and  C5_5
REMARK    4  A    between atoms: C5_5  and  C6_6
REMARK    5  A    between atoms: C6_6  and  C7_7
REMARK    6  A    between atoms: C9_9  and  C13_14
REMARK    7  A    between atoms: C12_12  and  O1_13
REMARK    8  A    between atoms: C14_15  and  C15_16
REMARK    9  A    between atoms: C15_16  and  C16_18
REMARK   10  A    between atoms: C18_20  and  C22_26
REMARK   11  A    between atoms: C19_21  and  O4_25
REMARK   12  A    between atoms: C21_23  and  O3_24
REMARK   13  A    between atoms: C22_26  and  C23_27
REMARK   14  A    between atoms: C23_27  and  C24_28
REMARK   15  A    between atoms: C24_28  and  C25_30
REMARK   16  A    between atoms: C24_28  and  O5_33
REMARK   17  A    between atoms: C25_30  and  C27_32
REMARK                            x       y       z     vdW  Elec       q    Type
REMARK                         _______ _______ _______ _____ _____    ______ ____
ROOT
ATOM     11  C   UNL     1      46.432  14.183  18.212  0.00  0.00    +0.423 C 
ATOM     30  O   UNL     1      45.844  13.430  18.969  0.00  0.00    -0.443 OA
ENDROOT
BRANCH  11  12
ATOM     12  C   UNL     1      47.351  13.638  17.196  0.00  0.00    -0.195 A 
ATOM     13  C   UNL     1      48.685  14.056  17.160  0.00  0.00    +0.097 A 
ATOM     14  C   UNL     1      49.539  13.545  16.211  0.00  0.00    -0.128 A 
ATOM     23  C   UNL     1      49.082  12.611  15.287  0.00  0.00    +0.159 A 
ATOM     26  C   UNL     1      47.761  12.189  15.314  0.00  0.00    -0.044 A 
ATOM     27  C   UNL     1      46.893  12.692  16.267  0.00  0.00    +0.180 A 
BRANCH  23  24
ATOM     24  O   UNL     1      49.931  12.111  14.353  0.00  0.00    -0.489 OA
ATOM     25  H   UNL     1      50.849  12.395  14.464  0.00  0.00    +0.394 HD
ENDBRANCH  23  24
BRANCH  27  28
ATOM     28  O   UNL     1      45.602  12.275  16.299  0.00  0.00    -0.479 OA
ATOM     29  H   UNL     1      45.487  11.334  16.102  0.00  0.00    +0.398 HD
ENDBRANCH  27  28
BRANCH  14  15
ATOM     15  C   UNL     1      50.976  13.997  16.174  0.00  0.00    +0.091 C 
BRANCH  15  16
ATOM     16  C   UNL     1      51.288  14.812  17.431  0.00  0.00    -0.001 C 
BRANCH  16  17
ATOM     17  C   UNL     1      51.374  16.297  17.067  0.00  0.00    +0.247 C 
BRANCH  17  20
ATOM     20  C   UNL     1      50.234  17.039  17.715  0.00  0.00    -0.165 C 
ATOM     21  C   UNL     1      50.039  16.968  19.207  0.00  0.00    +0.077 C 
ATOM     22  C   UNL     1      49.412  17.746  16.979  0.00  0.00    +0.024 C 
ENDBRANCH  17  20
BRANCH  17  18
ATOM     18  O   UNL     1      52.615  16.830  17.532  0.00  0.00    -0.552 OA
ATOM     19  H   UNL     1      52.554  17.282  18.385  0.00  0.00    +0.374 HD
ENDBRANCH  17  18
ENDBRANCH  16  17
ENDBRANCH  15  16
ENDBRANCH  14  15
ENDBRANCH  11  12
BRANCH  11  10
ATOM      9  C   UNL     1      45.710  16.160  19.441  0.00  0.00    +0.127 C 
ATOM     10  C   UNL     1      46.226  15.627  18.311  0.00  0.00    -0.104 C 
BRANCH   9   8
ATOM      6  C   UNL     1      46.355  19.851  19.362  0.00  0.00    -0.109 A 
ATOM      7  C   UNL     1      46.555  18.492  19.268  0.00  0.00    +0.059 A 
ATOM      8  C   UNL     1      45.502  17.611  19.541  0.00  0.00    -0.088 A 
ATOM     31  C   UNL     1      44.249  18.117  19.908  0.00  0.00    +0.046 A 
ATOM     32  C   UNL     1      44.060  19.477  19.999  0.00  0.00    -0.011 A 
ATOM     33  C   UNL     1      45.110  20.348  19.733  0.00  0.00    +0.125 A 
BRANCH  33  34
ATOM     34  O   UNL     1      44.919  21.689  19.830  0.00  0.00    -0.493 OA
ATOM     35  H   UNL     1      45.737  22.205  19.804  0.00  0.00    +0.391 HD
ENDBRANCH  33  34
BRANCH   6   5
ATOM      5  C   UNL     1      47.487  20.801  19.069  0.00  0.00    +0.084 C 
BRANCH   5   4
ATOM      4  C   UNL     1      48.548  20.683  20.164  0.00  0.00    +0.060 C 
BRANCH   4   3
ATOM      1  C   UNL     1      51.434  21.059  17.658  0.00  0.00    +0.064 C 
ATOM      2  C   UNL     1      50.062  21.039  18.282  0.00  0.00    -0.057 C 
ATOM      3  C   UNL     1      49.920  20.704  19.540  0.00  0.00    -0.134 C 
ATOM     36  C   UNL     1      51.127  20.337  20.364  0.00  0.00    +0.073 C 
ENDBRANCH   4   3
ENDBRANCH   5   4
ENDBRANCH   6   5
ENDBRANCH   9   8
ENDBRANCH  11  10
TORSDOF 14
ENDMDL
MODEL 9
REMARK VINA RESULT:      -5.5      3.314      7.699
REMARK  Name = ZINC95485992
REMARK  17 active torsions:
REMARK  status: ('A' for Active; 'I' for Inactive)
REMARK    1  A    between atoms: C1_1  and  C2_2
REMARK    2  A    between atoms: C3_3  and  C4_4
REMARK    3  A    between atoms: C3_3  and  C5_5
REMARK    4  A    between atoms: C5_5  and  C6_6
REMARK    5  A    between atoms: C6_6  and  C7_7
REMARK    6  A    between atoms: C9_9  and  C13_14
REMARK    7  A    between atoms: C12_12  and  O1_13
REMARK    8  A    between atoms: C14_15  and  C15_16
REMARK    9  A    between atoms: C15_16  and  C16_18
REMARK   10  A    between atoms: C18_20  and  C22_26
REMARK   11  A    between atoms: C19_21  and  O4_25
REMARK   12  A    between atoms: C21_23  and  O3_24
REMARK   13  A    between atoms: C22_26  and  C23_27
REMARK   14  A    between atoms: C23_27  and  C24_28
REMARK   15  A    between atoms: C24_28  and  C25_30
REMARK   16  A    between atoms: C24_28  and  O5_33
REMARK   17  A    between atoms: C25_30  and  C27_32
REMARK                            x       y       z     vdW  Elec       q    Type
REMARK                         _______ _______ _______ _____ _____    ______ ____
ROOT
ATOM     11  C   UNL     1      43.879  20.290  19.784  0.00  0.00    +0.423 C 
ATOM     30  O   UNL     1      43.165  20.516  18.822  0.00  0.00    -0.443 OA
ENDROOT
BRANCH  11  12
ATOM     12  C   UNL     1      44.718  21.363  20.347  0.00  0.00    -0.195 A 
ATOM     13  C   UNL     1      45.998  21.073  20.831  0.00  0.00    +0.097 A 
ATOM     14  C   UNL     1      46.778  22.077  21.355  0.00  0.00    -0.128 A 
ATOM     23  C   UNL     1      46.299  23.383  21.406  0.00  0.00    +0.159 A 
ATOM     26  C   UNL     1      45.031  23.682  20.930  0.00  0.00    -0.044 A 
ATOM     27  C   UNL     1      44.239  22.681  20.394  0.00  0.00    +0.180 A 
BRANCH  23  24
ATOM     24  O   UNL     1      47.074  24.368  21.926  0.00  0.00    -0.489 OA
ATOM     25  H   UNL     1      47.497  24.928  21.261  0.00  0.00    +0.394 HD
ENDBRANCH  23  24
BRANCH  27  28
ATOM     28  O   UNL     1      43.001  22.973  19.921  0.00  0.00    -0.479 OA
ATOM     29  H   UNL     1      42.712  23.878  20.109  0.00  0.00    +0.398 HD
ENDBRANCH  27  28
BRANCH  14  15
ATOM     15  C   UNL     1      48.156  21.762  21.876  0.00  0.00    +0.091 C 
BRANCH  15  16
ATOM     16  C   UNL     1      48.425  20.262  21.735  0.00  0.00    -0.001 C 
BRANCH  16  17
ATOM     17  C   UNL     1      49.691  20.047  20.902  0.00  0.00    +0.247 C 
BRANCH  17  20
ATOM     20  C   UNL     1      49.338  20.071  19.438  0.00  0.00    -0.165 C 
ATOM     21  C   UNL     1      48.308  19.115  18.895  0.00  0.00    +0.077 C 
ATOM     22  C   UNL     1      49.927  20.924  18.636  0.00  0.00    +0.024 C 
ENDBRANCH  17  20
BRANCH  17  18
ATOM     18  O   UNL     1      50.629  21.087  21.183  0.00  0.00    -0.552 OA
ATOM     19  H   UNL     1      51.528  20.900  20.879  0.00  0.00    +0.374 HD
ENDBRANCH  17  18
ENDBRANCH  16  17
ENDBRANCH  15  16
ENDBRANCH  14  15
ENDBRANCH  11  12
BRANCH  11  10
ATOM      9  C   UNL     1      44.815  18.047  19.964  0.00  0.00    +0.127 C 
ATOM     10  C   UNL     1      43.903  18.955  20.378  0.00  0.00    -0.104 C 
BRANCH   9   8
ATOM      6  C   UNL     1      45.386  14.370  20.406  0.00  0.00    -0.109 A 
ATOM      7  C   UNL     1      45.366  15.625  19.842  0.00  0.00    +0.059 A 
ATOM      8  C   UNL     1      44.839  16.705  20.561  0.00  0.00    -0.088 A 
ATOM     31  C   UNL     1      44.336  16.501  21.852  0.00  0.00    +0.046 A 
ATOM     32  C   UNL     1      44.362  15.242  22.407  0.00  0.00    -0.011 A 
ATOM     33  C   UNL     1      44.880  14.172  21.686  0.00  0.00    +0.125 A 
BRANCH  33  34
ATOM     34  O   UNL     1      44.897  12.931  22.236  0.00  0.00    -0.493 OA
ATOM     35  H   UNL     1      45.257  12.248  21.653  0.00  0.00    +0.391 HD
ENDBRANCH  33  34
BRANCH   6   5
ATOM      5  C   UNL     1      45.952  13.206  19.634  0.00  0.00    +0.084 C 
BRANCH   5   4
ATOM      4  C   UNL     1      45.078  12.934  18.409  0.00  0.00    +0.060 C 
BRANCH   4   3
ATOM      1  C   UNL     1      46.776  11.314  15.369  0.00  0.00    +0.064 C 
ATOM      2  C   UNL     1      45.898  11.552  16.570  0.00  0.00    -0.057 C 
ATOM      3  C   UNL     1      45.955  12.695  17.207  0.00  0.00    -0.134 C 
ATOM     36  C   UNL     1      46.901  13.772  16.740  0.00  0.00    +0.073 C 
ENDBRANCH   4   3
ENDBRANCH   5   4
ENDBRANCH   6   5
ENDBRANCH   9   8
ENDBRANCH  11  10
TORSDOF 14
ENDMDL
