MODEL 1
REMARK VINA RESULT:      -6.6      0.000      0.000
REMARK  Name = ZINC32062349
REMARK  9 active torsions:
REMARK  status: ('A' for Active; 'I' for Inactive)
REMARK    1  A    between atoms: C1_1  and  C2_2
REMARK    2  A    between atoms: C2_2  and  C3_4
REMARK    3  A    between atoms: C6_8  and  C29_37
REMARK    4  A    between atoms: C12_17  and  C28_36
REMARK    5  A    between atoms: C15_20  and  O2_35
REMARK    6  A    between atoms: C16_22  and  C26_33
REMARK    7  A    between atoms: C16_22  and  C27_34
REMARK    8  A    between atoms: C20_27  and  C25_32
REMARK    9  A    between atoms: C21_28  and  C24_31
REMARK                            x       y       z     vdW  Elec       q    Type
REMARK                         _______ _______ _______ _____ _____    ______ ____
ROOT
ATOM      3  C   UNL     1      44.487  19.553  21.309  0.00  0.00    -0.039 C 
ATOM      4  C   UNL     1      44.692  21.048  21.673  0.00  0.00    +0.031 C 
ATOM      5  C   UNL     1      45.761  21.585  20.681  0.00  0.00    +0.023 C 
ATOM      6  C   UNL     1      46.576  20.314  20.380  0.00  0.00    -0.061 C 
ATOM      7  C   UNL     1      47.418  19.962  21.608  0.00  0.00    +0.029 C 
ATOM      8  C   UNL     1      47.432  20.367  19.134  0.00  0.00    +0.020 C 
ATOM      9  C   UNL     1      48.037  18.977  18.889  0.00  0.00    +0.016 C 
ATOM     10  C   UNL     1      46.973  17.888  18.803  0.00  0.00    -0.031 C 
ATOM     11  C   UNL     1      46.169  18.147  17.522  0.00  0.00    +0.015 C 
ATOM     12  C   UNL     1      47.630  16.499  18.712  0.00  0.00    -0.026 C 
ATOM     13  C   UNL     1      48.430  16.286  20.007  0.00  0.00    +0.018 C 
ATOM     14  C   UNL     1      48.617  16.469  17.545  0.00  0.00    +0.013 C 
ATOM     15  C   UNL     1      49.183  15.050  17.374  0.00  0.00    +0.016 C 
ATOM     16  C   UNL     1      48.015  14.121  17.053  0.00  0.00    -0.001 C 
ATOM     17  C   UNL     1      48.452  12.799  16.463  0.00  0.00    -0.038 C 
ATOM     18  C   UNL     1      49.522  12.097  17.298  0.00  0.00    +0.034 C 
ATOM     19  C   UNL     1      49.073  13.073  15.071  0.00  0.00    +0.017 C 
ATOM     20  C   UNL     1      47.271  11.857  16.227  0.00  0.00    +0.165 C 
ATOM     23  C   UNL     1      46.339  11.783  17.428  0.00  0.00    -0.019 C 
ATOM     24  C   UNL     1      45.856  13.176  17.821  0.00  0.00    +0.017 C 
ATOM     25  C   UNL     1      47.064  14.038  18.240  0.00  0.00    -0.035 C 
ATOM     26  C   UNL     1      47.687  13.397  19.472  0.00  0.00    +0.026 C 
ATOM     27  C   UNL     1      46.546  15.447  18.540  0.00  0.00    +0.002 C 
ATOM     28  C   UNL     1      45.584  15.455  19.722  0.00  0.00    +0.011 C 
ATOM     29  C   UNL     1      44.948  16.844  19.864  0.00  0.00    -0.002 C 
ATOM     30  C   UNL     1      46.031  17.912  20.014  0.00  0.00    +0.016 C 
ATOM     31  C   UNL     1      45.435  19.294  20.138  0.00  0.00    +0.012 C 
ENDROOT
BRANCH   3   2
ATOM      1  C   UNL     1      42.567  19.901  19.572  0.00  0.00    +0.055 C 
ATOM      2  C   UNL     1      43.056  19.336  20.881  0.00  0.00    +0.359 C 
ATOM     32  O   UNL     1      42.303  18.709  21.586  0.00  0.00    -0.451 OA
ENDBRANCH   3   2
BRANCH  20  21
ATOM     21  O   UNL     1      47.772  10.548  15.934  0.00  0.00    -0.565 OA
ATOM     22  H   UNL     1      47.087   9.910  15.686  0.00  0.00    +0.374 HD
ENDBRANCH  20  21
TORSDOF 2
ENDMDL
MODEL 2
REMARK VINA RESULT:      -6.5      3.120      7.599
REMARK  Name = ZINC32062349
REMARK  9 active torsions:
REMARK  status: ('A' for Active; 'I' for Inactive)
REMARK    1  A    between atoms: C1_1  and  C2_2
REMARK    2  A    between atoms: C2_2  and  C3_4
REMARK    3  A    between atoms: C6_8  and  C29_37
REMARK    4  A    between atoms: C12_17  and  C28_36
REMARK    5  A    between atoms: C15_20  and  O2_35
REMARK    6  A    between atoms: C16_22  and  C26_33
REMARK    7  A    between atoms: C16_22  and  C27_34
REMARK    8  A    between atoms: C20_27  and  C25_32
REMARK    9  A    between atoms: C21_28  and  C24_31
REMARK                            x       y       z     vdW  Elec       q    Type
REMARK                         _______ _______ _______ _____ _____    ______ ____
ROOT
ATOM      3  C   UNL     1      51.977  18.306  18.888  0.00  0.00    -0.039 C 
ATOM      4  C   UNL     1      52.977  17.126  18.751  0.00  0.00    +0.031 C 
ATOM      5  C   UNL     1      52.126  15.891  18.345  0.00  0.00    +0.023 C 
ATOM      6  C   UNL     1      50.764  16.225  18.981  0.00  0.00    -0.061 C 
ATOM      7  C   UNL     1      50.873  16.062  20.498  0.00  0.00    +0.029 C 
ATOM      8  C   UNL     1      49.581  15.455  18.437  0.00  0.00    +0.020 C 
ATOM      9  C   UNL     1      48.293  16.025  19.050  0.00  0.00    +0.016 C 
ATOM     10  C   UNL     1      48.153  17.525  18.814  0.00  0.00    -0.031 C 
ATOM     11  C   UNL     1      47.938  17.724  17.309  0.00  0.00    +0.015 C 
ATOM     12  C   UNL     1      46.934  18.077  19.574  0.00  0.00    -0.026 C 
ATOM     13  C   UNL     1      47.188  17.850  21.073  0.00  0.00    +0.018 C 
ATOM     14  C   UNL     1      45.683  17.288  19.188  0.00  0.00    +0.013 C 
ATOM     15  C   UNL     1      44.445  17.914  19.849  0.00  0.00    +0.016 C 
ATOM     16  C   UNL     1      44.308  19.339  19.321  0.00  0.00    -0.001 C 
ATOM     17  C   UNL     1      42.936  19.932  19.554  0.00  0.00    -0.038 C 
ATOM     18  C   UNL     1      42.477  19.819  21.007  0.00  0.00    +0.034 C 
ATOM     19  C   UNL     1      41.917  19.141  18.696  0.00  0.00    +0.017 C 
ATOM     20  C   UNL     1      42.851  21.385  19.089  0.00  0.00    +0.165 C 
ATOM     23  C   UNL     1      44.033  22.217  19.567  0.00  0.00    -0.019 C 
ATOM     24  C   UNL     1      45.349  21.581  19.131  0.00  0.00    +0.017 C 
ATOM     25  C   UNL     1      45.485  20.189  19.780  0.00  0.00    -0.035 C 
ATOM     26  C   UNL     1      45.540  20.383  21.289  0.00  0.00    +0.026 C 
ATOM     27  C   UNL     1      46.773  19.553  19.248  0.00  0.00    +0.002 C 
ATOM     28  C   UNL     1      48.008  20.343  19.667  0.00  0.00    +0.011 C 
ATOM     29  C   UNL     1      49.247  19.783  18.958  0.00  0.00    -0.002 C 
ATOM     30  C   UNL     1      49.404  18.293  19.260  0.00  0.00    +0.016 C 
ATOM     31  C   UNL     1      50.609  17.709  18.560  0.00  0.00    +0.012 C 
ENDROOT
BRANCH   3   2
ATOM      1  C   UNL     1      51.937  19.223  16.443  0.00  0.00    +0.055 C 
ATOM      2  C   UNL     1      52.332  19.379  17.889  0.00  0.00    +0.359 C 
ATOM     32  O   UNL     1      52.932  20.363  18.248  0.00  0.00    -0.451 OA
ENDBRANCH   3   2
BRANCH  20  21
ATOM     21  O   UNL     1      41.635  21.961  19.582  0.00  0.00    -0.565 OA
ATOM     22  H   UNL     1      41.642  22.928  19.616  0.00  0.00    +0.374 HD
ENDBRANCH  20  21
TORSDOF 2
ENDMDL
MODEL 3
REMARK VINA RESULT:      -6.4      3.879      7.457
REMARK  Name = ZINC32062349
REMARK  9 active torsions:
REMARK  status: ('A' for Active; 'I' for Inactive)
REMARK    1  A    between atoms: C1_1  and  C2_2
REMARK    2  A    between atoms: C2_2  and  C3_4
REMARK    3  A    between atoms: C6_8  and  C29_37
REMARK    4  A    between atoms: C12_17  and  C28_36
REMARK    5  A    between atoms: C15_20  and  O2_35
REMARK    6  A    between atoms: C16_22  and  C26_33
REMARK    7  A    between atoms: C16_22  and  C27_34
REMARK    8  A    between atoms: C20_27  and  C25_32
REMARK    9  A    between atoms: C21_28  and  C24_31
REMARK                            x       y       z     vdW  Elec       q    Type
REMARK                         _______ _______ _______ _____ _____    ______ ____
ROOT
ATOM      3  C   UNL     1      51.670  20.495  18.186  0.00  0.00    -0.039 C 
ATOM      4  C   UNL     1      53.121  19.982  18.385  0.00  0.00    +0.031 C 
ATOM      5  C   UNL     1      52.995  18.630  19.141  0.00  0.00    +0.023 C 
ATOM      6  C   UNL     1      51.689  18.832  19.931  0.00  0.00    -0.061 C 
ATOM      7  C   UNL     1      51.946  19.819  21.070  0.00  0.00    +0.029 C 
ATOM      8  C   UNL     1      51.034  17.569  20.446  0.00  0.00    +0.020 C 
ATOM      9  C   UNL     1      49.670  17.930  21.053  0.00  0.00    +0.016 C 
ATOM     10  C   UNL     1      48.775  18.674  20.068  0.00  0.00    -0.031 C 
ATOM     11  C   UNL     1      48.409  17.682  18.958  0.00  0.00    +0.015 C 
ATOM     12  C   UNL     1      47.487  19.149  20.764  0.00  0.00    -0.026 C 
ATOM     13  C   UNL     1      47.901  20.131  21.871  0.00  0.00    +0.018 C 
ATOM     14  C   UNL     1      46.792  17.961  21.430  0.00  0.00    +0.013 C 
ATOM     15  C   UNL     1      45.444  18.408  22.020  0.00  0.00    +0.016 C 
ATOM     16  C   UNL     1      44.574  18.902  20.867  0.00  0.00    -0.001 C 
ATOM     17  C   UNL     1      43.107  18.985  21.222  0.00  0.00    -0.038 C 
ATOM     18  C   UNL     1      42.847  19.770  22.505  0.00  0.00    +0.034 C 
ATOM     19  C   UNL     1      42.586  17.545  21.460  0.00  0.00    +0.017 C 
ATOM     20  C   UNL     1      42.270  19.558  20.078  0.00  0.00    +0.165 C 
ATOM     23  C   UNL     1      42.890  20.813  19.479  0.00  0.00    -0.019 C 
ATOM     24  C   UNL     1      44.321  20.543  19.027  0.00  0.00    +0.017 C 
ATOM     25  C   UNL     1      45.180  20.154  20.247  0.00  0.00    -0.035 C 
ATOM     26  C   UNL     1      45.208  21.346  21.194  0.00  0.00    +0.026 C 
ATOM     27  C   UNL     1      46.581  19.808  19.736  0.00  0.00    +0.002 C 
ATOM     28  C   UNL     1      47.264  21.013  19.099  0.00  0.00    +0.011 C 
ATOM     29  C   UNL     1      48.576  20.575  18.436  0.00  0.00    -0.002 C 
ATOM     30  C   UNL     1      49.484  19.890  19.456  0.00  0.00    +0.016 C 
ATOM     31  C   UNL     1      50.779  19.432  18.828  0.00  0.00    +0.012 C 
ENDROOT
BRANCH   3   2
ATOM      1  C   UNL     1      51.418  19.369  15.843  0.00  0.00    +0.055 C 
ATOM      2  C   UNL     1      51.377  20.601  16.710  0.00  0.00    +0.359 C 
ATOM     32  O   UNL     1      51.108  21.673  16.223  0.00  0.00    -0.451 OA
ENDBRANCH   3   2
BRANCH  20  21
ATOM     21  O   UNL     1      40.959  19.863  20.568  0.00  0.00    -0.565 OA
ATOM     22  H   UNL     1      40.302  20.007  19.872  0.00  0.00    +0.374 HD
ENDBRANCH  20  21
TORSDOF 2
ENDMDL
MODEL 4
REMARK VINA RESULT:      -6.3      3.349      8.016
REMARK  Name = ZINC32062349
REMARK  9 active torsions:
REMARK  status: ('A' for Active; 'I' for Inactive)
REMARK    1  A    between atoms: C1_1  and  C2_2
REMARK    2  A    between atoms: C2_2  and  C3_4
REMARK    3  A    between atoms: C6_8  and  C29_37
REMARK    4  A    between atoms: C12_17  and  C28_36
REMARK    5  A    between atoms: C15_20  and  O2_35
REMARK    6  A    between atoms: C16_22  and  C26_33
REMARK    7  A    between atoms: C16_22  and  C27_34
REMARK    8  A    between atoms: C20_27  and  C25_32
REMARK    9  A    between atoms: C21_28  and  C24_31
REMARK                            x       y       z     vdW  Elec       q    Type
REMARK                         _______ _______ _______ _____ _____    ______ ____
ROOT
ATOM      3  C   UNL     1      48.853  11.457  16.094  0.00  0.00    -0.039 C 
ATOM      4  C   UNL     1      47.861  10.277  16.271  0.00  0.00    +0.031 C 
ATOM      5  C   UNL     1      46.630  10.862  17.017  0.00  0.00    +0.023 C 
ATOM      6  C   UNL     1      47.268  12.008  17.824  0.00  0.00    -0.061 C 
ATOM      7  C   UNL     1      48.089  11.412  18.968  0.00  0.00    +0.029 C 
ATOM      8  C   UNL     1      46.309  13.060  18.336  0.00  0.00    +0.020 C 
ATOM      9  C   UNL     1      47.117  14.206  18.963  0.00  0.00    +0.016 C 
ATOM     10  C   UNL     1      48.140  14.791  17.995  0.00  0.00    -0.031 C 
ATOM     11  C   UNL     1      47.352  15.492  16.881  0.00  0.00    +0.015 C 
ATOM     12  C   UNL     1      49.028  15.826  18.710  0.00  0.00    -0.026 C 
ATOM     13  C   UNL     1      49.789  15.084  19.820  0.00  0.00    +0.018 C 
ATOM     14  C   UNL     1      48.151  16.887  19.374  0.00  0.00    +0.013 C 
ATOM     15  C   UNL     1      49.035  17.988  19.984  0.00  0.00    +0.016 C 
ATOM     16  C   UNL     1      49.816  18.639  18.845  0.00  0.00    -0.001 C 
ATOM     17  C   UNL     1      50.404  19.981  19.218  0.00  0.00    -0.038 C 
ATOM     18  C   UNL     1      51.216  19.938  20.512  0.00  0.00    +0.034 C 
ATOM     19  C   UNL     1      49.236  20.971  19.451  0.00  0.00    +0.017 C 
ATOM     20  C   UNL     1      51.248  20.573  18.090  0.00  0.00    +0.165 C 
ATOM     23  C   UNL     1      52.214  19.557  17.494  0.00  0.00    -0.019 C 
ATOM     24  C   UNL     1      51.464  18.315  17.022  0.00  0.00    +0.017 C 
ATOM     25  C   UNL     1      50.784  17.637  18.229  0.00  0.00    -0.035 C 
ATOM     26  C   UNL     1      51.879  17.185  19.185  0.00  0.00    +0.026 C 
ATOM     27  C   UNL     1      49.975  16.451  17.699  0.00  0.00    +0.002 C 
ATOM     28  C   UNL     1      50.871  15.394  17.063  0.00  0.00    +0.011 C 
ATOM     29  C   UNL     1      50.010  14.324  16.382  0.00  0.00    -0.002 C 
ATOM     30  C   UNL     1      49.037  13.706  17.385  0.00  0.00    +0.016 C 
ATOM     31  C   UNL     1      48.161  12.659  16.737  0.00  0.00    +0.012 C 
ENDROOT
BRANCH   3   2
ATOM      1  C   UNL     1      48.088  12.541  13.844  0.00  0.00    +0.055 C 
ATOM      2  C   UNL     1      49.073  11.707  14.622  0.00  0.00    +0.359 C 
ATOM     32  O   UNL     1      50.037  11.238  14.068  0.00  0.00    -0.451 OA
ENDBRANCH   3   2
BRANCH  20  21
ATOM     21  O   UNL     1      51.987  21.689  18.597  0.00  0.00    -0.565 OA
ATOM     22  H   UNL     1      52.308  21.571  19.503  0.00  0.00    +0.374 HD
ENDBRANCH  20  21
TORSDOF 2
ENDMDL
MODEL 5
REMARK VINA RESULT:      -6.2      4.097      6.056
REMARK  Name = ZINC32062349
REMARK  9 active torsions:
REMARK  status: ('A' for Active; 'I' for Inactive)
REMARK    1  A    between atoms: C1_1  and  C2_2
REMARK    2  A    between atoms: C2_2  and  C3_4
REMARK    3  A    between atoms: C6_8  and  C29_37
REMARK    4  A    between atoms: C12_17  and  C28_36
REMARK    5  A    between atoms: C15_20  and  O2_35
REMARK    6  A    between atoms: C16_22  and  C26_33
REMARK    7  A    between atoms: C16_22  and  C27_34
REMARK    8  A    between atoms: C20_27  and  C25_32
REMARK    9  A    between atoms: C21_28  and  C24_31
REMARK                            x       y       z     vdW  Elec       q    Type
REMARK                         _______ _______ _______ _____ _____    ______ ____
ROOT
ATOM      3  C   UNL     1      42.412  20.104  19.461  0.00  0.00    -0.039 C 
ATOM      4  C   UNL     1      41.150  19.599  20.211  0.00  0.00    +0.031 C 
ATOM      5  C   UNL     1      41.643  19.133  21.609  0.00  0.00    +0.023 C 
ATOM      6  C   UNL     1      43.093  18.710  21.305  0.00  0.00    -0.061 C 
ATOM      7  C   UNL     1      43.071  17.401  20.514  0.00  0.00    +0.029 C 
ATOM      8  C   UNL     1      44.007  18.602  22.505  0.00  0.00    +0.020 C 
ATOM      9  C   UNL     1      45.440  18.342  22.016  0.00  0.00    +0.016 C 
ATOM     10  C   UNL     1      45.917  19.403  21.030  0.00  0.00    -0.031 C 
ATOM     11  C   UNL     1      46.051  20.715  21.813  0.00  0.00    +0.015 C 
ATOM     12  C   UNL     1      47.291  19.020  20.450  0.00  0.00    -0.026 C 
ATOM     13  C   UNL     1      47.112  17.700  19.684  0.00  0.00    +0.018 C 
ATOM     14  C   UNL     1      48.280  18.769  21.589  0.00  0.00    +0.013 C 
ATOM     15  C   UNL     1      49.682  18.507  21.015  0.00  0.00    +0.016 C 
ATOM     16  C   UNL     1      50.114  19.761  20.259  0.00  0.00    -0.001 C 
ATOM     17  C   UNL     1      51.602  19.813  19.995  0.00  0.00    -0.038 C 
ATOM     18  C   UNL     1      52.137  18.541  19.339  0.00  0.00    +0.034 C 
ATOM     19  C   UNL     1      52.328  19.959  21.356  0.00  0.00    +0.017 C 
ATOM     20  C   UNL     1      51.996  21.035  19.167  0.00  0.00    +0.165 C 
ATOM     23  C   UNL     1      51.092  21.233  17.958  0.00  0.00    -0.019 C 
ATOM     24  C   UNL     1      49.630  21.313  18.388  0.00  0.00    +0.017 C 
ATOM     25  C   UNL     1      49.216  19.983  19.049  0.00  0.00    -0.035 C 
ATOM     26  C   UNL     1      49.333  18.887  17.998  0.00  0.00    +0.026 C 
ATOM     27  C   UNL     1      47.775  20.138  19.541  0.00  0.00    +0.002 C 
ATOM     28  C   UNL     1      46.805  20.364  18.387  0.00  0.00    +0.011 C 
ATOM     29  C   UNL     1      45.414  20.702  18.938  0.00  0.00    -0.002 C 
ATOM     30  C   UNL     1      44.928  19.595  19.873  0.00  0.00    +0.016 C 
ATOM     31  C   UNL     1      43.566  19.909  20.445  0.00  0.00    +0.012 C 
ENDROOT
BRANCH   3   2
ATOM      1  C   UNL     1      41.030  22.037  18.377  0.00  0.00    +0.055 C 
ATOM      2  C   UNL     1      42.246  21.568  19.133  0.00  0.00    +0.359 C 
ATOM     32  O   UNL     1      43.086  22.363  19.478  0.00  0.00    -0.451 OA
ENDBRANCH   3   2
BRANCH  20  21
ATOM     21  O   UNL     1      53.350  20.882  18.725  0.00  0.00    -0.565 OA
ATOM     22  H   UNL     1      53.793  21.716  18.515  0.00  0.00    +0.374 HD
ENDBRANCH  20  21
TORSDOF 2
ENDMDL
MODEL 6
REMARK VINA RESULT:      -6.0      3.174      4.936
REMARK  Name = ZINC32062349
REMARK  9 active torsions:
REMARK  status: ('A' for Active; 'I' for Inactive)
REMARK    1  A    between atoms: C1_1  and  C2_2
REMARK    2  A    between atoms: C2_2  and  C3_4
REMARK    3  A    between atoms: C6_8  and  C29_37
REMARK    4  A    between atoms: C12_17  and  C28_36
REMARK    5  A    between atoms: C15_20  and  O2_35
REMARK    6  A    between atoms: C16_22  and  C26_33
REMARK    7  A    between atoms: C16_22  and  C27_34
REMARK    8  A    between atoms: C20_27  and  C25_32
REMARK    9  A    between atoms: C21_28  and  C24_31
REMARK                            x       y       z     vdW  Elec       q    Type
REMARK                         _______ _______ _______ _____ _____    ______ ____
ROOT
ATOM      3  C   UNL     1      44.541  21.871  19.587  0.00  0.00    -0.039 C 
ATOM      4  C   UNL     1      43.000  21.843  19.776  0.00  0.00    +0.031 C 
ATOM      5  C   UNL     1      42.657  20.413  20.276  0.00  0.00    +0.023 C 
ATOM      6  C   UNL     1      43.792  19.581  19.648  0.00  0.00    -0.061 C 
ATOM      7  C   UNL     1      43.549  19.467  18.143  0.00  0.00    +0.029 C 
ATOM      8  C   UNL     1      44.021  18.219  20.265  0.00  0.00    +0.020 C 
ATOM      9  C   UNL     1      45.283  17.600  19.645  0.00  0.00    +0.016 C 
ATOM     10  C   UNL     1      46.503  18.503  19.790  0.00  0.00    -0.031 C 
ATOM     11  C   UNL     1      46.843  18.560  21.284  0.00  0.00    +0.015 C 
ATOM     12  C   UNL     1      47.702  17.916  19.023  0.00  0.00    -0.026 C 
ATOM     13  C   UNL     1      47.315  17.869  17.536  0.00  0.00    +0.018 C 
ATOM     14  C   UNL     1      47.957  16.480  19.484  0.00  0.00    +0.013 C 
ATOM     15  C   UNL     1      49.226  15.934  18.811  0.00  0.00    +0.016 C 
ATOM     16  C   UNL     1      50.398  16.806  19.254  0.00  0.00    -0.001 C 
ATOM     17  C   UNL     1      51.744  16.162  19.013  0.00  0.00    -0.038 C 
ATOM     18  C   UNL     1      51.919  15.661  17.580  0.00  0.00    +0.034 C 
ATOM     19  C   UNL     1      51.860  14.926  19.940  0.00  0.00    +0.017 C 
ATOM     20  C   UNL     1      52.901  17.088  19.389  0.00  0.00    +0.165 C 
ATOM     23  C   UNL     1      52.720  18.495  18.836  0.00  0.00    -0.019 C 
ATOM     24  C   UNL     1      51.384  19.080  19.282  0.00  0.00    +0.017 C 
ATOM     25  C   UNL     1      50.234  18.222  18.718  0.00  0.00    -0.035 C 
ATOM     26  C   UNL     1      50.294  18.306  17.199  0.00  0.00    +0.026 C 
ATOM     27  C   UNL     1      48.920  18.792  19.260  0.00  0.00    +0.002 C 
ATOM     28  C   UNL     1      48.675  20.214  18.768  0.00  0.00    +0.011 C 
ATOM     29  C   UNL     1      47.456  20.808  19.484  0.00  0.00    -0.002 C 
ATOM     30  C   UNL     1      46.230  19.921  19.271  0.00  0.00    +0.016 C 
ATOM     31  C   UNL     1      45.016  20.473  19.980  0.00  0.00    +0.012 C 
ENDROOT
BRANCH   3   2
ATOM      1  C   UNL     1      45.464  22.542  21.936  0.00  0.00    +0.055 C 
ATOM      2  C   UNL     1      45.138  22.905  20.510  0.00  0.00    +0.359 C 
ATOM     32  O   UNL     1      45.354  24.021  20.107  0.00  0.00    -0.451 OA
ENDBRANCH   3   2
BRANCH  20  21
ATOM     21  O   UNL     1      54.123  16.534  18.887  0.00  0.00    -0.565 OA
ATOM     22  H   UNL     1      54.003  15.741  18.346  0.00  0.00    +0.374 HD
ENDBRANCH  20  21
TORSDOF 2
ENDMDL
MODEL 7
REMARK VINA RESULT:      -6.0      2.681      3.922
REMARK  Name = ZINC32062349
REMARK  9 active torsions:
REMARK  status: ('A' for Active; 'I' for Inactive)
REMARK    1  A    between atoms: C1_1  and  C2_2
REMARK    2  A    between atoms: C2_2  and  C3_4
REMARK    3  A    between atoms: C6_8  and  C29_37
REMARK    4  A    between atoms: C12_17  and  C28_36
REMARK    5  A    between atoms: C15_20  and  O2_35
REMARK    6  A    between atoms: C16_22  and  C26_33
REMARK    7  A    between atoms: C16_22  and  C27_34
REMARK    8  A    between atoms: C20_27  and  C25_32
REMARK    9  A    between atoms: C21_28  and  C24_31
REMARK                            x       y       z     vdW  Elec       q    Type
REMARK                         _______ _______ _______ _____ _____    ______ ____
ROOT
ATOM      3  C   UNL     1      49.572  20.005  20.499  0.00  0.00    -0.039 C 
ATOM      4  C   UNL     1      50.560  21.102  20.980  0.00  0.00    +0.031 C 
ATOM      5  C   UNL     1      51.808  20.985  20.061  0.00  0.00    +0.023 C 
ATOM      6  C   UNL     1      51.782  19.491  19.686  0.00  0.00    -0.061 C 
ATOM      7  C   UNL     1      52.197  18.667  20.906  0.00  0.00    +0.029 C 
ATOM      8  C   UNL     1      52.598  19.108  18.471  0.00  0.00    +0.020 C 
ATOM      9  C   UNL     1      52.328  17.633  18.138  0.00  0.00    +0.016 C 
ATOM     10  C   UNL     1      50.844  17.345  17.941  0.00  0.00    -0.031 C 
ATOM     11  C   UNL     1      50.411  18.074  16.663  0.00  0.00    +0.015 C 
ATOM     12  C   UNL     1      50.608  15.834  17.763  0.00  0.00    -0.026 C 
ATOM     13  C   UNL     1      51.062  15.145  19.060  0.00  0.00    +0.018 C 
ATOM     14  C   UNL     1      51.480  15.306  16.624  0.00  0.00    +0.013 C 
ATOM     15  C   UNL     1      51.157  13.826  16.362  0.00  0.00    +0.016 C 
ATOM     16  C   UNL     1      49.693  13.738  15.940  0.00  0.00    -0.001 C 
ATOM     17  C   UNL     1      49.345  12.431  15.264  0.00  0.00    -0.038 C 
ATOM     18  C   UNL     1      49.777  11.208  16.072  0.00  0.00    +0.034 C 
ATOM     19  C   UNL     1      50.102  12.370  13.914  0.00  0.00    +0.017 C 
ATOM     20  C   UNL     1      47.858  12.336  14.926  0.00  0.00    +0.165 C 
ATOM     23  C   UNL     1      46.970  12.747  16.093  0.00  0.00    -0.019 C 
ATOM     24  C   UNL     1      47.332  14.148  16.577  0.00  0.00    +0.017 C 
ATOM     25  C   UNL     1      48.786  14.153  17.091  0.00  0.00    -0.035 C 
ATOM     26  C   UNL     1      48.858  13.214  18.288  0.00  0.00    +0.026 C 
ATOM     27  C   UNL     1      49.134  15.591  17.483  0.00  0.00    +0.002 C 
ATOM     28  C   UNL     1      48.269  16.087  18.637  0.00  0.00    +0.011 C 
ATOM     29  C   UNL     1      48.519  17.583  18.866  0.00  0.00    -0.002 C 
ATOM     30  C   UNL     1      50.003  17.841  19.125  0.00  0.00    +0.016 C 
ATOM     31  C   UNL     1      50.283  19.310  19.338  0.00  0.00    +0.012 C 
ENDROOT
BRANCH   3   2
ATOM      1  C   UNL     1      47.173  20.916  20.985  0.00  0.00    +0.055 C 
ATOM      2  C   UNL     1      48.299  20.657  20.017  0.00  0.00    +0.359 C 
ATOM     32  O   UNL     1      48.183  20.972  18.858  0.00  0.00    -0.451 OA
ENDBRANCH   3   2
BRANCH  20  21
ATOM     21  O   UNL     1      47.551  10.989  14.548  0.00  0.00    -0.565 OA
ATOM     22  H   UNL     1      47.287  10.890  13.622  0.00  0.00    +0.374 HD
ENDBRANCH  20  21
TORSDOF 2
ENDMDL
MODEL 8
REMARK VINA RESULT:      -5.8      1.934      7.737
REMARK  Name = ZINC32062349
REMARK  9 active torsions:
REMARK  status: ('A' for Active; 'I' for Inactive)
REMARK    1  A    between atoms: C1_1  and  C2_2
REMARK    2  A    between atoms: C2_2  and  C3_4
REMARK    3  A    between atoms: C6_8  and  C29_37
REMARK    4  A    between atoms: C12_17  and  C28_36
REMARK    5  A    between atoms: C15_20  and  O2_35
REMARK    6  A    between atoms: C16_22  and  C26_33
REMARK    7  A    between atoms: C16_22  and  C27_34
REMARK    8  A    between atoms: C20_27  and  C25_32
REMARK    9  A    between atoms: C21_28  and  C24_31
REMARK                            x       y       z     vdW  Elec       q    Type
REMARK                         _______ _______ _______ _____ _____    ______ ____
ROOT
ATOM      3  C   UNL     1      50.571  14.007  18.235  0.00  0.00    -0.039 C 
ATOM      4  C   UNL     1      51.046  12.545  18.451  0.00  0.00    +0.031 C 
ATOM      5  C   UNL     1      49.806  11.767  18.973  0.00  0.00    +0.023 C 
ATOM      6  C   UNL     1      49.018  12.878  19.691  0.00  0.00    -0.061 C 
ATOM      7  C   UNL     1      49.743  13.242  20.987  0.00  0.00    +0.029 C 
ATOM      8  C   UNL     1      47.558  12.579  19.953  0.00  0.00    +0.020 C 
ATOM      9  C   UNL     1      46.886  13.842  20.512  0.00  0.00    +0.016 C 
ATOM     10  C   UNL     1      47.065  15.048  19.597  0.00  0.00    -0.031 C 
ATOM     11  C   UNL     1      46.263  14.765  18.320  0.00  0.00    +0.015 C 
ATOM     12  C   UNL     1      46.512  16.319  20.267  0.00  0.00    -0.026 C 
ATOM     13  C   UNL     1      47.336  16.559  21.542  0.00  0.00    +0.018 C 
ATOM     14  C   UNL     1      45.059  16.092  20.686  0.00  0.00    +0.013 C 
ATOM     15  C   UNL     1      44.466  17.396  21.243  0.00  0.00    +0.016 C 
ATOM     16  C   UNL     1      44.497  18.434  20.125  0.00  0.00    -0.001 C 
ATOM     17  C   UNL     1      43.590  19.616  20.384  0.00  0.00    -0.038 C 
ATOM     18  C   UNL     1      43.816  20.252  21.755  0.00  0.00    +0.034 C 
ATOM     19  C   UNL     1      42.124  19.115  20.355  0.00  0.00    +0.017 C 
ATOM     20  C   UNL     1      43.701  20.677  19.290  0.00  0.00    +0.165 C 
ATOM     23  C   UNL     1      45.147  21.003  18.942  0.00  0.00    -0.019 C 
ATOM     24  C   UNL     1      45.905  19.737  18.554  0.00  0.00    +0.017 C 
ATOM     25  C   UNL     1      45.936  18.769  19.755  0.00  0.00    -0.035 C 
ATOM     26  C   UNL     1      46.708  19.448  20.878  0.00  0.00    +0.026 C 
ATOM     27  C   UNL     1      46.626  17.482  19.295  0.00  0.00    +0.002 C 
ATOM     28  C   UNL     1      48.079  17.729  18.906  0.00  0.00    +0.011 C 
ATOM     29  C   UNL     1      48.670  16.461  18.277  0.00  0.00    -0.002 C 
ATOM     30  C   UNL     1      48.538  15.279  19.236  0.00  0.00    +0.016 C 
ATOM     31  C   UNL     1      49.096  14.011  18.636  0.00  0.00    +0.012 C 
ENDROOT
BRANCH   3   2
ATOM      1  C   UNL     1      49.918  13.629  15.734  0.00  0.00    +0.055 C 
ATOM      2  C   UNL     1      50.717  14.368  16.777  0.00  0.00    +0.359 C 
ATOM     32  O   UNL     1      51.474  15.247  16.446  0.00  0.00    -0.451 OA
ENDBRANCH   3   2
BRANCH  20  21
ATOM     21  O   UNL     1      43.039  21.869  19.729  0.00  0.00    -0.565 OA
ATOM     22  H   UNL     1      42.230  22.074  19.238  0.00  0.00    +0.374 HD
ENDBRANCH  20  21
TORSDOF 2
ENDMDL
MODEL 9
REMARK VINA RESULT:      -5.7      2.306      8.043
REMARK  Name = ZINC32062349
REMARK  9 active torsions:
REMARK  status: ('A' for Active; 'I' for Inactive)
REMARK    1  A    between atoms: C1_1  and  C2_2
REMARK    2  A    between atoms: C2_2  and  C3_4
REMARK    3  A    between atoms: C6_8  and  C29_37
REMARK    4  A    between atoms: C12_17  and  C28_36
REMARK    5  A    between atoms: C15_20  and  O2_35
REMARK    6  A    between atoms: C16_22  and  C26_33
REMARK    7  A    between atoms: C16_22  and  C27_34
REMARK    8  A    between atoms: C20_27  and  C25_32
REMARK    9  A    between atoms: C21_28  and  C24_31
REMARK                            x       y       z     vdW  Elec       q    Type
REMARK                         _______ _______ _______ _____ _____    ______ ____
ROOT
ATOM      3  C   UNL     1      50.914  15.134  18.199  0.00  0.00    -0.039 C 
ATOM      4  C   UNL     1      51.008  13.765  17.471  0.00  0.00    +0.031 C 
ATOM      5  C   UNL     1      49.653  13.582  16.732  0.00  0.00    +0.023 C 
ATOM      6  C   UNL     1      48.694  14.386  17.630  0.00  0.00    -0.061 C 
ATOM      7  C   UNL     1      48.465  13.612  18.928  0.00  0.00    +0.029 C 
ATOM      8  C   UNL     1      47.379  14.780  16.994  0.00  0.00    +0.020 C 
ATOM      9  C   UNL     1      46.624  15.713  17.953  0.00  0.00    +0.016 C 
ATOM     10  C   UNL     1      47.452  16.930  18.350  0.00  0.00    -0.031 C 
ATOM     11  C   UNL     1      47.618  17.789  17.091  0.00  0.00    +0.015 C 
ATOM     12  C   UNL     1      46.719  17.751  19.427  0.00  0.00    -0.026 C 
ATOM     13  C   UNL     1      46.568  16.852  20.664  0.00  0.00    +0.018 C 
ATOM     14  C   UNL     1      45.317  18.111  18.937  0.00  0.00    +0.013 C 
ATOM     15  C   UNL     1      44.628  19.033  19.955  0.00  0.00    +0.016 C 
ATOM     16  C   UNL     1      45.455  20.312  20.056  0.00  0.00    -0.001 C 
ATOM     17  C   UNL     1      44.702  21.460  20.691  0.00  0.00    -0.038 C 
ATOM     18  C   UNL     1      44.066  21.088  22.029  0.00  0.00    +0.034 C 
ATOM     19  C   UNL     1      43.548  21.864  19.739  0.00  0.00    +0.017 C 
ATOM     20  C   UNL     1      45.577  22.702  20.854  0.00  0.00    +0.165 C 
ATOM     23  C   UNL     1      46.939  22.377  21.453  0.00  0.00    -0.019 C 
ATOM     24  C   UNL     1      47.651  21.312  20.625  0.00  0.00    +0.017 C 
ATOM     25  C   UNL     1      46.826  20.010  20.646  0.00  0.00    -0.035 C 
ATOM     26  C   UNL     1      46.770  19.519  22.087  0.00  0.00    +0.026 C 
ATOM     27  C   UNL     1      47.529  19.000  19.735  0.00  0.00    +0.002 C 
ATOM     28  C   UNL     1      48.915  18.638  20.257  0.00  0.00    +0.011 C 
ATOM     29  C   UNL     1      49.651  17.779  19.221  0.00  0.00    -0.002 C 
ATOM     30  C   UNL     1      48.834  16.533  18.886  0.00  0.00    +0.016 C 
ATOM     31  C   UNL     1      49.527  15.675  17.854  0.00  0.00    +0.012 C 
ENDROOT
BRANCH   3   2
ATOM      1  C   UNL     1      51.796  16.733  16.333  0.00  0.00    +0.055 C 
ATOM      2  C   UNL     1      51.983  16.056  17.666  0.00  0.00    +0.359 C 
ATOM     32  O   UNL     1      52.986  16.251  18.307  0.00  0.00    -0.451 OA
ENDBRANCH   3   2
BRANCH  20  21
ATOM     21  O   UNL     1      44.900  23.642  21.696  0.00  0.00    -0.565 OA
ATOM     22  H   UNL     1      43.937  23.634  21.601  0.00  0.00    +0.374 HD
ENDBRANCH  20  21
TORSDOF 2
ENDMDL
