MODEL 1
REMARK VINA RESULT:      -5.5      0.000      0.000
REMARK  Name = ZINC13359041
REMARK  11 active torsions:
REMARK  status: ('A' for Active; 'I' for Inactive)
REMARK    1  A    between atoms: C1_1  and  C2_2
REMARK    2  A    between atoms: C4_4  and  O4_30
REMARK    3  A    between atoms: C7_7  and  C8_8
REMARK    4  A    between atoms: C9_9  and  O2_23
REMARK    5  A    between atoms: C13_13  and  O1_14
REMARK    6  A    between atoms: O1_14  and  C14_15
REMARK    7  A    between atoms: C15_16  and  C19_22
REMARK    8  A    between atoms: C16_18  and  C18_21
REMARK    9  A    between atoms: C23_27  and  O3_28
REMARK   10  A    between atoms: O3_28  and  C24_29
REMARK   11  A    between atoms: O4_30  and  C25_31
REMARK                            x       y       z     vdW  Elec       q    Type
REMARK                         _______ _______ _______ _____ _____    ______ ____
ROOT
ATOM     16  C   UNL     1      46.642  19.236  20.624  0.00  0.00    -0.053 A 
ATOM     17  C   UNL     1      46.514  18.293  21.650  0.00  0.00    +0.164 A 
ATOM     20  C   UNL     1      45.254  17.894  22.058  0.00  0.00    +0.004 A 
ATOM     21  C   UNL     1      44.118  18.419  21.460  0.00  0.00    -0.059 A 
ATOM     22  C   UNL     1      44.233  19.352  20.451  0.00  0.00    -0.162 A 
ATOM     23  C   UNL     1      43.026  19.952  19.780  0.00  0.00    +0.231 C 
ATOM     24  N   UNL     1      41.833  19.131  20.032  0.00  0.00    -0.512 N 
ATOM     25  H   UNL     1      41.003  19.617  19.673  0.00  0.00    +0.435 HD
ATOM     26  H   UNL     1      41.935  18.228  19.554  0.00  0.00    +0.432 HD
ATOM     27  C   UNL     1      41.678  18.903  21.480  0.00  0.00    +0.174 C 
ATOM     28  C   UNL     1      40.303  18.290  21.755  0.00  0.00    +0.094 C 
ATOM     29  C   UNL     1      43.271  20.028  18.272  0.00  0.00    +0.102 C 
ATOM     30  C   UNL     1      42.772  17.939  21.940  0.00  0.00    +0.133 C 
ATOM     31  C   UNL     1      45.493  19.762  20.028  0.00  0.00    +0.153 A 
ENDROOT
BRANCH  16  15
ATOM      1  C   UNL     1      47.945  21.425  21.956  0.00  0.00    +0.091 C 
ATOM      2  C   UNL     1      48.621  20.725  20.806  0.00  0.00    -0.007 A 
ATOM      3  C   UNL     1      49.880  21.143  20.392  0.00  0.00    -0.112 A 
ATOM      4  C   UNL     1      50.523  20.522  19.344  0.00  0.00    +0.192 A 
ATOM      7  C   UNL     1      49.902  19.447  18.679  0.00  0.00    -0.103 A 
ATOM      8  C   UNL     1      48.623  19.011  19.097  0.00  0.00    +0.055 A 
ATOM      9  C   UNL     1      48.002  17.945  18.431  0.00  0.00    -0.043 A 
ATOM     10  C   UNL     1      48.636  17.330  17.393  0.00  0.00    +0.078 A 
ATOM     11  C   UNL     1      49.897  17.746  16.976  0.00  0.00    -0.109 A 
ATOM     12  C   UNL     1      50.536  18.793  17.603  0.00  0.00    +0.175 A 
ATOM     15  C   UNL     1      47.982  19.672  20.174  0.00  0.00    -0.104 A 
BRANCH   4   5
ATOM      5  O   UNL     1      51.753  20.945  18.954  0.00  0.00    -0.286 OA
ATOM      6  C   UNL     1      52.571  21.567  19.948  0.00  0.00    +0.245 C 
ENDBRANCH   4   5
BRANCH  12  13
ATOM     13  O   UNL     1      51.766  19.192  17.189  0.00  0.00    -0.290 OA
ATOM     14  C   UNL     1      51.949  19.377  15.783  0.00  0.00    +0.245 C 
ENDBRANCH  12  13
ENDBRANCH  16  15
BRANCH  17  18
ATOM     18  O   UNL     1      47.621  17.772  22.241  0.00  0.00    -0.480 OA
ATOM     19  H   UNL     1      47.839  16.877  21.948  0.00  0.00    +0.401 HD
ENDBRANCH  17  18
BRANCH  31  32
ATOM     32  O   UNL     1      45.608  20.679  19.032  0.00  0.00    -0.321 OA
ATOM     33  C   UNL     1      45.538  22.056  19.406  0.00  0.00    +0.235 C 
ENDBRANCH  31  32
TORSDOF 5
ENDMDL
MODEL 2
REMARK VINA RESULT:      -5.5      2.181      3.094
REMARK  Name = ZINC13359041
REMARK  11 active torsions:
REMARK  status: ('A' for Active; 'I' for Inactive)
REMARK    1  A    between atoms: C1_1  and  C2_2
REMARK    2  A    between atoms: C4_4  and  O4_30
REMARK    3  A    between atoms: C7_7  and  C8_8
REMARK    4  A    between atoms: C9_9  and  O2_23
REMARK    5  A    between atoms: C13_13  and  O1_14
REMARK    6  A    between atoms: O1_14  and  C14_15
REMARK    7  A    between atoms: C15_16  and  C19_22
REMARK    8  A    between atoms: C16_18  and  C18_21
REMARK    9  A    between atoms: C23_27  and  O3_28
REMARK   10  A    between atoms: O3_28  and  C24_29
REMARK   11  A    between atoms: O4_30  and  C25_31
REMARK                            x       y       z     vdW  Elec       q    Type
REMARK                         _______ _______ _______ _____ _____    ______ ____
ROOT
ATOM     16  C   UNL     1      46.080  19.481  19.937  0.00  0.00    -0.053 A 
ATOM     17  C   UNL     1      46.036  20.691  19.237  0.00  0.00    +0.164 A 
ATOM     20  C   UNL     1      44.814  21.278  18.964  0.00  0.00    +0.004 A 
ATOM     21  C   UNL     1      43.633  20.679  19.379  0.00  0.00    -0.059 A 
ATOM     22  C   UNL     1      43.666  19.484  20.067  0.00  0.00    -0.162 A 
ATOM     23  C   UNL     1      42.408  18.797  20.530  0.00  0.00    +0.231 C 
ATOM     24  N   UNL     1      41.278  19.736  20.531  0.00  0.00    -0.512 N 
ATOM     25  H   UNL     1      40.410  19.223  20.730  0.00  0.00    +0.435 HD
ATOM     26  H   UNL     1      41.427  20.448  21.255  0.00  0.00    +0.432 HD
ATOM     27  C   UNL     1      41.168  20.391  19.215  0.00  0.00    +0.174 C 
ATOM     28  C   UNL     1      39.841  21.150  19.133  0.00  0.00    +0.094 C 
ATOM     29  C   UNL     1      42.617  18.262  21.948  0.00  0.00    +0.102 C 
ATOM     30  C   UNL     1      42.331  21.371  19.062  0.00  0.00    +0.133 C 
ATOM     31  C   UNL     1      44.888  18.882  20.350  0.00  0.00    +0.153 A 
ENDROOT
BRANCH  16  15
ATOM      1  C   UNL     1      47.305  19.893  22.505  0.00  0.00    +0.091 C 
ATOM      2  C   UNL     1      47.981  19.030  21.471  0.00  0.00    -0.007 A 
ATOM      3  C   UNL     1      49.201  18.434  21.766  0.00  0.00    -0.112 A 
ATOM      4  C   UNL     1      49.842  17.639  20.841  0.00  0.00    +0.192 A 
ATOM      7  C   UNL     1      49.258  17.425  19.577  0.00  0.00    -0.103 A 
ATOM      8  C   UNL     1      48.014  18.023  19.271  0.00  0.00    +0.055 A 
ATOM      9  C   UNL     1      47.436  17.814  18.010  0.00  0.00    -0.043 A 
ATOM     10  C   UNL     1      48.070  17.030  17.093  0.00  0.00    +0.078 A 
ATOM     11  C   UNL     1      49.291  16.431  17.385  0.00  0.00    -0.109 A 
ATOM     12  C   UNL     1      49.892  16.618  18.611  0.00  0.00    +0.175 A 
ATOM     15  C   UNL     1      47.380  18.840  20.239  0.00  0.00    -0.104 A 
BRANCH   4   5
ATOM      5  O   UNL     1      51.033  17.064  21.147  0.00  0.00    -0.286 OA
ATOM      6  C   UNL     1      52.061  17.925  21.643  0.00  0.00    +0.245 C 
ENDBRANCH   4   5
BRANCH  12  13
ATOM     13  O   UNL     1      51.084  16.029  18.885  0.00  0.00    -0.290 OA
ATOM     14  C   UNL     1      52.167  16.308  17.995  0.00  0.00    +0.245 C 
ENDBRANCH  12  13
ENDBRANCH  16  15
BRANCH  17  18
ATOM     18  O   UNL     1      47.186  21.286  18.827  0.00  0.00    -0.480 OA
ATOM     19  H   UNL     1      47.074  22.201  18.537  0.00  0.00    +0.401 HD
ENDBRANCH  17  18
BRANCH  31  32
ATOM     32  O   UNL     1      44.921  17.707  21.030  0.00  0.00    -0.321 OA
ATOM     33  C   UNL     1      44.951  16.508  20.254  0.00  0.00    +0.235 C 
ENDBRANCH  31  32
TORSDOF 5
ENDMDL
MODEL 3
REMARK VINA RESULT:      -5.4      3.228      7.328
REMARK  Name = ZINC13359041
REMARK  11 active torsions:
REMARK  status: ('A' for Active; 'I' for Inactive)
REMARK    1  A    between atoms: C1_1  and  C2_2
REMARK    2  A    between atoms: C4_4  and  O4_30
REMARK    3  A    between atoms: C7_7  and  C8_8
REMARK    4  A    between atoms: C9_9  and  O2_23
REMARK    5  A    between atoms: C13_13  and  O1_14
REMARK    6  A    between atoms: O1_14  and  C14_15
REMARK    7  A    between atoms: C15_16  and  C19_22
REMARK    8  A    between atoms: C16_18  and  C18_21
REMARK    9  A    between atoms: C23_27  and  O3_28
REMARK   10  A    between atoms: O3_28  and  C24_29
REMARK   11  A    between atoms: O4_30  and  C25_31
REMARK                            x       y       z     vdW  Elec       q    Type
REMARK                         _______ _______ _______ _____ _____    ______ ____
ROOT
ATOM     16  C   UNL     1      49.195  18.498  19.999  0.00  0.00    -0.053 A 
ATOM     17  C   UNL     1      49.803  18.603  21.254  0.00  0.00    +0.164 A 
ATOM     20  C   UNL     1      51.061  18.064  21.452  0.00  0.00    +0.004 A 
ATOM     21  C   UNL     1      51.725  17.421  20.417  0.00  0.00    -0.059 A 
ATOM     22  C   UNL     1      51.132  17.308  19.177  0.00  0.00    -0.162 A 
ATOM     23  C   UNL     1      51.815  16.613  18.029  0.00  0.00    +0.231 C 
ATOM     24  N   UNL     1      53.256  16.485  18.285  0.00  0.00    -0.512 N 
ATOM     25  H   UNL     1      53.682  15.904  17.554  0.00  0.00    +0.435 HD
ATOM     26  H   UNL     1      53.687  17.417  18.275  0.00  0.00    +0.432 HD
ATOM     27  C   UNL     1      53.478  15.857  19.600  0.00  0.00    +0.174 C 
ATOM     28  C   UNL     1      54.955  15.479  19.742  0.00  0.00    +0.094 C 
ATOM     29  C   UNL     1      51.604  17.424  16.749  0.00  0.00    +0.102 C 
ATOM     30  C   UNL     1      53.098  16.861  20.689  0.00  0.00    +0.133 C 
ATOM     31  C   UNL     1      49.868  17.847  18.962  0.00  0.00    +0.153 A 
ENDROOT
BRANCH  16  15
ATOM      1  C   UNL     1      48.944  21.100  18.803  0.00  0.00    +0.091 C 
ATOM      2  C   UNL     1      47.714  20.323  19.196  0.00  0.00    -0.007 A 
ATOM      3  C   UNL     1      46.457  20.872  18.976  0.00  0.00    -0.112 A 
ATOM      4  C   UNL     1      45.315  20.185  19.324  0.00  0.00    +0.192 A 
ATOM      7  C   UNL     1      45.415  18.908  19.911  0.00  0.00    -0.103 A 
ATOM      8  C   UNL     1      46.692  18.340  20.133  0.00  0.00    +0.055 A 
ATOM      9  C   UNL     1      46.792  17.072  20.722  0.00  0.00    -0.043 A 
ATOM     10  C   UNL     1      45.663  16.391  21.069  0.00  0.00    +0.078 A 
ATOM     11  C   UNL     1      44.402  16.937  20.851  0.00  0.00    -0.109 A 
ATOM     12  C   UNL     1      44.265  18.183  20.278  0.00  0.00    +0.175 A 
ATOM     15  C   UNL     1      47.850  19.071  19.770  0.00  0.00    -0.104 A 
BRANCH   4   5
ATOM      5  O   UNL     1      44.094  20.737  19.101  0.00  0.00    -0.286 OA
ATOM      6  C   UNL     1      43.843  22.016  19.689  0.00  0.00    +0.245 C 
ENDBRANCH   4   5
BRANCH  12  13
ATOM     13  O   UNL     1      43.029  18.707  20.069  0.00  0.00    -0.290 OA
ATOM     14  C   UNL     1      42.156  18.782  21.198  0.00  0.00    +0.245 C 
ENDBRANCH  12  13
ENDBRANCH  16  15
BRANCH  17  18
ATOM     18  O   UNL     1      49.162  19.232  22.274  0.00  0.00    -0.480 OA
ATOM     19  H   UNL     1      49.492  20.122  22.457  0.00  0.00    +0.401 HD
ENDBRANCH  17  18
BRANCH  31  32
ATOM     32  O   UNL     1      49.285  17.739  17.740  0.00  0.00    -0.321 OA
ATOM     33  C   UNL     1      48.432  16.613  17.524  0.00  0.00    +0.235 C 
ENDBRANCH  31  32
TORSDOF 5
ENDMDL
MODEL 4
REMARK VINA RESULT:      -5.3      2.330      3.230
REMARK  Name = ZINC13359041
REMARK  11 active torsions:
REMARK  status: ('A' for Active; 'I' for Inactive)
REMARK    1  A    between atoms: C1_1  and  C2_2
REMARK    2  A    between atoms: C4_4  and  O4_30
REMARK    3  A    between atoms: C7_7  and  C8_8
REMARK    4  A    between atoms: C9_9  and  O2_23
REMARK    5  A    between atoms: C13_13  and  O1_14
REMARK    6  A    between atoms: O1_14  and  C14_15
REMARK    7  A    between atoms: C15_16  and  C19_22
REMARK    8  A    between atoms: C16_18  and  C18_21
REMARK    9  A    between atoms: C23_27  and  O3_28
REMARK   10  A    between atoms: O3_28  and  C24_29
REMARK   11  A    between atoms: O4_30  and  C25_31
REMARK                            x       y       z     vdW  Elec       q    Type
REMARK                         _______ _______ _______ _____ _____    ______ ____
ROOT
ATOM     16  C   UNL     1      46.093  19.542  19.993  0.00  0.00    -0.053 A 
ATOM     17  C   UNL     1      45.455  18.551  19.239  0.00  0.00    +0.164 A 
ATOM     20  C   UNL     1      44.175  18.772  18.763  0.00  0.00    +0.004 A 
ATOM     21  C   UNL     1      43.520  19.967  19.025  0.00  0.00    -0.059 A 
ATOM     22  C   UNL     1      44.139  20.948  19.771  0.00  0.00    -0.162 A 
ATOM     23  C   UNL     1      43.462  22.257  20.083  0.00  0.00    +0.231 C 
ATOM     24  N   UNL     1      42.328  22.481  19.177  0.00  0.00    -0.512 N 
ATOM     25  H   UNL     1      41.807  23.311  19.482  0.00  0.00    +0.435 HD
ATOM     26  H   UNL     1      42.678  22.629  18.223  0.00  0.00    +0.432 HD
ATOM     27  C   UNL     1      41.433  21.309  19.193  0.00  0.00    +0.174 C 
ATOM     28  C   UNL     1      40.128  21.654  18.470  0.00  0.00    +0.094 C 
ATOM     29  C   UNL     1      44.467  23.398  19.920  0.00  0.00    +0.102 C 
ATOM     30  C   UNL     1      42.130  20.155  18.472  0.00  0.00    +0.133 C 
ATOM     31  C   UNL     1      45.427  20.741  20.255  0.00  0.00    +0.153 A 
ENDROOT
BRANCH  16  15
ATOM      1  C   UNL     1      46.484  17.954  22.357  0.00  0.00    +0.091 C 
ATOM      2  C   UNL     1      47.666  18.560  21.646  0.00  0.00    -0.007 A 
ATOM      3  C   UNL     1      48.947  18.346  22.138  0.00  0.00    -0.112 A 
ATOM      4  C   UNL     1      50.047  18.887  21.508  0.00  0.00    +0.192 A 
ATOM      7  C   UNL     1      49.877  19.667  20.348  0.00  0.00    -0.103 A 
ATOM      8  C   UNL     1      48.576  19.885  19.836  0.00  0.00    +0.055 A 
ATOM      9  C   UNL     1      48.407  20.667  18.685  0.00  0.00    -0.043 A 
ATOM     10  C   UNL     1      49.493  21.204  18.061  0.00  0.00    +0.078 A 
ATOM     11  C   UNL     1      50.778  20.992  18.552  0.00  0.00    -0.109 A 
ATOM     12  C   UNL     1      50.983  20.233  19.683  0.00  0.00    +0.175 A 
ATOM     15  C   UNL     1      47.463  19.322  20.508  0.00  0.00    -0.104 A 
BRANCH   4   5
ATOM      5  O   UNL     1      51.292  18.667  22.004  0.00  0.00    -0.286 OA
ATOM      6  C   UNL     1      51.584  17.344  22.460  0.00  0.00    +0.245 C 
ENDBRANCH   4   5
BRANCH  12  13
ATOM     13  O   UNL     1      52.241  20.032  20.154  0.00  0.00    -0.290 OA
ATOM     14  C   UNL     1      52.846  21.112  20.869  0.00  0.00    +0.245 C 
ENDBRANCH  12  13
ENDBRANCH  16  15
BRANCH  17  18
ATOM     18  O   UNL     1      46.088  17.378  18.977  0.00  0.00    -0.480 OA
ATOM     19  H   UNL     1      46.178  17.183  18.034  0.00  0.00    +0.401 HD
ENDBRANCH  17  18
BRANCH  31  32
ATOM     32  O   UNL     1      46.038  21.709  20.986  0.00  0.00    -0.321 OA
ATOM     33  C   UNL     1      46.035  21.550  22.406  0.00  0.00    +0.235 C 
ENDBRANCH  31  32
TORSDOF 5
ENDMDL
MODEL 5
REMARK VINA RESULT:      -5.3      1.188      2.836
REMARK  Name = ZINC13359041
REMARK  11 active torsions:
REMARK  status: ('A' for Active; 'I' for Inactive)
REMARK    1  A    between atoms: C1_1  and  C2_2
REMARK    2  A    between atoms: C4_4  and  O4_30
REMARK    3  A    between atoms: C7_7  and  C8_8
REMARK    4  A    between atoms: C9_9  and  O2_23
REMARK    5  A    between atoms: C13_13  and  O1_14
REMARK    6  A    between atoms: O1_14  and  C14_15
REMARK    7  A    between atoms: C15_16  and  C19_22
REMARK    8  A    between atoms: C16_18  and  C18_21
REMARK    9  A    between atoms: C23_27  and  O3_28
REMARK   10  A    between atoms: O3_28  and  C24_29
REMARK   11  A    between atoms: O4_30  and  C25_31
REMARK                            x       y       z     vdW  Elec       q    Type
REMARK                         _______ _______ _______ _____ _____    ______ ____
ROOT
ATOM     16  C   UNL     1      46.191  18.050  19.725  0.00  0.00    -0.053 A 
ATOM     17  C   UNL     1      45.964  17.121  20.746  0.00  0.00    +0.164 A 
ATOM     20  C   UNL     1      44.751  17.121  21.412  0.00  0.00    +0.004 A 
ATOM     21  C   UNL     1      43.760  18.031  21.075  0.00  0.00    -0.059 A 
ATOM     22  C   UNL     1      43.976  18.953  20.072  0.00  0.00    -0.162 A 
ATOM     23  C   UNL     1      42.929  19.962  19.680  0.00  0.00    +0.231 C 
ATOM     24  N   UNL     1      41.607  19.555  20.175  0.00  0.00    -0.512 N 
ATOM     25  H   UNL     1      40.933  20.310  20.006  0.00  0.00    +0.435 HD
ATOM     26  H   UNL     1      41.305  18.709  19.679  0.00  0.00    +0.432 HD
ATOM     27  C   UNL     1      41.677  19.276  21.621  0.00  0.00    +0.174 C 
ATOM     28  C   UNL     1      40.260  19.122  22.179  0.00  0.00    +0.094 C 
ATOM     29  C   UNL     1      42.881  20.073  18.155  0.00  0.00    +0.102 C 
ATOM     30  C   UNL     1      42.455  17.976  21.829  0.00  0.00    +0.133 C 
ATOM     31  C   UNL     1      45.190  18.965  19.393  0.00  0.00    +0.153 A 
ENDROOT
BRANCH  16  15
ATOM      1  C   UNL     1      46.456  16.588  17.264  0.00  0.00    +0.091 C 
ATOM      2  C   UNL     1      47.624  17.363  17.816  0.00  0.00    -0.007 A 
ATOM      3  C   UNL     1      48.831  17.368  17.128  0.00  0.00    -0.112 A 
ATOM      4  C   UNL     1      49.916  18.068  17.608  0.00  0.00    +0.192 A 
ATOM      7  C   UNL     1      49.808  18.791  18.812  0.00  0.00    -0.103 A 
ATOM      8  C   UNL     1      48.580  18.796  19.516  0.00  0.00    +0.055 A 
ATOM      9  C   UNL     1      48.474  19.511  20.717  0.00  0.00    -0.043 A 
ATOM     10  C   UNL     1      49.547  20.203  21.194  0.00  0.00    +0.078 A 
ATOM     11  C   UNL     1      50.758  20.210  20.508  0.00  0.00    -0.109 A 
ATOM     12  C   UNL     1      50.901  19.515  19.327  0.00  0.00    +0.175 A 
ATOM     15  C   UNL     1      47.482  18.062  19.002  0.00  0.00    -0.104 A 
BRANCH   4   5
ATOM      5  O   UNL     1      51.088  18.061  16.921  0.00  0.00    -0.286 OA
ATOM      6  C   UNL     1      51.633  16.784  16.580  0.00  0.00    +0.245 C 
ENDBRANCH   4   5
BRANCH  12  13
ATOM     13  O   UNL     1      52.087  19.528  18.665  0.00  0.00    -0.290 OA
ATOM     14  C   UNL     1      52.819  20.756  18.670  0.00  0.00    +0.245 C 
ENDBRANCH  12  13
ENDBRANCH  16  15
BRANCH  17  18
ATOM     18  O   UNL     1      46.928  16.225  21.083  0.00  0.00    -0.480 OA
ATOM     19  H   UNL     1      46.866  15.385  20.609  0.00  0.00    +0.401 HD
ENDBRANCH  17  18
BRANCH  31  32
ATOM     32  O   UNL     1      45.402  19.870  18.403  0.00  0.00    -0.321 OA
ATOM     33  C   UNL     1      45.970  21.125  18.781  0.00  0.00    +0.235 C 
ENDBRANCH  31  32
TORSDOF 5
ENDMDL
MODEL 6
REMARK VINA RESULT:      -5.3      3.400      5.979
REMARK  Name = ZINC13359041
REMARK  11 active torsions:
REMARK  status: ('A' for Active; 'I' for Inactive)
REMARK    1  A    between atoms: C1_1  and  C2_2
REMARK    2  A    between atoms: C4_4  and  O4_30
REMARK    3  A    between atoms: C7_7  and  C8_8
REMARK    4  A    between atoms: C9_9  and  O2_23
REMARK    5  A    between atoms: C13_13  and  O1_14
REMARK    6  A    between atoms: O1_14  and  C14_15
REMARK    7  A    between atoms: C15_16  and  C19_22
REMARK    8  A    between atoms: C16_18  and  C18_21
REMARK    9  A    between atoms: C23_27  and  O3_28
REMARK   10  A    between atoms: O3_28  and  C24_29
REMARK   11  A    between atoms: O4_30  and  C25_31
REMARK                            x       y       z     vdW  Elec       q    Type
REMARK                         _______ _______ _______ _____ _____    ______ ____
ROOT
ATOM     16  C   UNL     1      45.961  16.682  20.091  0.00  0.00    -0.053 A 
ATOM     17  C   UNL     1      45.131  15.734  20.698  0.00  0.00    +0.164 A 
ATOM     20  C   UNL     1      44.999  14.478  20.133  0.00  0.00    +0.004 A 
ATOM     21  C   UNL     1      45.684  14.150  18.972  0.00  0.00    -0.059 A 
ATOM     22  C   UNL     1      46.503  15.079  18.363  0.00  0.00    -0.162 A 
ATOM     23  C   UNL     1      47.259  14.766  17.099  0.00  0.00    +0.231 C 
ATOM     24  N   UNL     1      47.335  13.314  16.888  0.00  0.00    -0.512 N 
ATOM     25  H   UNL     1      47.743  13.125  15.965  0.00  0.00    +0.435 HD
ATOM     26  H   UNL     1      47.925  12.895  17.616  0.00  0.00    +0.432 HD
ATOM     27  C   UNL     1      45.985  12.726  16.955  0.00  0.00    +0.174 C 
ATOM     28  C   UNL     1      46.035  11.276  16.467  0.00  0.00    +0.094 C 
ATOM     29  C   UNL     1      48.676  15.332  17.205  0.00  0.00    +0.102 C 
ATOM     30  C   UNL     1      45.510  12.763  18.408  0.00  0.00    +0.133 C 
ATOM     31  C   UNL     1      46.646  16.346  18.920  0.00  0.00    +0.153 A 
ENDROOT
BRANCH  16  15
ATOM      1  C   UNL     1      48.098  17.183  21.947  0.00  0.00    +0.091 C 
ATOM      2  C   UNL     1      47.138  18.285  21.578  0.00  0.00    -0.007 A 
ATOM      3  C   UNL     1      47.292  19.546  22.140  0.00  0.00    -0.112 A 
ATOM      4  C   UNL     1      46.430  20.573  21.822  0.00  0.00    +0.192 A 
ATOM      7  C   UNL     1      45.377  20.348  20.914  0.00  0.00    -0.103 A 
ATOM      8  C   UNL     1      45.217  19.068  20.332  0.00  0.00    +0.055 A 
ATOM      9  C   UNL     1      44.165  18.843  19.434  0.00  0.00    -0.043 A 
ATOM     10  C   UNL     1      43.310  19.857  19.118  0.00  0.00    +0.078 A 
ATOM     11  C   UNL     1      43.461  21.121  19.679  0.00  0.00    -0.109 A 
ATOM     12  C   UNL     1      44.480  21.379  20.570  0.00  0.00    +0.175 A 
ATOM     15  C   UNL     1      46.114  18.029  20.683  0.00  0.00    -0.104 A 
BRANCH   4   5
ATOM      5  O   UNL     1      46.597  21.799  22.382  0.00  0.00    -0.286 OA
ATOM      6  C   UNL     1      47.937  22.280  22.503  0.00  0.00    +0.245 C 
ENDBRANCH   4   5
BRANCH  12  13
ATOM     13  O   UNL     1      44.619  22.616  21.112  0.00  0.00    -0.290 OA
ATOM     14  C   UNL     1      44.858  23.698  20.209  0.00  0.00    +0.245 C 
ENDBRANCH  12  13
ENDBRANCH  16  15
BRANCH  17  18
ATOM     18  O   UNL     1      44.457  16.045  21.836  0.00  0.00    -0.480 OA
ATOM     19  H   UNL     1      44.673  16.916  22.195  0.00  0.00    +0.401 HD
ENDBRANCH  17  18
BRANCH  31  32
ATOM     32  O   UNL     1      47.455  17.259  18.323  0.00  0.00    -0.321 OA
ATOM     33  C   UNL     1      46.868  18.086  17.316  0.00  0.00    +0.235 C 
ENDBRANCH  31  32
TORSDOF 5
ENDMDL
MODEL 7
REMARK VINA RESULT:      -5.2      3.553      5.957
REMARK  Name = ZINC13359041
REMARK  11 active torsions:
REMARK  status: ('A' for Active; 'I' for Inactive)
REMARK    1  A    between atoms: C1_1  and  C2_2
REMARK    2  A    between atoms: C4_4  and  O4_30
REMARK    3  A    between atoms: C7_7  and  C8_8
REMARK    4  A    between atoms: C9_9  and  O2_23
REMARK    5  A    between atoms: C13_13  and  O1_14
REMARK    6  A    between atoms: O1_14  and  C14_15
REMARK    7  A    between atoms: C15_16  and  C19_22
REMARK    8  A    between atoms: C16_18  and  C18_21
REMARK    9  A    between atoms: C23_27  and  O3_28
REMARK   10  A    between atoms: O3_28  and  C24_29
REMARK   11  A    between atoms: O4_30  and  C25_31
REMARK                            x       y       z     vdW  Elec       q    Type
REMARK                         _______ _______ _______ _____ _____    ______ ____
ROOT
ATOM     16  C   UNL     1      47.951  16.380  18.156  0.00  0.00    -0.053 A 
ATOM     17  C   UNL     1      47.048  16.419  17.088  0.00  0.00    +0.164 A 
ATOM     20  C   UNL     1      46.625  15.238  16.506  0.00  0.00    +0.004 A 
ATOM     21  C   UNL     1      47.087  14.015  16.973  0.00  0.00    -0.059 A 
ATOM     22  C   UNL     1      47.980  13.966  18.023  0.00  0.00    -0.162 A 
ATOM     23  C   UNL     1      48.510  12.661  18.556  0.00  0.00    +0.231 C 
ATOM     24  N   UNL     1      47.661  11.543  18.122  0.00  0.00    -0.512 N 
ATOM     25  H   UNL     1      48.104  10.656  18.390  0.00  0.00    +0.435 HD
ATOM     26  H   UNL     1      46.743  11.617  18.575  0.00  0.00    +0.432 HD
ATOM     27  C   UNL     1      47.490  11.581  16.658  0.00  0.00    +0.174 C 
ATOM     28  C   UNL     1      46.844  10.277  16.186  0.00  0.00    +0.094 C 
ATOM     29  C   UNL     1      48.530  12.711  20.085  0.00  0.00    +0.102 C 
ATOM     30  C   UNL     1      46.583  12.761  16.306  0.00  0.00    +0.133 C 
ATOM     31  C   UNL     1      48.413  15.146  18.619  0.00  0.00    +0.153 A 
ENDROOT
BRANCH  16  15
ATOM      1  C   UNL     1      46.595  17.374  20.487  0.00  0.00    +0.091 C 
ATOM      2  C   UNL     1      47.768  18.126  19.913  0.00  0.00    -0.007 A 
ATOM      3  C   UNL     1      48.193  19.302  20.518  0.00  0.00    -0.112 A 
ATOM      4  C   UNL     1      49.263  20.010  20.015  0.00  0.00    +0.192 A 
ATOM      7  C   UNL     1      49.941  19.540  18.874  0.00  0.00    -0.103 A 
ATOM      8  C   UNL     1      49.519  18.339  18.256  0.00  0.00    +0.055 A 
ATOM      9  C   UNL     1      50.191  17.874  17.116  0.00  0.00    -0.043 A 
ATOM     10  C   UNL     1      51.248  18.574  16.617  0.00  0.00    +0.078 A 
ATOM     11  C   UNL     1      51.676  19.753  17.220  0.00  0.00    -0.109 A 
ATOM     12  C   UNL     1      51.038  20.243  18.338  0.00  0.00    +0.175 A 
ATOM     15  C   UNL     1      48.412  17.635  18.790  0.00  0.00    -0.104 A 
BRANCH   4   5
ATOM      5  O   UNL     1      49.663  21.158  20.620  0.00  0.00    -0.286 OA
ATOM      6  C   UNL     1      49.736  21.148  22.048  0.00  0.00    +0.245 C 
ENDBRANCH   4   5
BRANCH  12  13
ATOM     13  O   UNL     1      51.463  21.394  18.919  0.00  0.00    -0.290 OA
ATOM     14  C   UNL     1      52.766  21.382  19.507  0.00  0.00    +0.245 C 
ENDBRANCH  12  13
ENDBRANCH  16  15
BRANCH  17  18
ATOM     18  O   UNL     1      46.590  17.611  16.624  0.00  0.00    -0.480 OA
ATOM     19  H   UNL     1      47.051  17.931  15.836  0.00  0.00    +0.401 HD
ENDBRANCH  17  18
BRANCH  31  32
ATOM     32  O   UNL     1      49.290  15.098  19.655  0.00  0.00    -0.321 OA
ATOM     33  C   UNL     1      50.680  15.162  19.333  0.00  0.00    +0.235 C 
ENDBRANCH  31  32
TORSDOF 5
ENDMDL
MODEL 8
REMARK VINA RESULT:      -5.0      3.181      5.506
REMARK  Name = ZINC13359041
REMARK  11 active torsions:
REMARK  status: ('A' for Active; 'I' for Inactive)
REMARK    1  A    between atoms: C1_1  and  C2_2
REMARK    2  A    between atoms: C4_4  and  O4_30
REMARK    3  A    between atoms: C7_7  and  C8_8
REMARK    4  A    between atoms: C9_9  and  O2_23
REMARK    5  A    between atoms: C13_13  and  O1_14
REMARK    6  A    between atoms: O1_14  and  C14_15
REMARK    7  A    between atoms: C15_16  and  C19_22
REMARK    8  A    between atoms: C16_18  and  C18_21
REMARK    9  A    between atoms: C23_27  and  O3_28
REMARK   10  A    between atoms: O3_28  and  C24_29
REMARK   11  A    between atoms: O4_30  and  C25_31
REMARK                            x       y       z     vdW  Elec       q    Type
REMARK                         _______ _______ _______ _____ _____    ______ ____
ROOT
ATOM     16  C   UNL     1      47.218  17.638  18.850  0.00  0.00    -0.053 A 
ATOM     17  C   UNL     1      46.269  18.112  17.939  0.00  0.00    +0.164 A 
ATOM     20  C   UNL     1      45.733  19.376  18.106  0.00  0.00    +0.004 A 
ATOM     21  C   UNL     1      46.128  20.177  19.168  0.00  0.00    -0.059 A 
ATOM     22  C   UNL     1      47.060  19.717  20.074  0.00  0.00    -0.162 A 
ATOM     23  C   UNL     1      47.512  20.551  21.244  0.00  0.00    +0.231 C 
ATOM     24  N   UNL     1      47.175  21.965  21.031  0.00  0.00    -0.512 N 
ATOM     25  H   UNL     1      47.378  22.496  21.887  0.00  0.00    +0.435 HD
ATOM     26  H   UNL     1      47.737  22.336  20.257  0.00  0.00    +0.432 HD
ATOM     27  C   UNL     1      45.744  22.095  20.703  0.00  0.00    +0.174 C 
ATOM     28  C   UNL     1      45.342  23.572  20.753  0.00  0.00    +0.094 C 
ATOM     29  C   UNL     1      49.027  20.416  21.406  0.00  0.00    +0.102 C 
ATOM     30  C   UNL     1      45.516  21.549  19.293  0.00  0.00    +0.133 C 
ATOM     31  C   UNL     1      47.610  18.448  19.918  0.00  0.00    +0.153 A 
ENDROOT
BRANCH  16  15
ATOM      1  C   UNL     1      45.804  15.343  19.850  0.00  0.00    +0.091 C 
ATOM      2  C   UNL     1      47.134  15.175  19.161  0.00  0.00    -0.007 A 
ATOM      3  C   UNL     1      47.673  13.904  19.011  0.00  0.00    -0.112 A 
ATOM      4  C   UNL     1      48.887  13.719  18.385  0.00  0.00    +0.192 A 
ATOM      7  C   UNL     1      49.595  14.830  17.888  0.00  0.00    -0.103 A 
ATOM      8  C   UNL     1      49.050  16.128  18.031  0.00  0.00    +0.055 A 
ATOM      9  C   UNL     1      49.759  17.234  17.541  0.00  0.00    -0.043 A 
ATOM     10  C   UNL     1      50.960  17.054  16.923  0.00  0.00    +0.078 A 
ATOM     11  C   UNL     1      51.503  15.782  16.771  0.00  0.00    -0.109 A 
ATOM     12  C   UNL     1      50.838  14.671  17.244  0.00  0.00    +0.175 A 
ATOM     15  C   UNL     1      47.803  16.289  18.685  0.00  0.00    -0.104 A 
BRANCH   4   5
ATOM      5  O   UNL     1      49.398  12.468  18.247  0.00  0.00    -0.286 OA
ATOM      6  C   UNL     1      48.503  11.448  17.798  0.00  0.00    +0.245 C 
ENDBRANCH   4   5
BRANCH  12  13
ATOM     13  O   UNL     1      51.377  13.435  17.090  0.00  0.00    -0.290 OA
ATOM     14  C   UNL     1      51.582  12.977  15.751  0.00  0.00    +0.245 C 
ENDBRANCH  12  13
ENDBRANCH  16  15
BRANCH  17  18
ATOM     18  O   UNL     1      45.876  17.336  16.895  0.00  0.00    -0.480 OA
ATOM     19  H   UNL     1      44.993  16.958  16.997  0.00  0.00    +0.401 HD
ENDBRANCH  17  18
BRANCH  31  32
ATOM     32  O   UNL     1      48.531  17.996  20.809  0.00  0.00    -0.321 OA
ATOM     33  C   UNL     1      48.042  17.257  21.929  0.00  0.00    +0.235 C 
ENDBRANCH  31  32
TORSDOF 5
ENDMDL
MODEL 9
REMARK VINA RESULT:      -4.9      3.447      5.754
REMARK  Name = ZINC13359041
REMARK  11 active torsions:
REMARK  status: ('A' for Active; 'I' for Inactive)
REMARK    1  A    between atoms: C1_1  and  C2_2
REMARK    2  A    between atoms: C4_4  and  O4_30
REMARK    3  A    between atoms: C7_7  and  C8_8
REMARK    4  A    between atoms: C9_9  and  O2_23
REMARK    5  A    between atoms: C13_13  and  O1_14
REMARK    6  A    between atoms: O1_14  and  C14_15
REMARK    7  A    between atoms: C15_16  and  C19_22
REMARK    8  A    between atoms: C16_18  and  C18_21
REMARK    9  A    between atoms: C23_27  and  O3_28
REMARK   10  A    between atoms: O3_28  and  C24_29
REMARK   11  A    between atoms: O4_30  and  C25_31
REMARK                            x       y       z     vdW  Elec       q    Type
REMARK                         _______ _______ _______ _____ _____    ______ ____
ROOT
ATOM     16  C   UNL     1      47.724  17.789  18.427  0.00  0.00    -0.053 A 
ATOM     17  C   UNL     1      46.587  18.109  17.677  0.00  0.00    +0.164 A 
ATOM     20  C   UNL     1      45.845  19.229  18.005  0.00  0.00    +0.004 A 
ATOM     21  C   UNL     1      46.219  20.038  19.069  0.00  0.00    -0.059 A 
ATOM     22  C   UNL     1      47.336  19.728  19.817  0.00  0.00    -0.162 A 
ATOM     23  C   UNL     1      47.773  20.575  20.983  0.00  0.00    +0.231 C 
ATOM     24  N   UNL     1      47.144  21.902  20.922  0.00  0.00    -0.512 N 
ATOM     25  H   UNL     1      47.355  22.418  21.785  0.00  0.00    +0.435 HD
ATOM     26  H   UNL     1      47.515  22.417  20.116  0.00  0.00    +0.432 HD
ATOM     27  C   UNL     1      45.684  21.759  20.783  0.00  0.00    +0.174 C 
ATOM     28  C   UNL     1      45.016  23.120  20.996  0.00  0.00    +0.094 C 
ATOM     29  C   UNL     1      49.293  20.739  20.947  0.00  0.00    +0.102 C 
ATOM     30  C   UNL     1      45.377  21.251  19.374  0.00  0.00    +0.133 C 
ATOM     31  C   UNL     1      48.093  18.606  19.498  0.00  0.00    +0.153 A 
ENDROOT
BRANCH  16  15
ATOM      1  C   UNL     1      50.129  18.090  16.881  0.00  0.00    +0.091 C 
ATOM      2  C   UNL     1      49.690  16.725  17.343  0.00  0.00    -0.007 A 
ATOM      3  C   UNL     1      50.455  15.611  17.019  0.00  0.00    -0.112 A 
ATOM      4  C   UNL     1      50.078  14.351  17.429  0.00  0.00    +0.192 A 
ATOM      7  C   UNL     1      48.904  14.182  18.188  0.00  0.00    -0.103 A 
ATOM      8  C   UNL     1      48.122  15.311  18.528  0.00  0.00    +0.055 A 
ATOM      9  C   UNL     1      46.950  15.142  19.278  0.00  0.00    -0.043 A 
ATOM     10  C   UNL     1      46.575  13.895  19.683  0.00  0.00    +0.078 A 
ATOM     11  C   UNL     1      47.339  12.778  19.360  0.00  0.00    -0.109 A 
ATOM     12  C   UNL     1      48.494  12.905  18.620  0.00  0.00    +0.175 A 
ATOM     15  C   UNL     1      48.530  16.595  18.087  0.00  0.00    -0.104 A 
BRANCH   4   5
ATOM      5  O   UNL     1      50.839  13.274  17.103  0.00  0.00    -0.286 OA
ATOM      6  C   UNL     1      51.258  13.164  15.740  0.00  0.00    +0.245 C 
ENDBRANCH   4   5
BRANCH  12  13
ATOM     13  O   UNL     1      49.232  11.808  18.310  0.00  0.00    -0.290 OA
ATOM     14  C   UNL     1      48.517  10.630  17.930  0.00  0.00    +0.245 C 
ENDBRANCH  12  13
ENDBRANCH  16  15
BRANCH  17  18
ATOM     18  O   UNL     1      46.214  17.324  16.633  0.00  0.00    -0.480 OA
ATOM     19  H   UNL     1      46.866  17.281  15.921  0.00  0.00    +0.401 HD
ENDBRANCH  17  18
BRANCH  31  32
ATOM     32  O   UNL     1      49.195  18.302  20.232  0.00  0.00    -0.321 OA
ATOM     33  C   UNL     1      49.020  17.396  21.322  0.00  0.00    +0.235 C 
ENDBRANCH  31  32
TORSDOF 5
ENDMDL
