MODEL 1
REMARK VINA RESULT:      -7.6      0.000      0.000
REMARK  Name = ZINC13411589
REMARK  2 active torsions:
REMARK  status: ('A' for Active; 'I' for Inactive)
REMARK    1  A    between atoms: C1_1  and  N1_2
REMARK    2  A    between atoms: C8_9  and  N3_19
REMARK                            x       y       z     vdW  Elec       q    Type
REMARK                         _______ _______ _______ _____ _____    ______ ____
ROOT
ATOM      1  C   UNL     1      54.301  16.553  20.063  0.00  0.00    +0.337 C 
ATOM      2  N   UNL     1      53.299  15.902  19.215  0.00  0.00    -0.400 N 
ATOM      3  C   UNL     1      53.213  14.532  19.198  0.00  0.00    +0.174 A 
ATOM      4  C   UNL     1      54.073  13.761  19.981  0.00  0.00    -0.016 A 
ATOM      5  C   UNL     1      53.976  12.388  19.953  0.00  0.00    +0.095 A 
ATOM      6  C   UNL     1      53.030  11.759  19.153  0.00  0.00    +0.009 A 
ATOM      7  C   UNL     1      52.177  12.490  18.379  0.00  0.00    +0.083 A 
ATOM      8  C   UNL     1      52.254  13.891  18.388  0.00  0.00    -0.096 A 
ATOM      9  C   UNL     1      51.377  14.668  17.591  0.00  0.00    +0.257 A 
ATOM     27  C   UNL     1      51.486  16.073  17.620  0.00  0.00    +0.086 A 
ATOM     28  N   UNL     1      50.796  17.030  16.971  0.00  0.00    -0.525 NA
ATOM     29  C   UNL     1      51.241  18.241  17.303  0.00  0.00    +0.190 A 
ATOM     30  C   UNL     1      50.886  19.549  16.930  0.00  0.00    +0.005 A 
ATOM     31  C   UNL     1      51.554  20.607  17.465  0.00  0.00    +0.062 A 
ATOM     32  C   UNL     1      52.588  20.433  18.381  0.00  0.00    -0.049 A 
ATOM     33  C   UNL     1      52.980  19.191  18.783  0.00  0.00    +0.070 A 
ATOM     34  C   UNL     1      52.327  18.062  18.274  0.00  0.00    -0.228 A 
ATOM     35  C   UNL     1      52.458  16.672  18.448  0.00  0.00    +0.138 A 
ENDROOT
BRANCH   9  10
ATOM     10  N   UNL     1      50.436  14.058  16.795  0.00  0.00    -0.468 N 
ATOM     11  C   UNL     1      50.649  13.643  15.488  0.00  0.00    +0.176 A 
ATOM     12  C   UNL     1      51.766  13.702  14.661  0.00  0.00    -0.019 A 
ATOM     13  C   UNL     1      51.699  13.209  13.376  0.00  0.00    +0.067 A 
ATOM     14  C   UNL     1      50.529  12.640  12.898  0.00  0.00    -0.016 A 
ATOM     15  C   UNL     1      49.413  12.568  13.705  0.00  0.00    +0.099 A 
ATOM     16  C   UNL     1      49.465  13.067  15.004  0.00  0.00    -0.101 A 
ATOM     17  C   UNL     1      48.475  13.144  16.099  0.00  0.00    +0.166 A 
ATOM     18  N   UNL     1      47.217  12.758  16.193  0.00  0.00    -0.434 NA
ATOM     19  C   UNL     1      46.513  12.939  17.312  0.00  0.00    +0.122 A 
ATOM     20  C   UNL     1      45.171  12.522  17.395  0.00  0.00    +0.055 A 
ATOM     21  C   UNL     1      44.472  12.718  18.546  0.00  0.00    +0.023 A 
ATOM     22  C   UNL     1      45.063  13.326  19.651  0.00  0.00    +0.022 A 
ATOM     23  C   UNL     1      46.358  13.743  19.611  0.00  0.00    +0.025 A 
ATOM     24  C   UNL     1      47.112  13.558  18.440  0.00  0.00    -0.066 A 
ATOM     25  C   UNL     1      48.452  13.978  18.364  0.00  0.00    +0.048 A 
ATOM     26  C   UNL     1      49.135  13.767  17.183  0.00  0.00    +0.110 A 
ENDBRANCH   9  10
TORSDOF 1
ENDMDL
MODEL 2
REMARK VINA RESULT:      -7.4      2.227      5.235
REMARK  Name = ZINC13411589
REMARK  2 active torsions:
REMARK  status: ('A' for Active; 'I' for Inactive)
REMARK    1  A    between atoms: C1_1  and  N1_2
REMARK    2  A    between atoms: C8_9  and  N3_19
REMARK                            x       y       z     vdW  Elec       q    Type
REMARK                         _______ _______ _______ _____ _____    ______ ____
ROOT
ATOM      1  C   UNL     1      48.573  19.800  20.049  0.00  0.00    +0.337 C 
ATOM      2  N   UNL     1      48.971  18.483  19.546  0.00  0.00    -0.400 N 
ATOM      3  C   UNL     1      48.463  17.352  20.135  0.00  0.00    +0.174 A 
ATOM      4  C   UNL     1      47.575  17.451  21.207  0.00  0.00    -0.016 A 
ATOM      5  C   UNL     1      47.075  16.309  21.788  0.00  0.00    +0.095 A 
ATOM      6  C   UNL     1      47.445  15.053  21.321  0.00  0.00    +0.009 A 
ATOM      7  C   UNL     1      48.310  14.929  20.274  0.00  0.00    +0.083 A 
ATOM      8  C   UNL     1      48.836  16.077  19.663  0.00  0.00    -0.096 A 
ATOM      9  C   UNL     1      49.737  15.968  18.574  0.00  0.00    +0.257 A 
ATOM     27  C   UNL     1      50.250  17.142  17.987  0.00  0.00    +0.086 A 
ATOM     28  N   UNL     1      51.107  17.322  16.965  0.00  0.00    -0.525 NA
ATOM     29  C   UNL     1      51.315  18.619  16.745  0.00  0.00    +0.190 A 
ATOM     30  C   UNL     1      52.098  19.341  15.826  0.00  0.00    +0.005 A 
ATOM     31  C   UNL     1      52.093  20.702  15.861  0.00  0.00    +0.062 A 
ATOM     32  C   UNL     1      51.330  21.408  16.787  0.00  0.00    -0.049 A 
ATOM     33  C   UNL     1      50.551  20.767  17.704  0.00  0.00    +0.070 A 
ATOM     34  C   UNL     1      50.507  19.367  17.715  0.00  0.00    -0.228 A 
ATOM     35  C   UNL     1      49.846  18.397  18.490  0.00  0.00    +0.138 A 
ENDROOT
BRANCH   9  10
ATOM     10  N   UNL     1      50.110  14.731  18.101  0.00  0.00    -0.468 N 
ATOM     11  C   UNL     1      49.387  13.979  17.188  0.00  0.00    +0.176 A 
ATOM     12  C   UNL     1      48.185  14.215  16.527  0.00  0.00    -0.019 A 
ATOM     13  C   UNL     1      47.680  13.275  15.656  0.00  0.00    +0.067 A 
ATOM     14  C   UNL     1      48.364  12.092  15.419  0.00  0.00    -0.016 A 
ATOM     15  C   UNL     1      49.559  11.843  16.061  0.00  0.00    +0.099 A 
ATOM     16  C   UNL     1      50.078  12.783  16.948  0.00  0.00    -0.101 A 
ATOM     17  C   UNL     1      51.301  12.824  17.776  0.00  0.00    +0.166 A 
ATOM     18  N   UNL     1      52.298  11.975  17.939  0.00  0.00    -0.434 NA
ATOM     19  C   UNL     1      53.314  12.241  18.762  0.00  0.00    +0.122 A 
ATOM     20  C   UNL     1      54.369  11.323  18.923  0.00  0.00    +0.055 A 
ATOM     21  C   UNL     1      55.394  11.614  19.769  0.00  0.00    +0.023 A 
ATOM     22  C   UNL     1      55.421  12.811  20.482  0.00  0.00    +0.022 A 
ATOM     23  C   UNL     1      54.420  13.724  20.353  0.00  0.00    +0.025 A 
ATOM     24  C   UNL     1      53.344  13.458  19.489  0.00  0.00    -0.066 A 
ATOM     25  C   UNL     1      52.292  14.379  19.333  0.00  0.00    +0.048 A 
ATOM     26  C   UNL     1      51.265  14.055  18.469  0.00  0.00    +0.110 A 
ENDBRANCH   9  10
TORSDOF 1
ENDMDL
MODEL 3
REMARK VINA RESULT:      -7.4      2.238      7.149
REMARK  Name = ZINC13411589
REMARK  2 active torsions:
REMARK  status: ('A' for Active; 'I' for Inactive)
REMARK    1  A    between atoms: C1_1  and  N1_2
REMARK    2  A    between atoms: C8_9  and  N3_19
REMARK                            x       y       z     vdW  Elec       q    Type
REMARK                         _______ _______ _______ _____ _____    ______ ____
ROOT
ATOM      1  C   UNL     1      50.995  10.588  16.530  0.00  0.00    +0.337 C 
ATOM      2  N   UNL     1      50.663  11.881  17.132  0.00  0.00    -0.400 N 
ATOM      3  C   UNL     1      49.458  12.473  16.842  0.00  0.00    +0.174 A 
ATOM      4  C   UNL     1      48.555  11.851  15.980  0.00  0.00    -0.016 A 
ATOM      5  C   UNL     1      47.352  12.456  15.698  0.00  0.00    +0.095 A 
ATOM      6  C   UNL     1      47.025  13.683  16.262  0.00  0.00    +0.009 A 
ATOM      7  C   UNL     1      47.890  14.312  17.108  0.00  0.00    +0.083 A 
ATOM      8  C   UNL     1      49.124  13.717  17.413  0.00  0.00    -0.096 A 
ATOM      9  C   UNL     1      50.036  14.356  18.290  0.00  0.00    +0.257 A 
ATOM     27  C   UNL     1      51.268  13.733  18.570  0.00  0.00    +0.086 A 
ATOM     28  N   UNL     1      52.299  14.114  19.348  0.00  0.00    -0.525 NA
ATOM     29  C   UNL     1      53.274  13.207  19.319  0.00  0.00    +0.190 A 
ATOM     30  C   UNL     1      54.536  13.109  19.931  0.00  0.00    +0.005 A 
ATOM     31  C   UNL     1      55.318  12.021  19.693  0.00  0.00    +0.062 A 
ATOM     32  C   UNL     1      54.903  10.991  18.852  0.00  0.00    -0.049 A 
ATOM     33  C   UNL     1      53.691  11.026  18.230  0.00  0.00    +0.070 A 
ATOM     34  C   UNL     1      52.837  12.116  18.441  0.00  0.00    -0.228 A 
ATOM     35  C   UNL     1      51.560  12.485  17.979  0.00  0.00    +0.138 A 
ENDROOT
BRANCH   9  10
ATOM     10  N   UNL     1      49.724  15.570  18.855  0.00  0.00    -0.468 N 
ATOM     11  C   UNL     1      48.962  15.740  20.002  0.00  0.00    +0.176 A 
ATOM     12  C   UNL     1      48.344  14.832  20.855  0.00  0.00    -0.019 A 
ATOM     13  C   UNL     1      47.630  15.283  21.944  0.00  0.00    +0.067 A 
ATOM     14  C   UNL     1      47.529  16.640  22.208  0.00  0.00    -0.016 A 
ATOM     15  C   UNL     1      48.139  17.555  21.377  0.00  0.00    +0.099 A 
ATOM     16  C   UNL     1      48.859  17.113  20.270  0.00  0.00    -0.101 A 
ATOM     17  C   UNL     1      49.612  17.812  19.208  0.00  0.00    +0.166 A 
ATOM     18  N   UNL     1      49.844  19.089  18.971  0.00  0.00    -0.434 NA
ATOM     19  C   UNL     1      50.570  19.484  17.924  0.00  0.00    +0.122 A 
ATOM     20  C   UNL     1      50.806  20.852  17.686  0.00  0.00    +0.055 A 
ATOM     21  C   UNL     1      51.549  21.232  16.611  0.00  0.00    +0.023 A 
ATOM     22  C   UNL     1      52.084  20.289  15.736  0.00  0.00    +0.022 A 
ATOM     23  C   UNL     1      51.878  18.957  15.932  0.00  0.00    +0.025 A 
ATOM     24  C   UNL     1      51.117  18.527  17.031  0.00  0.00    -0.066 A 
ATOM     25  C   UNL     1      50.883  17.159  17.263  0.00  0.00    +0.048 A 
ATOM     26  C   UNL     1      50.125  16.804  18.361  0.00  0.00    +0.110 A 
ENDBRANCH   9  10
TORSDOF 1
ENDMDL
MODEL 4
REMARK VINA RESULT:      -7.3      3.987      7.814
REMARK  Name = ZINC13411589
REMARK  2 active torsions:
REMARK  status: ('A' for Active; 'I' for Inactive)
REMARK    1  A    between atoms: C1_1  and  N1_2
REMARK    2  A    between atoms: C8_9  and  N3_19
REMARK                            x       y       z     vdW  Elec       q    Type
REMARK                         _______ _______ _______ _____ _____    ______ ____
ROOT
ATOM      1  C   UNL     1      51.159  15.222  16.362  0.00  0.00    +0.337 C 
ATOM      2  N   UNL     1      50.784  16.335  17.237  0.00  0.00    -0.400 N 
ATOM      3  C   UNL     1      51.135  17.617  16.890  0.00  0.00    +0.174 A 
ATOM      4  C   UNL     1      51.844  17.861  15.714  0.00  0.00    -0.016 A 
ATOM      5  C   UNL     1      52.190  19.150  15.380  0.00  0.00    +0.095 A 
ATOM      6  C   UNL     1      51.840  20.215  16.201  0.00  0.00    +0.009 A 
ATOM      7  C   UNL     1      51.146  20.003  17.356  0.00  0.00    +0.083 A 
ATOM      8  C   UNL     1      50.781  18.698  17.721  0.00  0.00    -0.096 A 
ATOM      9  C   UNL     1      50.060  18.459  18.917  0.00  0.00    +0.257 A 
ATOM     27  C   UNL     1      49.714  17.135  19.257  0.00  0.00    +0.086 A 
ATOM     28  N   UNL     1      49.049  16.634  20.315  0.00  0.00    -0.525 NA
ATOM     29  C   UNL     1      48.949  15.309  20.227  0.00  0.00    +0.190 A 
ATOM     30  C   UNL     1      48.370  14.317  21.038  0.00  0.00    +0.005 A 
ATOM     31  C   UNL     1      48.439  13.012  20.658  0.00  0.00    +0.062 A 
ATOM     32  C   UNL     1      49.071  12.625  19.479  0.00  0.00    -0.049 A 
ATOM     33  C   UNL     1      49.651  13.538  18.650  0.00  0.00    +0.070 A 
ATOM     34  C   UNL     1      49.607  14.898  18.981  0.00  0.00    -0.228 A 
ATOM     35  C   UNL     1      50.085  16.083  18.393  0.00  0.00    +0.138 A 
ENDROOT
BRANCH   9  10
ATOM     10  N   UNL     1      49.707  19.504  19.739  0.00  0.00    -0.468 N 
ATOM     11  C   UNL     1      50.566  20.148  20.618  0.00  0.00    +0.176 A 
ATOM     12  C   UNL     1      51.913  19.964  20.910  0.00  0.00    -0.019 A 
ATOM     13  C   UNL     1      52.531  20.759  21.850  0.00  0.00    +0.067 A 
ATOM     14  C   UNL     1      51.824  21.756  22.505  0.00  0.00    -0.016 A 
ATOM     15  C   UNL     1      50.489  21.957  22.225  0.00  0.00    +0.099 A 
ATOM     16  C   UNL     1      49.852  21.156  21.281  0.00  0.00    -0.101 A 
ATOM     17  C   UNL     1      48.469  21.111  20.761  0.00  0.00    +0.166 A 
ATOM     18  N   UNL     1      47.391  21.822  21.030  0.00  0.00    -0.434 NA
ATOM     19  C   UNL     1      46.229  21.589  20.417  0.00  0.00    +0.122 A 
ATOM     20  C   UNL     1      45.088  22.358  20.717  0.00  0.00    +0.055 A 
ATOM     21  C   UNL     1      43.914  22.100  20.080  0.00  0.00    +0.023 A 
ATOM     22  C   UNL     1      43.817  21.086  19.131  0.00  0.00    +0.022 A 
ATOM     23  C   UNL     1      44.897  20.320  18.813  0.00  0.00    +0.025 A 
ATOM     24  C   UNL     1      46.127  20.556  19.449  0.00  0.00    -0.066 A 
ATOM     25  C   UNL     1      47.263  19.784  19.146  0.00  0.00    +0.048 A 
ATOM     26  C   UNL     1      48.441  20.067  19.809  0.00  0.00    +0.110 A 
ENDBRANCH   9  10
TORSDOF 1
ENDMDL
MODEL 5
REMARK VINA RESULT:      -7.3      0.939      4.261
REMARK  Name = ZINC13411589
REMARK  2 active torsions:
REMARK  status: ('A' for Active; 'I' for Inactive)
REMARK    1  A    between atoms: C1_1  and  N1_2
REMARK    2  A    between atoms: C8_9  and  N3_19
REMARK                            x       y       z     vdW  Elec       q    Type
REMARK                         _______ _______ _______ _____ _____    ______ ____
ROOT
ATOM      1  C   UNL     1      54.701  15.904  20.227  0.00  0.00    +0.337 C 
ATOM      2  N   UNL     1      53.629  15.397  19.366  0.00  0.00    -0.400 N 
ATOM      3  C   UNL     1      52.795  16.284  18.730  0.00  0.00    +0.174 A 
ATOM      4  C   UNL     1      52.964  17.658  18.900  0.00  0.00    -0.016 A 
ATOM      5  C   UNL     1      52.120  18.535  18.257  0.00  0.00    +0.095 A 
ATOM      6  C   UNL     1      51.099  18.067  17.439  0.00  0.00    +0.009 A 
ATOM      7  C   UNL     1      50.914  16.728  17.256  0.00  0.00    +0.083 A 
ATOM      8  C   UNL     1      51.760  15.812  17.899  0.00  0.00    -0.096 A 
ATOM      9  C   UNL     1      51.582  14.417  17.721  0.00  0.00    +0.257 A 
ATOM     27  C   UNL     1      52.446  13.525  18.387  0.00  0.00    +0.086 A 
ATOM     28  N   UNL     1      52.497  12.179  18.397  0.00  0.00    -0.525 NA
ATOM     29  C   UNL     1      53.488  11.750  19.175  0.00  0.00    +0.190 A 
ATOM     30  C   UNL     1      53.971  10.477  19.531  0.00  0.00    +0.005 A 
ATOM     31  C   UNL     1      55.035  10.371  20.372  0.00  0.00    +0.062 A 
ATOM     32  C   UNL     1      55.668  11.495  20.897  0.00  0.00    -0.049 A 
ATOM     33  C   UNL     1      55.249  12.755  20.592  0.00  0.00    +0.070 A 
ATOM     34  C   UNL     1      54.163  12.931  19.725  0.00  0.00    -0.228 A 
ATOM     35  C   UNL     1      53.472  14.041  19.206  0.00  0.00    +0.138 A 
ENDROOT
BRANCH   9  10
ATOM     10  N   UNL     1      50.576  13.942  16.913  0.00  0.00    -0.468 N 
ATOM     11  C   UNL     1      50.720  13.617  15.572  0.00  0.00    +0.176 A 
ATOM     12  C   UNL     1      51.815  13.660  14.714  0.00  0.00    -0.019 A 
ATOM     13  C   UNL     1      51.676  13.276  13.397  0.00  0.00    +0.067 A 
ATOM     14  C   UNL     1      50.453  12.833  12.917  0.00  0.00    -0.016 A 
ATOM     15  C   UNL     1      49.358  12.778  13.754  0.00  0.00    +0.099 A 
ATOM     16  C   UNL     1      49.484  13.169  15.085  0.00  0.00    -0.101 A 
ATOM     17  C   UNL     1      48.534  13.229  16.215  0.00  0.00    +0.166 A 
ATOM     18  N   UNL     1      47.254  12.929  16.322  0.00  0.00    -0.434 NA
ATOM     19  C   UNL     1      46.597  13.072  17.474  0.00  0.00    +0.122 A 
ATOM     20  C   UNL     1      45.230  12.747  17.570  0.00  0.00    +0.055 A 
ATOM     21  C   UNL     1      44.580  12.902  18.756  0.00  0.00    +0.023 A 
ATOM     22  C   UNL     1      45.245  13.376  19.884  0.00  0.00    +0.022 A 
ATOM     23  C   UNL     1      46.566  13.701  19.833  0.00  0.00    +0.025 A 
ATOM     24  C   UNL     1      47.271  13.554  18.626  0.00  0.00    -0.066 A 
ATOM     25  C   UNL     1      48.636  13.881  18.537  0.00  0.00    +0.048 A 
ATOM     26  C   UNL     1      49.268  13.716  17.320  0.00  0.00    +0.110 A 
ENDBRANCH   9  10
TORSDOF 1
ENDMDL
MODEL 6
REMARK VINA RESULT:      -7.0      1.836      6.408
REMARK  Name = ZINC13411589
REMARK  2 active torsions:
REMARK  status: ('A' for Active; 'I' for Inactive)
REMARK    1  A    between atoms: C1_1  and  N1_2
REMARK    2  A    between atoms: C8_9  and  N3_19
REMARK                            x       y       z     vdW  Elec       q    Type
REMARK                         _______ _______ _______ _____ _____    ______ ____
ROOT
ATOM      1  C   UNL     1      53.032  10.687  17.710  0.00  0.00    +0.337 C 
ATOM      2  N   UNL     1      52.126  11.815  17.941  0.00  0.00    -0.400 N 
ATOM      3  C   UNL     1      52.010  12.342  19.204  0.00  0.00    +0.174 A 
ATOM      4  C   UNL     1      52.747  11.809  20.262  0.00  0.00    -0.016 A 
ATOM      5  C   UNL     1      52.621  12.347  21.522  0.00  0.00    +0.095 A 
ATOM      6  C   UNL     1      51.765  13.417  21.755  0.00  0.00    +0.009 A 
ATOM      7  C   UNL     1      51.034  13.956  20.738  0.00  0.00    +0.083 A 
ATOM      8  C   UNL     1      51.144  13.427  19.443  0.00  0.00    -0.096 A 
ATOM      9  C   UNL     1      50.392  13.974  18.373  0.00  0.00    +0.257 A 
ATOM     27  C   UNL     1      50.522  13.415  17.086  0.00  0.00    +0.086 A 
ATOM     28  N   UNL     1      49.935  13.731  15.916  0.00  0.00    -0.525 NA
ATOM     29  C   UNL     1      50.358  12.928  14.942  0.00  0.00    +0.190 A 
ATOM     30  C   UNL     1      50.074  12.824  13.569  0.00  0.00    +0.005 A 
ATOM     31  C   UNL     1      50.693  11.868  12.824  0.00  0.00    +0.062 A 
ATOM     32  C   UNL     1      51.608  10.981  13.385  0.00  0.00    -0.049 A 
ATOM     33  C   UNL     1      51.926  11.029  14.709  0.00  0.00    +0.070 A 
ATOM     34  C   UNL     1      51.329  11.996  15.528  0.00  0.00    -0.228 A 
ATOM     35  C   UNL     1      51.405  12.331  16.892  0.00  0.00    +0.138 A 
ENDROOT
BRANCH   9  10
ATOM     10  N   UNL     1      49.542  15.033  18.590  0.00  0.00    -0.468 N 
ATOM     11  C   UNL     1      48.200  14.920  18.922  0.00  0.00    +0.176 A 
ATOM     12  C   UNL     1      47.379  13.815  19.125  0.00  0.00    -0.019 A 
ATOM     13  C   UNL     1      46.051  13.992  19.449  0.00  0.00    +0.067 A 
ATOM     14  C   UNL     1      45.522  15.266  19.588  0.00  0.00    -0.016 A 
ATOM     15  C   UNL     1      46.322  16.373  19.396  0.00  0.00    +0.099 A 
ATOM     16  C   UNL     1      47.664  16.208  19.062  0.00  0.00    -0.101 A 
ATOM     17  C   UNL     1      48.764  17.159  18.796  0.00  0.00    +0.166 A 
ATOM     18  N   UNL     1      48.823  18.477  18.789  0.00  0.00    -0.434 NA
ATOM     19  C   UNL     1      49.957  19.123  18.512  0.00  0.00    +0.122 A 
ATOM     20  C   UNL     1      50.001  20.531  18.509  0.00  0.00    +0.055 A 
ATOM     21  C   UNL     1      51.168  21.169  18.222  0.00  0.00    +0.023 A 
ATOM     22  C   UNL     1      52.327  20.453  17.930  0.00  0.00    +0.022 A 
ATOM     23  C   UNL     1      52.325  19.092  17.923  0.00  0.00    +0.025 A 
ATOM     24  C   UNL     1      51.139  18.398  18.215  0.00  0.00    -0.066 A 
ATOM     25  C   UNL     1      51.101  16.991  18.215  0.00  0.00    +0.048 A 
ATOM     26  C   UNL     1      49.903  16.372  18.509  0.00  0.00    +0.110 A 
ENDBRANCH   9  10
TORSDOF 1
ENDMDL
MODEL 7
REMARK VINA RESULT:      -7.0      2.292      4.625
REMARK  Name = ZINC13411589
REMARK  2 active torsions:
REMARK  status: ('A' for Active; 'I' for Inactive)
REMARK    1  A    between atoms: C1_1  and  N1_2
REMARK    2  A    between atoms: C8_9  and  N3_19
REMARK                            x       y       z     vdW  Elec       q    Type
REMARK                         _______ _______ _______ _____ _____    ______ ____
ROOT
ATOM      1  C   UNL     1      48.713  19.693  20.447  0.00  0.00    +0.337 C 
ATOM      2  N   UNL     1      49.339  18.429  20.050  0.00  0.00    -0.400 N 
ATOM      3  C   UNL     1      49.045  17.281  20.743  0.00  0.00    +0.174 A 
ATOM      4  C   UNL     1      48.158  17.313  21.820  0.00  0.00    -0.016 A 
ATOM      5  C   UNL     1      47.873  16.155  22.505  0.00  0.00    +0.095 A 
ATOM      6  C   UNL     1      48.460  14.950  22.139  0.00  0.00    +0.009 A 
ATOM      7  C   UNL     1      49.331  14.892  21.091  0.00  0.00    +0.083 A 
ATOM      8  C   UNL     1      49.639  16.058  20.374  0.00  0.00    -0.096 A 
ATOM      9  C   UNL     1      50.541  16.017  19.281  0.00  0.00    +0.257 A 
ATOM     27  C   UNL     1      50.832  17.208  18.587  0.00  0.00    +0.086 A 
ATOM     28  N   UNL     1      51.640  17.448  17.536  0.00  0.00    -0.525 NA
ATOM     29  C   UNL     1      51.611  18.737  17.203  0.00  0.00    +0.190 A 
ATOM     30  C   UNL     1      52.247  19.505  16.211  0.00  0.00    +0.005 A 
ATOM     31  C   UNL     1      51.998  20.841  16.130  0.00  0.00    +0.062 A 
ATOM     32  C   UNL     1      51.124  21.477  17.008  0.00  0.00    -0.049 A 
ATOM     33  C   UNL     1      50.476  20.790  17.990  0.00  0.00    +0.070 A 
ATOM     34  C   UNL     1      50.684  19.411  18.121  0.00  0.00    -0.228 A 
ATOM     35  C   UNL     1      50.212  18.409  18.989  0.00  0.00    +0.138 A 
ENDROOT
BRANCH   9  10
ATOM     10  N   UNL     1      51.128  14.830  18.908  0.00  0.00    -0.468 N 
ATOM     11  C   UNL     1      52.356  14.374  19.364  0.00  0.00    +0.176 A 
ATOM     12  C   UNL     1      53.280  14.912  20.254  0.00  0.00    -0.019 A 
ATOM     13  C   UNL     1      54.448  14.235  20.531  0.00  0.00    +0.067 A 
ATOM     14  C   UNL     1      54.710  13.009  19.939  0.00  0.00    -0.016 A 
ATOM     15  C   UNL     1      53.803  12.457  19.058  0.00  0.00    +0.099 A 
ATOM     16  C   UNL     1      52.622  13.134  18.766  0.00  0.00    -0.101 A 
ATOM     17  C   UNL     1      51.471  12.828  17.890  0.00  0.00    +0.166 A 
ATOM     18  N   UNL     1      51.196  11.806  17.102  0.00  0.00    -0.434 NA
ATOM     19  C   UNL     1      50.067  11.755  16.394  0.00  0.00    +0.122 A 
ATOM     20  C   UNL     1      49.790  10.657  15.557  0.00  0.00    +0.055 A 
ATOM     21  C   UNL     1      48.632  10.627  14.843  0.00  0.00    +0.023 A 
ATOM     22  C   UNL     1      47.708  11.666  14.926  0.00  0.00    +0.022 A 
ATOM     23  C   UNL     1      47.939  12.745  15.724  0.00  0.00    +0.025 A 
ATOM     24  C   UNL     1      49.124  12.812  16.476  0.00  0.00    -0.066 A 
ATOM     25  C   UNL     1      49.395  13.912  17.310  0.00  0.00    +0.048 A 
ATOM     26  C   UNL     1      50.578  13.916  18.020  0.00  0.00    +0.110 A 
ENDBRANCH   9  10
TORSDOF 1
ENDMDL
MODEL 8
REMARK VINA RESULT:      -7.0      1.980      5.524
REMARK  Name = ZINC13411589
REMARK  2 active torsions:
REMARK  status: ('A' for Active; 'I' for Inactive)
REMARK    1  A    between atoms: C1_1  and  N1_2
REMARK    2  A    between atoms: C8_9  and  N3_19
REMARK                            x       y       z     vdW  Elec       q    Type
REMARK                         _______ _______ _______ _____ _____    ______ ____
ROOT
ATOM      1  C   UNL     1      47.155  18.939  18.968  0.00  0.00    +0.337 C 
ATOM      2  N   UNL     1      47.982  17.732  18.896  0.00  0.00    -0.400 N 
ATOM      3  C   UNL     1      47.401  16.502  19.076  0.00  0.00    +0.174 A 
ATOM      4  C   UNL     1      46.033  16.397  19.326  0.00  0.00    -0.016 A 
ATOM      5  C   UNL     1      45.464  15.157  19.505  0.00  0.00    +0.095 A 
ATOM      6  C   UNL     1      46.237  14.004  19.439  0.00  0.00    +0.009 A 
ATOM      7  C   UNL     1      47.577  14.080  19.196  0.00  0.00    +0.083 A 
ATOM      8  C   UNL     1      48.183  15.331  19.009  0.00  0.00    -0.096 A 
ATOM      9  C   UNL     1      49.574  15.429  18.755  0.00  0.00    +0.257 A 
ATOM     27  C   UNL     1      50.151  16.703  18.579  0.00  0.00    +0.086 A 
ATOM     28  N   UNL     1      51.422  17.076  18.334  0.00  0.00    -0.525 NA
ATOM     29  C   UNL     1      51.515  18.401  18.239  0.00  0.00    +0.190 A 
ATOM     30  C   UNL     1      52.578  19.291  18.001  0.00  0.00    +0.005 A 
ATOM     31  C   UNL     1      52.339  20.630  17.962  0.00  0.00    +0.062 A 
ATOM     32  C   UNL     1      51.062  21.152  18.153  0.00  0.00    -0.049 A 
ATOM     33  C   UNL     1      49.991  20.343  18.388  0.00  0.00    +0.070 A 
ATOM     34  C   UNL     1      50.170  18.955  18.432  0.00  0.00    -0.228 A 
ATOM     35  C   UNL     1      49.330  17.848  18.649  0.00  0.00    +0.138 A 
ENDROOT
BRANCH   9  10
ATOM     10  N   UNL     1      50.350  14.296  18.688  0.00  0.00    -0.468 N 
ATOM     11  C   UNL     1      51.009  13.719  19.764  0.00  0.00    +0.176 A 
ATOM     12  C   UNL     1      51.077  14.064  21.110  0.00  0.00    -0.019 A 
ATOM     13  C   UNL     1      51.825  13.300  21.981  0.00  0.00    +0.067 A 
ATOM     14  C   UNL     1      52.503  12.178  21.531  0.00  0.00    -0.016 A 
ATOM     15  C   UNL     1      52.442  11.817  20.201  0.00  0.00    +0.099 A 
ATOM     16  C   UNL     1      51.695  12.584  19.310  0.00  0.00    -0.101 A 
ATOM     17  C   UNL     1      51.429  12.475  17.860  0.00  0.00    +0.166 A 
ATOM     18  N   UNL     1      51.818  11.610  16.943  0.00  0.00    -0.434 NA
ATOM     19  C   UNL     1      51.438  11.724  15.670  0.00  0.00    +0.122 A 
ATOM     20  C   UNL     1      51.863  10.792  14.704  0.00  0.00    +0.055 A 
ATOM     21  C   UNL     1      51.464  10.929  13.411  0.00  0.00    +0.023 A 
ATOM     22  C   UNL     1      50.636  11.980  13.021  0.00  0.00    +0.022 A 
ATOM     23  C   UNL     1      50.204  12.901  13.924  0.00  0.00    +0.025 A 
ATOM     24  C   UNL     1      50.595  12.793  15.269  0.00  0.00    -0.066 A 
ATOM     25  C   UNL     1      50.168  13.728  16.228  0.00  0.00    +0.048 A 
ATOM     26  C   UNL     1      50.590  13.564  17.533  0.00  0.00    +0.110 A 
ENDBRANCH   9  10
TORSDOF 1
ENDMDL
MODEL 9
REMARK VINA RESULT:      -6.9      1.685      5.192
REMARK  Name = ZINC13411589
REMARK  2 active torsions:
REMARK  status: ('A' for Active; 'I' for Inactive)
REMARK    1  A    between atoms: C1_1  and  N1_2
REMARK    2  A    between atoms: C8_9  and  N3_19
REMARK                            x       y       z     vdW  Elec       q    Type
REMARK                         _______ _______ _______ _____ _____    ______ ____
ROOT
ATOM      1  C   UNL     1      47.057  17.919  18.935  0.00  0.00    +0.337 C 
ATOM      2  N   UNL     1      47.955  16.837  18.523  0.00  0.00    -0.400 N 
ATOM      3  C   UNL     1      47.509  15.539  18.549  0.00  0.00    +0.174 A 
ATOM      4  C   UNL     1      46.210  15.248  18.966  0.00  0.00    -0.016 A 
ATOM      5  C   UNL     1      45.776  13.942  18.988  0.00  0.00    +0.095 A 
ATOM      6  C   UNL     1      46.618  12.907  18.599  0.00  0.00    +0.009 A 
ATOM      7  C   UNL     1      47.892  13.166  18.187  0.00  0.00    +0.083 A 
ATOM      8  C   UNL     1      48.360  14.488  18.155  0.00  0.00    -0.096 A 
ATOM      9  C   UNL     1      49.681  14.776  17.729  0.00  0.00    +0.257 A 
ATOM     27  C   UNL     1      50.121  16.115  17.715  0.00  0.00    +0.086 A 
ATOM     28  N   UNL     1      51.303  16.658  17.367  0.00  0.00    -0.525 NA
ATOM     29  C   UNL     1      51.276  17.982  17.510  0.00  0.00    +0.190 A 
ATOM     30  C   UNL     1      52.213  19.007  17.295  0.00  0.00    +0.005 A 
ATOM     31  C   UNL     1      51.866  20.300  17.542  0.00  0.00    +0.062 A 
ATOM     32  C   UNL     1      50.599  20.642  18.005  0.00  0.00    -0.049 A 
ATOM     33  C   UNL     1      49.646  19.695  18.234  0.00  0.00    +0.070 A 
ATOM     34  C   UNL     1      49.939  18.347  17.991  0.00  0.00    -0.228 A 
ATOM     35  C   UNL     1      49.233  17.136  18.114  0.00  0.00    +0.138 A 
ENDROOT
BRANCH   9  10
ATOM     10  N   UNL     1      50.524  13.761  17.342  0.00  0.00    -0.468 N 
ATOM     11  C   UNL     1      50.478  13.114  16.115  0.00  0.00    +0.176 A 
ATOM     12  C   UNL     1      49.654  13.277  15.005  0.00  0.00    -0.019 A 
ATOM     13  C   UNL     1      49.827  12.479  13.895  0.00  0.00    +0.067 A 
ATOM     14  C   UNL     1      50.827  11.518  13.865  0.00  0.00    -0.016 A 
ATOM     15  C   UNL     1      51.656  11.347  14.953  0.00  0.00    +0.099 A 
ATOM     16  C   UNL     1      51.488  12.143  16.084  0.00  0.00    -0.101 A 
ATOM     17  C   UNL     1      52.188  12.214  17.384  0.00  0.00    +0.166 A 
ATOM     18  N   UNL     1      53.203  11.540  17.889  0.00  0.00    -0.434 NA
ATOM     19  C   UNL     1      53.668  11.791  19.114  0.00  0.00    +0.122 A 
ATOM     20  C   UNL     1      54.752  11.061  19.637  0.00  0.00    +0.055 A 
ATOM     21  C   UNL     1      55.208  11.333  20.890  0.00  0.00    +0.023 A 
ATOM     22  C   UNL     1      54.620  12.327  21.669  0.00  0.00    +0.022 A 
ATOM     23  C   UNL     1      53.570  13.055  21.199  0.00  0.00    +0.025 A 
ATOM     24  C   UNL     1      53.072  12.803  19.910  0.00  0.00    -0.066 A 
ATOM     25  C   UNL     1      51.988  13.535  19.394  0.00  0.00    +0.048 A 
ATOM     26  C   UNL     1      51.546  13.235  18.120  0.00  0.00    +0.110 A 
ENDBRANCH   9  10
TORSDOF 1
ENDMDL
