MODEL 1
REMARK VINA RESULT:      -5.6      0.000      0.000
REMARK  Name = ZINC95486213
REMARK  15 active torsions:
REMARK  status: ('A' for Active; 'I' for Inactive)
REMARK    1  A    between atoms: C1_1  and  C2_2
REMARK    2  A    between atoms: C2_2  and  C3_4
REMARK    3  A    between atoms: C2_2  and  O7_27
REMARK    4  A    between atoms: C3_4  and  C4_6
REMARK    5  A    between atoms: C3_4  and  O5_23
REMARK    6  A    between atoms: C4_6  and  C5_8
REMARK    7  A    between atoms: C4_6  and  O3_19
REMARK    8  A    between atoms: C5_8  and  C6_9
REMARK    9  A    between atoms: C7_10  and  C8_11
REMARK   10  A    between atoms: O3_19  and  C13_20
REMARK   11  A    between atoms: C13_20  and  C14_22
REMARK   12  A    between atoms: O5_23  and  C15_24
REMARK   13  A    between atoms: C15_24  and  C16_26
REMARK   14  A    between atoms: O7_27  and  C17_28
REMARK   15  A    between atoms: C17_28  and  C18_30
REMARK                            x       y       z     vdW  Elec       q    Type
REMARK                         _______ _______ _______ _____ _____    ______ ____
ROOT
ATOM     12  C   UNL     1      44.664  19.955  20.064  0.00  0.00    +0.173 C 
ENDROOT
BRANCH  12   7
ATOM      7  C   UNL     1      43.504  18.959  20.003  0.00  0.00    +0.207 C 
BRANCH   7   2
ATOM      1  C   UNL     1      41.214  18.830  20.995  0.00  0.00    +0.051 C 
ATOM      2  C   UNL     1      42.182  19.704  20.195  0.00  0.00    +0.185 C 
BRANCH   2   3
ATOM      3  O   UNL     1      41.612  20.001  18.918  0.00  0.00    -0.329 OA
BRANCH   3   4
ATOM      4  C   UNL     1      41.026  21.199  18.776  0.00  0.00    +0.457 C 
ATOM      5  C   UNL     1      39.555  21.287  18.461  0.00  0.00    +0.159 C 
ATOM      6  O   UNL     1      41.678  22.209  18.900  0.00  0.00    -0.507 OA
ENDBRANCH   3   4
ENDBRANCH   2   3
ENDBRANCH   7   2
BRANCH   7   8
ATOM      8  O   UNL     1      43.656  17.986  21.039  0.00  0.00    -0.333 OA
BRANCH   8   9
ATOM      9  C   UNL     1      44.692  17.138  20.930  0.00  0.00    +0.458 C 
ATOM     10  C   UNL     1      45.664  16.987  22.071  0.00  0.00    +0.167 C 
ATOM     11  O   UNL     1      44.843  16.495  19.918  0.00  0.00    -0.495 OA
ENDBRANCH   8   9
ENDBRANCH   7   8
ENDBRANCH  12   7
BRANCH  12  13
ATOM     13  O   UNL     1      44.208  21.182  20.638  0.00  0.00    -0.323 OA
BRANCH  13  14
ATOM     14  C   UNL     1      44.804  21.582  21.772  0.00  0.00    +0.454 C 
ATOM     15  C   UNL     1      45.735  20.651  22.504  0.00  0.00    +0.158 C 
ATOM     16  O   UNL     1      44.594  22.691  22.206  0.00  0.00    -0.504 OA
ENDBRANCH  13  14
ENDBRANCH  12  13
BRANCH  12  17
ATOM     17  C   UNL     1      45.187  20.216  18.649  0.00  0.00    +0.075 C 
BRANCH  17  18
ATOM     18  C   UNL     1      46.545  20.865  18.728  0.00  0.00    -0.001 C 
ATOM     19  C   UNL     1      47.557  20.208  19.236  0.00  0.00    -0.034 C 
BRANCH  19  20
ATOM     20  C   UNL     1      48.914  20.858  19.314  0.00  0.00    +0.216 C 
ATOM     21  C   UNL     1      49.559  20.537  20.663  0.00  0.00    +0.073 C 
ATOM     22  C   UNL     1      51.009  20.938  20.659  0.00  0.00    +0.072 C 
ATOM     23  C   UNL     1      51.681  21.098  19.523  0.00  0.00    -0.085 C 
ATOM     24  C   UNL     1      50.997  20.888  18.234  0.00  0.00    +0.510 C 
ATOM     25  O   UNL     1      51.527  21.186  17.183  0.00  0.00    -0.450 OA
ATOM     26  O   UNL     1      49.751  20.350  18.264  0.00  0.00    -0.354 OA
ENDBRANCH  19  20
ENDBRANCH  17  18
ENDBRANCH  12  17
TORSDOF 11
ENDMDL
MODEL 2
REMARK VINA RESULT:      -5.5      1.026      3.417
REMARK  Name = ZINC95486213
REMARK  15 active torsions:
REMARK  status: ('A' for Active; 'I' for Inactive)
REMARK    1  A    between atoms: C1_1  and  C2_2
REMARK    2  A    between atoms: C2_2  and  C3_4
REMARK    3  A    between atoms: C2_2  and  O7_27
REMARK    4  A    between atoms: C3_4  and  C4_6
REMARK    5  A    between atoms: C3_4  and  O5_23
REMARK    6  A    between atoms: C4_6  and  C5_8
REMARK    7  A    between atoms: C4_6  and  O3_19
REMARK    8  A    between atoms: C5_8  and  C6_9
REMARK    9  A    between atoms: C7_10  and  C8_11
REMARK   10  A    between atoms: O3_19  and  C13_20
REMARK   11  A    between atoms: C13_20  and  C14_22
REMARK   12  A    between atoms: O5_23  and  C15_24
REMARK   13  A    between atoms: C15_24  and  C16_26
REMARK   14  A    between atoms: O7_27  and  C17_28
REMARK   15  A    between atoms: C17_28  and  C18_30
REMARK                            x       y       z     vdW  Elec       q    Type
REMARK                         _______ _______ _______ _____ _____    ______ ____
ROOT
ATOM     12  C   UNL     1      44.389  20.624  19.987  0.00  0.00    +0.173 C 
ENDROOT
BRANCH  12   7
ATOM      7  C   UNL     1      42.946  20.121  19.915  0.00  0.00    +0.207 C 
BRANCH   7   2
ATOM      1  C   UNL     1      41.658  18.677  21.498  0.00  0.00    +0.051 C 
ATOM      2  C   UNL     1      42.858  18.731  20.550  0.00  0.00    +0.185 C 
BRANCH   2   3
ATOM      3  O   UNL     1      44.057  18.466  21.283  0.00  0.00    -0.329 OA
BRANCH   3   4
ATOM      4  C   UNL     1      44.571  17.231  21.184  0.00  0.00    +0.457 C 
ATOM      5  C   UNL     1      45.089  16.734  19.859  0.00  0.00    +0.159 C 
ATOM      6  O   UNL     1      44.618  16.516  22.157  0.00  0.00    -0.507 OA
ENDBRANCH   3   4
ENDBRANCH   2   3
ENDBRANCH   7   2
BRANCH   7   8
ATOM      8  O   UNL     1      42.535  20.046  18.548  0.00  0.00    -0.333 OA
BRANCH   8   9
ATOM      9  C   UNL     1      41.286  20.450  18.266  0.00  0.00    +0.458 C 
ATOM     10  C   UNL     1      40.850  21.849  18.618  0.00  0.00    +0.167 C 
ATOM     11  O   UNL     1      40.513  19.694  17.728  0.00  0.00    -0.495 OA
ENDBRANCH   8   9
ENDBRANCH   7   8
ENDBRANCH  12   7
BRANCH  12  13
ATOM     13  O   UNL     1      44.390  22.038  20.191  0.00  0.00    -0.323 OA
BRANCH  13  14
ATOM     14  C   UNL     1      44.947  22.490  21.326  0.00  0.00    +0.454 C 
ATOM     15  C   UNL     1      46.060  23.503  21.269  0.00  0.00    +0.158 C 
ATOM     16  O   UNL     1      44.555  22.082  22.395  0.00  0.00    -0.504 OA
ENDBRANCH  13  14
ENDBRANCH  12  13
BRANCH  12  17
ATOM     17  C   UNL     1      45.109  20.297  18.676  0.00  0.00    +0.075 C 
BRANCH  17  18
ATOM     18  C   UNL     1      46.494  20.890  18.702  0.00  0.00    -0.001 C 
ATOM     19  C   UNL     1      47.428  20.340  19.437  0.00  0.00    -0.034 C 
BRANCH  19  20
ATOM     20  C   UNL     1      48.813  20.934  19.461  0.00  0.00    +0.216 C 
ATOM     21  C   UNL     1      49.511  20.552  20.767  0.00  0.00    +0.073 C 
ATOM     22  C   UNL     1      50.974  20.895  20.699  0.00  0.00    +0.072 C 
ATOM     23  C   UNL     1      51.594  21.059  19.536  0.00  0.00    -0.085 C 
ATOM     24  C   UNL     1      50.839  20.911  18.278  0.00  0.00    +0.510 C 
ATOM     25  O   UNL     1      51.328  21.217  17.209  0.00  0.00    -0.450 OA
ATOM     26  O   UNL     1      49.575  20.423  18.358  0.00  0.00    -0.354 OA
ENDBRANCH  19  20
ENDBRANCH  17  18
ENDBRANCH  12  17
TORSDOF 11
ENDMDL
MODEL 3
REMARK VINA RESULT:      -5.3      1.599      3.398
REMARK  Name = ZINC95486213
REMARK  15 active torsions:
REMARK  status: ('A' for Active; 'I' for Inactive)
REMARK    1  A    between atoms: C1_1  and  C2_2
REMARK    2  A    between atoms: C2_2  and  C3_4
REMARK    3  A    between atoms: C2_2  and  O7_27
REMARK    4  A    between atoms: C3_4  and  C4_6
REMARK    5  A    between atoms: C3_4  and  O5_23
REMARK    6  A    between atoms: C4_6  and  C5_8
REMARK    7  A    between atoms: C4_6  and  O3_19
REMARK    8  A    between atoms: C5_8  and  C6_9
REMARK    9  A    between atoms: C7_10  and  C8_11
REMARK   10  A    between atoms: O3_19  and  C13_20
REMARK   11  A    between atoms: C13_20  and  C14_22
REMARK   12  A    between atoms: O5_23  and  C15_24
REMARK   13  A    between atoms: C15_24  and  C16_26
REMARK   14  A    between atoms: O7_27  and  C17_28
REMARK   15  A    between atoms: C17_28  and  C18_30
REMARK                            x       y       z     vdW  Elec       q    Type
REMARK                         _______ _______ _______ _____ _____    ______ ____
ROOT
ATOM     12  C   UNL     1      44.492  19.224  19.622  0.00  0.00    +0.173 C 
ENDROOT
BRANCH  12   7
ATOM      7  C   UNL     1      43.731  20.466  20.090  0.00  0.00    +0.207 C 
BRANCH   7   2
ATOM      1  C   UNL     1      41.780  18.993  20.611  0.00  0.00    +0.051 C 
ATOM      2  C   UNL     1      42.231  20.256  19.874  0.00  0.00    +0.185 C 
BRANCH   2   3
ATOM      3  O   UNL     1      41.967  20.112  18.477  0.00  0.00    -0.329 OA
BRANCH   3   4
ATOM      4  C   UNL     1      40.687  20.210  18.085  0.00  0.00    +0.457 C 
ATOM      5  C   UNL     1      39.871  21.416  18.472  0.00  0.00    +0.159 C 
ATOM      6  O   UNL     1      40.189  19.331  17.423  0.00  0.00    -0.507 OA
ENDBRANCH   3   4
ENDBRANCH   2   3
ENDBRANCH   7   2
BRANCH   7   8
ATOM      8  O   UNL     1      44.166  21.602  19.340  0.00  0.00    -0.333 OA
BRANCH   8   9
ATOM      9  C   UNL     1      44.436  22.721  20.032  0.00  0.00    +0.458 C 
ATOM     10  C   UNL     1      44.661  24.020  19.303  0.00  0.00    +0.167 C 
ATOM     11  O   UNL     1      44.498  22.685  21.238  0.00  0.00    -0.495 OA
ENDBRANCH   8   9
ENDBRANCH   7   8
ENDBRANCH  12   7
BRANCH  12  13
ATOM     13  O   UNL     1      45.242  18.685  20.713  0.00  0.00    -0.323 OA
BRANCH  13  14
ATOM     14  C   UNL     1      44.898  17.461  21.143  0.00  0.00    +0.454 C 
ATOM     15  C   UNL     1      45.030  16.275  20.223  0.00  0.00    +0.158 C 
ATOM     16  O   UNL     1      44.482  17.310  22.268  0.00  0.00    -0.504 OA
ENDBRANCH  13  14
ENDBRANCH  12  13
BRANCH  12  17
ATOM     17  C   UNL     1      45.446  19.608  18.488  0.00  0.00    +0.075 C 
BRANCH  17  18
ATOM     18  C   UNL     1      46.870  19.454  18.956  0.00  0.00    -0.001 C 
ATOM     19  C   UNL     1      47.671  20.491  18.965  0.00  0.00    -0.034 C 
BRANCH  19  20
ATOM     20  C   UNL     1      49.095  20.337  19.434  0.00  0.00    +0.216 C 
ATOM     21  C   UNL     1      50.038  21.012  18.437  0.00  0.00    +0.073 C 
ATOM     22  C   UNL     1      51.424  21.113  19.013  0.00  0.00    +0.072 C 
ATOM     23  C   UNL     1      51.637  21.047  20.322  0.00  0.00    -0.085 C 
ATOM     24  C   UNL     1      50.498  20.863  21.240  0.00  0.00    +0.510 C 
ATOM     25  O   UNL     1      50.669  20.632  22.419  0.00  0.00    -0.450 OA
ATOM     26  O   UNL     1      49.249  20.961  20.717  0.00  0.00    -0.354 OA
ENDBRANCH  19  20
ENDBRANCH  17  18
ENDBRANCH  12  17
TORSDOF 11
ENDMDL
MODEL 4
REMARK VINA RESULT:      -5.1      1.432      3.362
REMARK  Name = ZINC95486213
REMARK  15 active torsions:
REMARK  status: ('A' for Active; 'I' for Inactive)
REMARK    1  A    between atoms: C1_1  and  C2_2
REMARK    2  A    between atoms: C2_2  and  C3_4
REMARK    3  A    between atoms: C2_2  and  O7_27
REMARK    4  A    between atoms: C3_4  and  C4_6
REMARK    5  A    between atoms: C3_4  and  O5_23
REMARK    6  A    between atoms: C4_6  and  C5_8
REMARK    7  A    between atoms: C4_6  and  O3_19
REMARK    8  A    between atoms: C5_8  and  C6_9
REMARK    9  A    between atoms: C7_10  and  C8_11
REMARK   10  A    between atoms: O3_19  and  C13_20
REMARK   11  A    between atoms: C13_20  and  C14_22
REMARK   12  A    between atoms: O5_23  and  C15_24
REMARK   13  A    between atoms: C15_24  and  C16_26
REMARK   14  A    between atoms: O7_27  and  C17_28
REMARK   15  A    between atoms: C17_28  and  C18_30
REMARK                            x       y       z     vdW  Elec       q    Type
REMARK                         _______ _______ _______ _____ _____    ______ ____
ROOT
ATOM     12  C   UNL     1      45.211  19.533  19.349  0.00  0.00    +0.173 C 
ENDROOT
BRANCH  12   7
ATOM      7  C   UNL     1      44.458  20.236  20.481  0.00  0.00    +0.207 C 
BRANCH   7   2
ATOM      1  C   UNL     1      42.527  18.767  21.079  0.00  0.00    +0.051 C 
ATOM      2  C   UNL     1      42.954  20.017  20.306  0.00  0.00    +0.185 C 
BRANCH   2   3
ATOM      3  O   UNL     1      42.656  19.844  18.918  0.00  0.00    -0.329 OA
BRANCH   3   4
ATOM      4  C   UNL     1      41.552  20.447  18.452  0.00  0.00    +0.457 C 
ATOM      5  C   UNL     1      41.315  21.908  18.733  0.00  0.00    +0.159 C 
ATOM      6  O   UNL     1      40.746  19.818  17.809  0.00  0.00    -0.507 OA
ENDBRANCH   3   4
ENDBRANCH   2   3
ENDBRANCH   7   2
BRANCH   7   8
ATOM      8  O   UNL     1      44.743  21.636  20.443  0.00  0.00    -0.333 OA
BRANCH   8   9
ATOM      9  C   UNL     1      45.102  22.215  21.600  0.00  0.00    +0.458 C 
ATOM     10  C   UNL     1      46.398  21.827  22.265  0.00  0.00    +0.167 C 
ATOM     11  O   UNL     1      44.388  23.047  22.108  0.00  0.00    -0.495 OA
ENDBRANCH   8   9
ENDBRANCH   7   8
ENDBRANCH  12   7
BRANCH  12  13
ATOM     13  O   UNL     1      45.890  18.388  19.869  0.00  0.00    -0.323 OA
BRANCH  13  14
ATOM     14  C   UNL     1      45.557  17.195  19.351  0.00  0.00    +0.454 C 
ATOM     15  C   UNL     1      44.993  16.118  20.241  0.00  0.00    +0.158 C 
ATOM     16  O   UNL     1      45.709  16.984  18.170  0.00  0.00    -0.504 OA
ENDBRANCH  13  14
ENDBRANCH  12  13
BRANCH  12  17
ATOM     17  C   UNL     1      46.230  20.497  18.738  0.00  0.00    +0.075 C 
BRANCH  17  18
ATOM     18  C   UNL     1      47.623  19.974  18.979  0.00  0.00    -0.001 C 
ATOM     19  C   UNL     1      48.659  20.743  18.752  0.00  0.00    -0.034 C 
BRANCH  19  20
ATOM     20  C   UNL     1      50.051  20.219  18.994  0.00  0.00    +0.216 C 
ATOM     21  C   UNL     1      50.399  19.178  17.928  0.00  0.00    +0.073 C 
ATOM     22  C   UNL     1      51.865  18.845  17.980  0.00  0.00    +0.072 C 
ATOM     23  C   UNL     1      52.744  19.669  18.540  0.00  0.00    -0.085 C 
ATOM     24  C   UNL     1      52.281  20.937  19.134  0.00  0.00    +0.510 C 
ATOM     25  O   UNL     1      53.025  21.631  19.797  0.00  0.00    -0.450 OA
ATOM     26  O   UNL     1      50.992  21.300  18.913  0.00  0.00    -0.354 OA
ENDBRANCH  19  20
ENDBRANCH  17  18
ENDBRANCH  12  17
TORSDOF 11
ENDMDL
MODEL 5
REMARK VINA RESULT:      -5.1      2.444      4.381
REMARK  Name = ZINC95486213
REMARK  15 active torsions:
REMARK  status: ('A' for Active; 'I' for Inactive)
REMARK    1  A    between atoms: C1_1  and  C2_2
REMARK    2  A    between atoms: C2_2  and  C3_4
REMARK    3  A    between atoms: C2_2  and  O7_27
REMARK    4  A    between atoms: C3_4  and  C4_6
REMARK    5  A    between atoms: C3_4  and  O5_23
REMARK    6  A    between atoms: C4_6  and  C5_8
REMARK    7  A    between atoms: C4_6  and  O3_19
REMARK    8  A    between atoms: C5_8  and  C6_9
REMARK    9  A    between atoms: C7_10  and  C8_11
REMARK   10  A    between atoms: O3_19  and  C13_20
REMARK   11  A    between atoms: C13_20  and  C14_22
REMARK   12  A    between atoms: O5_23  and  C15_24
REMARK   13  A    between atoms: C15_24  and  C16_26
REMARK   14  A    between atoms: O7_27  and  C17_28
REMARK   15  A    between atoms: C17_28  and  C18_30
REMARK                            x       y       z     vdW  Elec       q    Type
REMARK                         _______ _______ _______ _____ _____    ______ ____
ROOT
ATOM     12  C   UNL     1      44.278  20.899  20.145  0.00  0.00    +0.173 C 
ENDROOT
BRANCH  12   7
ATOM      7  C   UNL     1      42.889  20.265  20.042  0.00  0.00    +0.207 C 
BRANCH   7   2
ATOM      1  C   UNL     1      41.516  18.627  21.338  0.00  0.00    +0.051 C 
ATOM      2  C   UNL     1      42.897  18.903  20.741  0.00  0.00    +0.185 C 
BRANCH   2   3
ATOM      3  O   UNL     1      43.874  18.909  21.785  0.00  0.00    -0.329 OA
BRANCH   3   4
ATOM      4  C   UNL     1      44.824  17.963  21.735  0.00  0.00    +0.457 C 
ATOM      5  C   UNL     1      44.483  16.576  21.255  0.00  0.00    +0.159 C 
ATOM      6  O   UNL     1      45.954  18.223  22.078  0.00  0.00    -0.507 OA
ENDBRANCH   3   4
ENDBRANCH   2   3
ENDBRANCH   7   2
BRANCH   7   8
ATOM      8  O   UNL     1      42.546  20.091  18.666  0.00  0.00    -0.333 OA
BRANCH   8   9
ATOM      9  C   UNL     1      41.315  20.474  18.292  0.00  0.00    +0.458 C 
ATOM     10  C   UNL     1      40.854  21.885  18.551  0.00  0.00    +0.167 C 
ATOM     11  O   UNL     1      40.576  19.687  17.748  0.00  0.00    -0.495 OA
ENDBRANCH   8   9
ENDBRANCH   7   8
ENDBRANCH  12   7
BRANCH  12  13
ATOM     13  O   UNL     1      44.148  22.269  20.533  0.00  0.00    -0.323 OA
BRANCH  13  14
ATOM     14  C   UNL     1      45.027  22.733  21.435  0.00  0.00    +0.454 C 
ATOM     15  C   UNL     1      45.870  23.940  21.115  0.00  0.00    +0.158 C 
ATOM     16  O   UNL     1      45.143  22.181  22.505  0.00  0.00    -0.504 OA
ENDBRANCH  13  14
ENDBRANCH  12  13
BRANCH  12  17
ATOM     17  C   UNL     1      44.978  20.818  18.787  0.00  0.00    +0.075 C 
BRANCH  17  18
ATOM     18  C   UNL     1      46.026  19.735  18.826  0.00  0.00    -0.001 C 
ATOM     19  C   UNL     1      45.829  18.611  18.184  0.00  0.00    -0.034 C 
BRANCH  19  20
ATOM     20  C   UNL     1      46.877  17.529  18.223  0.00  0.00    +0.216 C 
ATOM     21  C   UNL     1      46.530  16.442  17.205  0.00  0.00    +0.073 C 
ATOM     22  C   UNL     1      47.690  15.499  17.030  0.00  0.00    +0.072 C 
ATOM     23  C   UNL     1      48.927  15.854  17.358  0.00  0.00    -0.085 C 
ATOM     24  C   UNL     1      49.180  17.196  17.914  0.00  0.00    +0.510 C 
ATOM     25  O   UNL     1      50.262  17.492  18.379  0.00  0.00    -0.450 OA
ATOM     26  O   UNL     1      48.157  18.088  17.891  0.00  0.00    -0.354 OA
ENDBRANCH  19  20
ENDBRANCH  17  18
ENDBRANCH  12  17
TORSDOF 11
ENDMDL
MODEL 6
REMARK VINA RESULT:      -5.0      1.664      4.124
REMARK  Name = ZINC95486213
REMARK  15 active torsions:
REMARK  status: ('A' for Active; 'I' for Inactive)
REMARK    1  A    between atoms: C1_1  and  C2_2
REMARK    2  A    between atoms: C2_2  and  C3_4
REMARK    3  A    between atoms: C2_2  and  O7_27
REMARK    4  A    between atoms: C3_4  and  C4_6
REMARK    5  A    between atoms: C3_4  and  O5_23
REMARK    6  A    between atoms: C4_6  and  C5_8
REMARK    7  A    between atoms: C4_6  and  O3_19
REMARK    8  A    between atoms: C5_8  and  C6_9
REMARK    9  A    between atoms: C7_10  and  C8_11
REMARK   10  A    between atoms: O3_19  and  C13_20
REMARK   11  A    between atoms: C13_20  and  C14_22
REMARK   12  A    between atoms: O5_23  and  C15_24
REMARK   13  A    between atoms: C15_24  and  C16_26
REMARK   14  A    between atoms: O7_27  and  C17_28
REMARK   15  A    between atoms: C17_28  and  C18_30
REMARK                            x       y       z     vdW  Elec       q    Type
REMARK                         _______ _______ _______ _____ _____    ______ ____
ROOT
ATOM     12  C   UNL     1      45.815  19.371  19.720  0.00  0.00    +0.173 C 
ENDROOT
BRANCH  12   7
ATOM      7  C   UNL     1      44.810  20.420  20.201  0.00  0.00    +0.207 C 
BRANCH   7   2
ATOM      1  C   UNL     1      43.905  19.768  22.438  0.00  0.00    +0.051 C 
ATOM      2  C   UNL     1      44.956  20.611  21.713  0.00  0.00    +0.185 C 
BRANCH   2   3
ATOM      3  O   UNL     1      44.770  21.990  22.039  0.00  0.00    -0.329 OA
BRANCH   3   4
ATOM      4  C   UNL     1      45.699  22.851  21.598  0.00  0.00    +0.457 C 
ATOM      5  C   UNL     1      47.135  22.698  22.028  0.00  0.00    +0.159 C 
ATOM      6  O   UNL     1      45.384  23.752  20.856  0.00  0.00    -0.507 OA
ENDBRANCH   3   4
ENDBRANCH   2   3
ENDBRANCH   7   2
BRANCH   7   8
ATOM      8  O   UNL     1      43.483  19.980  19.904  0.00  0.00    -0.333 OA
BRANCH   8   9
ATOM      9  C   UNL     1      42.693  20.835  19.235  0.00  0.00    +0.458 C 
ATOM     10  C   UNL     1      41.567  20.311  18.383  0.00  0.00    +0.167 C 
ATOM     11  O   UNL     1      42.885  22.025  19.318  0.00  0.00    -0.495 OA
ENDBRANCH   8   9
ENDBRANCH   7   8
ENDBRANCH  12   7
BRANCH  12  13
ATOM     13  O   UNL     1      45.140  18.131  19.502  0.00  0.00    -0.323 OA
BRANCH  13  14
ATOM     14  C   UNL     1      45.733  17.251  18.679  0.00  0.00    +0.454 C 
ATOM     15  C   UNL     1      46.397  17.731  17.415  0.00  0.00    +0.158 C 
ATOM     16  O   UNL     1      45.734  16.073  18.953  0.00  0.00    -0.504 OA
ENDBRANCH  13  14
ENDBRANCH  12  13
BRANCH  12  17
ATOM     17  C   UNL     1      46.901  19.182  20.781  0.00  0.00    +0.075 C 
BRANCH  17  18
ATOM     18  C   UNL     1      48.253  19.447  20.169  0.00  0.00    -0.001 C 
ATOM     19  C   UNL     1      48.407  20.442  19.330  0.00  0.00    -0.034 C 
BRANCH  19  20
ATOM     20  C   UNL     1      49.759  20.707  18.719  0.00  0.00    +0.216 C 
ATOM     21  C   UNL     1      50.775  20.990  19.826  0.00  0.00    +0.073 C 
ATOM     22  C   UNL     1      52.172  20.985  19.269  0.00  0.00    +0.072 C 
ATOM     23  C   UNL     1      52.459  20.376  18.123  0.00  0.00    -0.085 C 
ATOM     24  C   UNL     1      51.391  19.694  17.370  0.00  0.00    +0.510 C 
ATOM     25  O   UNL     1      51.580  19.276  16.246  0.00  0.00    -0.450 OA
ATOM     26  O   UNL     1      50.185  19.553  17.978  0.00  0.00    -0.354 OA
ENDBRANCH  19  20
ENDBRANCH  17  18
ENDBRANCH  12  17
TORSDOF 11
ENDMDL
MODEL 7
REMARK VINA RESULT:      -5.0      1.828      3.862
REMARK  Name = ZINC95486213
REMARK  15 active torsions:
REMARK  status: ('A' for Active; 'I' for Inactive)
REMARK    1  A    between atoms: C1_1  and  C2_2
REMARK    2  A    between atoms: C2_2  and  C3_4
REMARK    3  A    between atoms: C2_2  and  O7_27
REMARK    4  A    between atoms: C3_4  and  C4_6
REMARK    5  A    between atoms: C3_4  and  O5_23
REMARK    6  A    between atoms: C4_6  and  C5_8
REMARK    7  A    between atoms: C4_6  and  O3_19
REMARK    8  A    between atoms: C5_8  and  C6_9
REMARK    9  A    between atoms: C7_10  and  C8_11
REMARK   10  A    between atoms: O3_19  and  C13_20
REMARK   11  A    between atoms: C13_20  and  C14_22
REMARK   12  A    between atoms: O5_23  and  C15_24
REMARK   13  A    between atoms: C15_24  and  C16_26
REMARK   14  A    between atoms: O7_27  and  C17_28
REMARK   15  A    between atoms: C17_28  and  C18_30
REMARK                            x       y       z     vdW  Elec       q    Type
REMARK                         _______ _______ _______ _____ _____    ______ ____
ROOT
ATOM     12  C   UNL     1      45.891  19.229  19.358  0.00  0.00    +0.173 C 
ENDROOT
BRANCH  12   7
ATOM      7  C   UNL     1      44.884  20.251  19.890  0.00  0.00    +0.207 C 
BRANCH   7   2
ATOM      1  C   UNL     1      42.621  20.489  18.854  0.00  0.00    +0.051 C 
ATOM      2  C   UNL     1      43.473  19.661  19.820  0.00  0.00    +0.185 C 
BRANCH   2   3
ATOM      3  O   UNL     1      42.881  19.687  21.120  0.00  0.00    -0.329 OA
BRANCH   3   4
ATOM      4  C   UNL     1      42.113  18.641  21.461  0.00  0.00    +0.457 C 
ATOM      5  C   UNL     1      40.622  18.703  21.259  0.00  0.00    +0.159 C 
ATOM      6  O   UNL     1      42.618  17.649  21.932  0.00  0.00    -0.507 OA
ENDBRANCH   3   4
ENDBRANCH   2   3
ENDBRANCH   7   2
BRANCH   7   8
ATOM      8  O   UNL     1      44.944  21.437  19.093  0.00  0.00    -0.333 OA
BRANCH   8   9
ATOM      9  C   UNL     1      45.168  22.593  19.739  0.00  0.00    +0.458 C 
ATOM     10  C   UNL     1      46.033  22.610  20.972  0.00  0.00    +0.167 C 
ATOM     11  O   UNL     1      44.677  23.618  19.330  0.00  0.00    -0.495 OA
ENDBRANCH   8   9
ENDBRANCH   7   8
ENDBRANCH  12   7
BRANCH  12  13
ATOM     13  O   UNL     1      45.193  18.072  18.892  0.00  0.00    -0.323 OA
BRANCH  13  14
ATOM     14  C   UNL     1      45.922  17.128  18.277  0.00  0.00    +0.454 C 
ATOM     15  C   UNL     1      46.810  17.497  17.116  0.00  0.00    +0.158 C 
ATOM     16  O   UNL     1      45.867  15.980  18.655  0.00  0.00    -0.504 OA
ENDBRANCH  13  14
ENDBRANCH  12  13
BRANCH  12  17
ATOM     17  C   UNL     1      46.850  18.827  20.481  0.00  0.00    +0.075 C 
BRANCH  17  18
ATOM     18  C   UNL     1      48.166  19.538  20.295  0.00  0.00    -0.001 C 
ATOM     19  C   UNL     1      48.464  20.070  19.136  0.00  0.00    -0.034 C 
BRANCH  19  20
ATOM     20  C   UNL     1      49.781  20.780  18.951  0.00  0.00    +0.216 C 
ATOM     21  C   UNL     1      50.592  20.700  20.245  0.00  0.00    +0.073 C 
ATOM     22  C   UNL     1      52.006  21.155  20.005  0.00  0.00    +0.072 C 
ATOM     23  C   UNL     1      52.534  21.164  18.786  0.00  0.00    -0.085 C 
ATOM     24  C   UNL     1      51.723  20.728  17.635  0.00  0.00    +0.510 C 
ATOM     25  O   UNL     1      52.112  20.881  16.495  0.00  0.00    -0.450 OA
ATOM     26  O   UNL     1      50.522  20.151  17.896  0.00  0.00    -0.354 OA
ENDBRANCH  19  20
ENDBRANCH  17  18
ENDBRANCH  12  17
TORSDOF 11
ENDMDL
MODEL 8
REMARK VINA RESULT:      -4.9      3.287      5.011
REMARK  Name = ZINC95486213
REMARK  15 active torsions:
REMARK  status: ('A' for Active; 'I' for Inactive)
REMARK    1  A    between atoms: C1_1  and  C2_2
REMARK    2  A    between atoms: C2_2  and  C3_4
REMARK    3  A    between atoms: C2_2  and  O7_27
REMARK    4  A    between atoms: C3_4  and  C4_6
REMARK    5  A    between atoms: C3_4  and  O5_23
REMARK    6  A    between atoms: C4_6  and  C5_8
REMARK    7  A    between atoms: C4_6  and  O3_19
REMARK    8  A    between atoms: C5_8  and  C6_9
REMARK    9  A    between atoms: C7_10  and  C8_11
REMARK   10  A    between atoms: O3_19  and  C13_20
REMARK   11  A    between atoms: C13_20  and  C14_22
REMARK   12  A    between atoms: O5_23  and  C15_24
REMARK   13  A    between atoms: C15_24  and  C16_26
REMARK   14  A    between atoms: O7_27  and  C17_28
REMARK   15  A    between atoms: C17_28  and  C18_30
REMARK                            x       y       z     vdW  Elec       q    Type
REMARK                         _______ _______ _______ _____ _____    ______ ____
ROOT
ATOM     12  C   UNL     1      44.329  18.544  19.709  0.00  0.00    +0.173 C 
ENDROOT
BRANCH  12   7
ATOM      7  C   UNL     1      43.843  19.855  20.330  0.00  0.00    +0.207 C 
BRANCH   7   2
ATOM      1  C   UNL     1      41.562  18.916  20.729  0.00  0.00    +0.051 C 
ATOM      2  C   UNL     1      42.350  20.033  20.043  0.00  0.00    +0.185 C 
BRANCH   2   3
ATOM      3  O   UNL     1      42.127  19.976  18.632  0.00  0.00    -0.329 OA
BRANCH   3   4
ATOM      4  C   UNL     1      40.898  20.294  18.196  0.00  0.00    +0.457 C 
ATOM      5  C   UNL     1      40.305  21.638  18.529  0.00  0.00    +0.159 C 
ATOM      6  O   UNL     1      40.267  19.501  17.538  0.00  0.00    -0.507 OA
ENDBRANCH   3   4
ENDBRANCH   2   3
ENDBRANCH   7   2
BRANCH   7   8
ATOM      8  O   UNL     1      44.570  20.948  19.764  0.00  0.00    -0.333 OA
BRANCH   8   9
ATOM      9  C   UNL     1      44.434  22.143  20.361  0.00  0.00    +0.458 C 
ATOM     10  C   UNL     1      43.950  23.330  19.569  0.00  0.00    +0.167 C 
ATOM     11  O   UNL     1      44.698  22.266  21.534  0.00  0.00    -0.495 OA
ENDBRANCH   8   9
ENDBRANCH   7   8
ENDBRANCH  12   7
BRANCH  12  13
ATOM     13  O   UNL     1      45.079  17.808  20.678  0.00  0.00    -0.323 OA
BRANCH  13  14
ATOM     14  C   UNL     1      44.539  16.663  21.125  0.00  0.00    +0.454 C 
ATOM     15  C   UNL     1      43.729  16.657  22.394  0.00  0.00    +0.158 C 
ATOM     16  O   UNL     1      44.704  15.636  20.508  0.00  0.00    -0.504 OA
ENDBRANCH  13  14
ENDBRANCH  12  13
BRANCH  12  17
ATOM     17  C   UNL     1      45.217  18.850  18.501  0.00  0.00    +0.075 C 
BRANCH  17  18
ATOM     18  C   UNL     1      46.260  17.772  18.358  0.00  0.00    -0.001 C 
ATOM     19  C   UNL     1      46.343  17.085  17.245  0.00  0.00    -0.034 C 
BRANCH  19  20
ATOM     20  C   UNL     1      47.386  16.007  17.103  0.00  0.00    +0.216 C 
ATOM     21  C   UNL     1      47.881  15.587  18.488  0.00  0.00    +0.073 C 
ATOM     22  C   UNL     1      48.710  14.336  18.390  0.00  0.00    +0.072 C 
ATOM     23  C   UNL     1      48.611  13.518  17.348  0.00  0.00    -0.085 C 
ATOM     24  C   UNL     1      47.677  13.838  16.253  0.00  0.00    +0.510 C 
ATOM     25  O   UNL     1      47.681  13.208  15.215  0.00  0.00    -0.450 OA
ATOM     26  O   UNL     1      46.811  14.866  16.448  0.00  0.00    -0.354 OA
ENDBRANCH  19  20
ENDBRANCH  17  18
ENDBRANCH  12  17
TORSDOF 11
ENDMDL
MODEL 9
REMARK VINA RESULT:      -4.8      1.786      3.638
REMARK  Name = ZINC95486213
REMARK  15 active torsions:
REMARK  status: ('A' for Active; 'I' for Inactive)
REMARK    1  A    between atoms: C1_1  and  C2_2
REMARK    2  A    between atoms: C2_2  and  C3_4
REMARK    3  A    between atoms: C2_2  and  O7_27
REMARK    4  A    between atoms: C3_4  and  C4_6
REMARK    5  A    between atoms: C3_4  and  O5_23
REMARK    6  A    between atoms: C4_6  and  C5_8
REMARK    7  A    between atoms: C4_6  and  O3_19
REMARK    8  A    between atoms: C5_8  and  C6_9
REMARK    9  A    between atoms: C7_10  and  C8_11
REMARK   10  A    between atoms: O3_19  and  C13_20
REMARK   11  A    between atoms: C13_20  and  C14_22
REMARK   12  A    between atoms: O5_23  and  C15_24
REMARK   13  A    between atoms: C15_24  and  C16_26
REMARK   14  A    between atoms: O7_27  and  C17_28
REMARK   15  A    between atoms: C17_28  and  C18_30
REMARK                            x       y       z     vdW  Elec       q    Type
REMARK                         _______ _______ _______ _____ _____    ______ ____
ROOT
ATOM     12  C   UNL     1      46.003  19.491  20.964  0.00  0.00    +0.173 C 
ENDROOT
BRANCH  12   7
ATOM      7  C   UNL     1      44.887  20.360  20.380  0.00  0.00    +0.207 C 
BRANCH   7   2
ATOM      1  C   UNL     1      45.170  19.028  18.285  0.00  0.00    +0.051 C 
ATOM      2  C   UNL     1      44.154  19.582  19.285  0.00  0.00    +0.185 C 
BRANCH   2   3
ATOM      3  O   UNL     1      43.246  20.454  18.608  0.00  0.00    -0.329 OA
BRANCH   3   4
ATOM      4  C   UNL     1      41.957  20.397  18.977  0.00  0.00    +0.457 C 
ATOM      5  C   UNL     1      41.050  21.575  18.732  0.00  0.00    +0.159 C 
ATOM      6  O   UNL     1      41.524  19.401  19.506  0.00  0.00    -0.507 OA
ENDBRANCH   3   4
ENDBRANCH   2   3
ENDBRANCH   7   2
BRANCH   7   8
ATOM      8  O   UNL     1      45.452  21.549  19.822  0.00  0.00    -0.333 OA
BRANCH   8   9
ATOM      9  C   UNL     1      44.894  22.715  20.183  0.00  0.00    +0.458 C 
ATOM     10  C   UNL     1      44.655  23.017  21.639  0.00  0.00    +0.167 C 
ATOM     11  O   UNL     1      44.585  23.524  19.339  0.00  0.00    -0.495 OA
ENDBRANCH   8   9
ENDBRANCH   7   8
ENDBRANCH  12   7
BRANCH  12  13
ATOM     13  O   UNL     1      45.533  18.848  22.151  0.00  0.00    -0.323 OA
BRANCH  13  14
ATOM     14  C   UNL     1      45.308  17.527  22.080  0.00  0.00    +0.454 C 
ATOM     15  C   UNL     1      43.936  16.979  22.373  0.00  0.00    +0.158 C 
ATOM     16  O   UNL     1      46.208  16.776  21.782  0.00  0.00    -0.504 OA
ENDBRANCH  13  14
ENDBRANCH  12  13
BRANCH  12  17
ATOM     17  C   UNL     1      47.210  20.369  21.301  0.00  0.00    +0.075 C 
BRANCH  17  18
ATOM     18  C   UNL     1      48.423  19.859  20.565  0.00  0.00    -0.001 C 
ATOM     19  C   UNL     1      48.783  20.414  19.435  0.00  0.00    -0.034 C 
BRANCH  19  20
ATOM     20  C   UNL     1      49.996  19.905  18.700  0.00  0.00    +0.216 C 
ATOM     21  C   UNL     1      50.669  21.061  17.958  0.00  0.00    +0.073 C 
ATOM     22  C   UNL     1      52.020  20.640  17.448  0.00  0.00    +0.072 C 
ATOM     23  C   UNL     1      52.668  19.606  17.973  0.00  0.00    -0.085 C 
ATOM     24  C   UNL     1      52.054  18.841  19.075  0.00  0.00    +0.510 C 
ATOM     25  O   UNL     1      52.536  17.797  19.463  0.00  0.00    -0.450 OA
ATOM     26  O   UNL     1      50.928  19.347  19.639  0.00  0.00    -0.354 OA
ENDBRANCH  19  20
ENDBRANCH  17  18
ENDBRANCH  12  17
TORSDOF 11
ENDMDL
