MODEL 1
REMARK VINA RESULT:      -6.0      0.000      0.000
REMARK  Name = ZINC95486028
REMARK  7 active torsions:
REMARK  status: ('A' for Active; 'I' for Inactive)
REMARK    1  A    between atoms: C1_1  and  C2_2
REMARK    2  A    between atoms: C2_2  and  C3_4
REMARK    3  A    between atoms: C4_5  and  C5_6
REMARK    4  A    between atoms: C12_15  and  C13_16
REMARK    5  A    between atoms: C13_16  and  C14_17
REMARK    6  A    between atoms: C13_16  and  C15_18
REMARK    7  A    between atoms: C13_16  and  C16_19
REMARK                            x       y       z     vdW  Elec       q    Type
REMARK                         _______ _______ _______ _____ _____    ______ ____
ROOT
ATOM      5  C   UNL     1      46.652  20.073  18.891  0.00  0.00    -0.072 A 
ATOM      6  C   UNL     1      45.749  19.001  18.775  0.00  0.00    +0.008 A 
ATOM      7  C   UNL     1      44.410  19.218  18.864  0.00  0.00    +0.050 A 
ATOM      8  C   UNL     1      43.922  20.514  19.072  0.00  0.00    -0.077 A 
ATOM      9  C   UNL     1      44.815  21.597  19.190  0.00  0.00    +0.086 A 
ATOM     10  N   UNL     1      44.056  22.730  19.386  0.00  0.00    -0.592 N 
ATOM     11  C   UNL     1      42.730  22.404  19.395  0.00  0.00    +0.233 A 
ATOM     12  H   UNL     1      44.410  23.627  19.500  0.00  0.00    +0.418 HD
ATOM     13  C   UNL     1      42.581  21.080  19.210  0.00  0.00    -0.156 A 
ATOM     19  C   UNL     1      46.180  21.370  19.104  0.00  0.00    +0.034 A 
ENDROOT
BRANCH  13  14
ATOM     14  C   UNL     1      41.279  20.323  19.156  0.00  0.00    +0.038 C 
ATOM     17  C   UNL     1      41.235  19.304  20.296  0.00  0.00    +0.039 C 
ATOM     18  C   UNL     1      41.169  19.595  17.815  0.00  0.00    +0.035 C 
BRANCH  14  15
ATOM     15  C   UNL     1      40.131  21.288  19.299  0.00  0.00    -0.029 C 
ATOM     16  C   UNL     1      39.245  21.399  18.340  0.00  0.00    -0.001 C 
ENDBRANCH  14  15
ENDBRANCH  13  14
BRANCH   5   4
ATOM      3  C   UNL     1      48.974  20.795  19.154  0.00  0.00    -0.123 C 
ATOM      4  C   UNL     1      48.095  19.827  18.793  0.00  0.00    +0.142 C 
BRANCH   3   2
ATOM      1  C   UNL     1      51.115  20.993  17.832  0.00  0.00    +0.060 C 
ATOM      2  C   UNL     1      50.358  20.559  19.061  0.00  0.00    +0.380 C 
ATOM     20  O   UNL     1      50.943  20.005  19.970  0.00  0.00    -0.476 OA
ENDBRANCH   3   2
ENDBRANCH   5   4
TORSDOF 4
ENDMDL
MODEL 2
REMARK VINA RESULT:      -5.7      2.987      7.724
REMARK  Name = ZINC95486028
REMARK  7 active torsions:
REMARK  status: ('A' for Active; 'I' for Inactive)
REMARK    1  A    between atoms: C1_1  and  C2_2
REMARK    2  A    between atoms: C2_2  and  C3_4
REMARK    3  A    between atoms: C4_5  and  C5_6
REMARK    4  A    between atoms: C12_15  and  C13_16
REMARK    5  A    between atoms: C13_16  and  C14_17
REMARK    6  A    between atoms: C13_16  and  C15_18
REMARK    7  A    between atoms: C13_16  and  C16_19
REMARK                            x       y       z     vdW  Elec       q    Type
REMARK                         _______ _______ _______ _____ _____    ______ ____
ROOT
ATOM      5  C   UNL     1      45.547  19.614  18.570  0.00  0.00    -0.072 A 
ATOM      6  C   UNL     1      46.252  20.779  18.916  0.00  0.00    +0.008 A 
ATOM      7  C   UNL     1      47.608  20.756  19.021  0.00  0.00    +0.050 A 
ATOM      8  C   UNL     1      48.309  19.567  18.783  0.00  0.00    -0.077 A 
ATOM      9  C   UNL     1      47.614  18.392  18.436  0.00  0.00    +0.086 A 
ATOM     10  N   UNL     1      48.555  17.399  18.266  0.00  0.00    -0.592 N 
ATOM     11  C   UNL     1      49.804  17.901  18.491  0.00  0.00    +0.233 A 
ATOM     12  H   UNL     1      48.359  16.480  18.022  0.00  0.00    +0.418 HD
ATOM     13  C   UNL     1      49.725  19.205  18.808  0.00  0.00    -0.156 A 
ATOM     19  C   UNL     1      46.232  18.419  18.336  0.00  0.00    +0.034 A 
ENDROOT
BRANCH  13  14
ATOM     14  C   UNL     1      50.879  20.122  19.128  0.00  0.00    +0.038 C 
ATOM     17  C   UNL     1      52.184  19.325  19.102  0.00  0.00    +0.039 C 
ATOM     18  C   UNL     1      50.677  20.728  20.518  0.00  0.00    +0.035 C 
BRANCH  14  15
ATOM     15  C   UNL     1      50.942  21.225  18.103  0.00  0.00    -0.029 C 
ATOM     16  C   UNL     1      51.456  20.991  16.921  0.00  0.00    -0.001 C 
ENDBRANCH  14  15
ENDBRANCH  13  14
BRANCH   5   4
ATOM      3  C   UNL     1      43.370  20.536  19.199  0.00  0.00    -0.123 C 
ATOM      4  C   UNL     1      44.084  19.651  18.460  0.00  0.00    +0.142 C 
BRANCH   3   2
ATOM      1  C   UNL     1      41.271  21.858  18.730  0.00  0.00    +0.060 C 
ATOM      2  C   UNL     1      41.967  20.571  19.094  0.00  0.00    +0.380 C 
ATOM     20  O   UNL     1      41.317  19.565  19.296  0.00  0.00    -0.476 OA
ENDBRANCH   3   2
ENDBRANCH   5   4
TORSDOF 4
ENDMDL
MODEL 3
REMARK VINA RESULT:      -5.3      2.960      7.585
REMARK  Name = ZINC95486028
REMARK  7 active torsions:
REMARK  status: ('A' for Active; 'I' for Inactive)
REMARK    1  A    between atoms: C1_1  and  C2_2
REMARK    2  A    between atoms: C2_2  and  C3_4
REMARK    3  A    between atoms: C4_5  and  C5_6
REMARK    4  A    between atoms: C12_15  and  C13_16
REMARK    5  A    between atoms: C13_16  and  C14_17
REMARK    6  A    between atoms: C13_16  and  C15_18
REMARK    7  A    between atoms: C13_16  and  C16_19
REMARK                            x       y       z     vdW  Elec       q    Type
REMARK                         _______ _______ _______ _____ _____    ______ ____
ROOT
ATOM      5  C   UNL     1      45.109  21.154  19.976  0.00  0.00    -0.072 A 
ATOM      6  C   UNL     1      45.756  20.709  18.810  0.00  0.00    +0.008 A 
ATOM      7  C   UNL     1      47.105  20.535  18.796  0.00  0.00    +0.050 A 
ATOM      8  C   UNL     1      47.857  20.800  19.947  0.00  0.00    -0.077 A 
ATOM      9  C   UNL     1      47.222  21.247  21.122  0.00  0.00    +0.086 A 
ATOM     10  N   UNL     1      48.204  21.421  22.074  0.00  0.00    -0.592 N 
ATOM     11  C   UNL     1      49.422  21.102  21.546  0.00  0.00    +0.233 A 
ATOM     12  H   UNL     1      48.052  21.724  22.983  0.00  0.00    +0.418 HD
ATOM     13  C   UNL     1      49.282  20.719  20.265  0.00  0.00    -0.156 A 
ATOM     19  C   UNL     1      45.848  21.428  21.130  0.00  0.00    +0.034 A 
ENDROOT
BRANCH  13  14
ATOM     14  C   UNL     1      50.385  20.288  19.332  0.00  0.00    +0.038 C 
ATOM     17  C   UNL     1      50.400  21.201  18.105  0.00  0.00    +0.039 C 
ATOM     18  C   UNL     1      50.143  18.843  18.891  0.00  0.00    +0.035 C 
BRANCH  14  15
ATOM     15  C   UNL     1      51.710  20.381  20.045  0.00  0.00    -0.029 C 
ATOM     16  C   UNL     1      52.620  21.226  19.628  0.00  0.00    -0.001 C 
ENDBRANCH  14  15
ENDBRANCH  13  14
BRANCH   5   4
ATOM      3  C   UNL     1      42.876  20.613  19.137  0.00  0.00    -0.123 C 
ATOM      4  C   UNL     1      43.653  21.338  19.980  0.00  0.00    +0.142 C 
BRANCH   3   2
ATOM      1  C   UNL     1      40.864  21.942  18.389  0.00  0.00    +0.060 C 
ATOM      2  C   UNL     1      41.480  20.789  19.141  0.00  0.00    +0.380 C 
ATOM     20  O   UNL     1      40.770  20.013  19.750  0.00  0.00    -0.476 OA
ENDBRANCH   3   2
ENDBRANCH   5   4
TORSDOF 4
ENDMDL
MODEL 4
REMARK VINA RESULT:      -5.0      2.081      2.836
REMARK  Name = ZINC95486028
REMARK  7 active torsions:
REMARK  status: ('A' for Active; 'I' for Inactive)
REMARK    1  A    between atoms: C1_1  and  C2_2
REMARK    2  A    between atoms: C2_2  and  C3_4
REMARK    3  A    between atoms: C4_5  and  C5_6
REMARK    4  A    between atoms: C12_15  and  C13_16
REMARK    5  A    between atoms: C13_16  and  C14_17
REMARK    6  A    between atoms: C13_16  and  C15_18
REMARK    7  A    between atoms: C13_16  and  C16_19
REMARK                            x       y       z     vdW  Elec       q    Type
REMARK                         _______ _______ _______ _____ _____    ______ ____
ROOT
ATOM      5  C   UNL     1      48.301  20.463  19.346  0.00  0.00    -0.072 A 
ATOM      6  C   UNL     1      47.476  19.447  18.835  0.00  0.00    +0.008 A 
ATOM      7  C   UNL     1      46.283  19.168  19.426  0.00  0.00    +0.050 A 
ATOM      8  C   UNL     1      45.871  19.894  20.550  0.00  0.00    -0.077 A 
ATOM      9  C   UNL     1      46.689  20.915  21.073  0.00  0.00    +0.086 A 
ATOM     10  N   UNL     1      46.031  21.444  22.162  0.00  0.00    -0.592 N 
ATOM     11  C   UNL     1      44.840  20.800  22.343  0.00  0.00    +0.233 A 
ATOM     12  H   UNL     1      46.363  22.167  22.718  0.00  0.00    +0.418 HD
ATOM     13  C   UNL     1      44.683  19.853  21.401  0.00  0.00    -0.156 A 
ATOM     19  C   UNL     1      47.906  21.193  20.470  0.00  0.00    +0.034 A 
ENDROOT
BRANCH  13  14
ATOM     14  C   UNL     1      43.506  18.924  21.252  0.00  0.00    +0.038 C 
ATOM     17  C   UNL     1      42.632  19.004  22.505  0.00  0.00    +0.039 C 
ATOM     18  C   UNL     1      44.008  17.490  21.072  0.00  0.00    +0.035 C 
BRANCH  14  15
ATOM     15  C   UNL     1      42.696  19.328  20.047  0.00  0.00    -0.029 C 
ATOM     16  C   UNL     1      41.388  19.333  20.109  0.00  0.00    -0.001 C 
ENDBRANCH  14  15
ENDBRANCH  13  14
BRANCH   5   4
ATOM      3  C   UNL     1      50.365  19.741  18.250  0.00  0.00    -0.123 C 
ATOM      4  C   UNL     1      49.586  20.756  18.700  0.00  0.00    +0.142 C 
BRANCH   3   2
ATOM      1  C   UNL     1      51.683  21.096  16.577  0.00  0.00    +0.060 C 
ATOM      2  C   UNL     1      51.597  20.022  17.630  0.00  0.00    +0.380 C 
ATOM     20  O   UNL     1      52.592  19.399  17.945  0.00  0.00    -0.476 OA
ENDBRANCH   3   2
ENDBRANCH   5   4
TORSDOF 4
ENDMDL
MODEL 5
REMARK VINA RESULT:      -5.0      4.747      6.099
REMARK  Name = ZINC95486028
REMARK  7 active torsions:
REMARK  status: ('A' for Active; 'I' for Inactive)
REMARK    1  A    between atoms: C1_1  and  C2_2
REMARK    2  A    between atoms: C2_2  and  C3_4
REMARK    3  A    between atoms: C4_5  and  C5_6
REMARK    4  A    between atoms: C12_15  and  C13_16
REMARK    5  A    between atoms: C13_16  and  C14_17
REMARK    6  A    between atoms: C13_16  and  C15_18
REMARK    7  A    between atoms: C13_16  and  C16_19
REMARK                            x       y       z     vdW  Elec       q    Type
REMARK                         _______ _______ _______ _____ _____    ______ ____
ROOT
ATOM      5  C   UNL     1      46.003  14.852  18.789  0.00  0.00    -0.072 A 
ATOM      6  C   UNL     1      45.316  15.075  19.995  0.00  0.00    +0.008 A 
ATOM      7  C   UNL     1      44.893  16.326  20.323  0.00  0.00    +0.050 A 
ATOM      8  C   UNL     1      45.141  17.399  19.459  0.00  0.00    -0.077 A 
ATOM      9  C   UNL     1      45.829  17.188  18.247  0.00  0.00    +0.086 A 
ATOM     10  N   UNL     1      45.922  18.410  17.616  0.00  0.00    -0.592 N 
ATOM     11  C   UNL     1      45.324  19.373  18.378  0.00  0.00    +0.233 A 
ATOM     12  H   UNL     1      46.348  18.564  16.758  0.00  0.00    +0.418 HD
ATOM     13  C   UNL     1      44.832  18.827  19.504  0.00  0.00    -0.156 A 
ATOM     19  C   UNL     1      46.262  15.914  17.919  0.00  0.00    +0.034 A 
ENDROOT
BRANCH  13  14
ATOM     14  C   UNL     1      44.100  19.551  20.605  0.00  0.00    +0.038 C 
ATOM     17  C   UNL     1      44.034  21.043  20.277  0.00  0.00    +0.039 C 
ATOM     18  C   UNL     1      44.844  19.351  21.927  0.00  0.00    +0.035 C 
BRANCH  14  15
ATOM     15  C   UNL     1      42.703  18.999  20.727  0.00  0.00    -0.029 C 
ATOM     16  C   UNL     1      41.790  19.329  19.847  0.00  0.00    -0.001 C 
ENDBRANCH  14  15
ENDBRANCH  13  14
BRANCH   5   4
ATOM      3  C   UNL     1      45.924  12.858  17.374  0.00  0.00    -0.123 C 
ATOM      4  C   UNL     1      46.455  13.498  18.445  0.00  0.00    +0.142 C 
BRANCH   3   2
ATOM      1  C   UNL     1      47.587  10.987  17.701  0.00  0.00    +0.060 C 
ATOM      2  C   UNL     1      46.357  11.560  17.044  0.00  0.00    +0.380 C 
ATOM     20  O   UNL     1      45.740  10.902  16.230  0.00  0.00    -0.476 OA
ENDBRANCH   3   2
ENDBRANCH   5   4
TORSDOF 4
ENDMDL
MODEL 6
REMARK VINA RESULT:      -5.0      6.625      8.815
REMARK  Name = ZINC95486028
REMARK  7 active torsions:
REMARK  status: ('A' for Active; 'I' for Inactive)
REMARK    1  A    between atoms: C1_1  and  C2_2
REMARK    2  A    between atoms: C2_2  and  C3_4
REMARK    3  A    between atoms: C4_5  and  C5_6
REMARK    4  A    between atoms: C12_15  and  C13_16
REMARK    5  A    between atoms: C13_16  and  C14_17
REMARK    6  A    between atoms: C13_16  and  C15_18
REMARK    7  A    between atoms: C13_16  and  C16_19
REMARK                            x       y       z     vdW  Elec       q    Type
REMARK                         _______ _______ _______ _____ _____    ______ ____
ROOT
ATOM      5  C   UNL     1      49.192  15.695  17.258  0.00  0.00    -0.072 A 
ATOM      6  C   UNL     1      48.487  16.905  17.382  0.00  0.00    +0.008 A 
ATOM      7  C   UNL     1      49.135  18.043  17.751  0.00  0.00    +0.050 A 
ATOM      8  C   UNL     1      50.511  18.014  18.010  0.00  0.00    -0.077 A 
ATOM      9  C   UNL     1      51.229  16.807  17.891  0.00  0.00    +0.086 A 
ATOM     10  N   UNL     1      52.542  17.084  18.204  0.00  0.00    -0.592 N 
ATOM     11  C   UNL     1      52.676  18.407  18.513  0.00  0.00    +0.233 A 
ATOM     12  H   UNL     1      53.264  16.436  18.204  0.00  0.00    +0.418 HD
ATOM     13  C   UNL     1      51.486  19.025  18.414  0.00  0.00    -0.156 A 
ATOM     19  C   UNL     1      50.564  15.649  17.520  0.00  0.00    +0.034 A 
ENDROOT
BRANCH  13  14
ATOM     14  C   UNL     1      51.209  20.484  18.673  0.00  0.00    +0.038 C 
ATOM     17  C   UNL     1      52.448  21.136  19.289  0.00  0.00    +0.039 C 
ATOM     18  C   UNL     1      50.029  20.615  19.638  0.00  0.00    +0.035 C 
BRANCH  14  15
ATOM     15  C   UNL     1      50.874  21.169  17.373  0.00  0.00    -0.029 C 
ATOM     16  C   UNL     1      51.705  21.099  16.363  0.00  0.00    -0.001 C 
ENDBRANCH  14  15
ENDBRANCH  13  14
BRANCH   5   4
ATOM      3  C   UNL     1      47.221  14.247  17.302  0.00  0.00    -0.123 C 
ATOM      4  C   UNL     1      48.483  14.474  16.860  0.00  0.00    +0.142 C 
BRANCH   3   2
ATOM      1  C   UNL     1      47.155  12.147  15.904  0.00  0.00    +0.060 C 
ATOM      2  C   UNL     1      46.541  13.076  16.920  0.00  0.00    +0.380 C 
ATOM     20  O   UNL     1      45.460  12.813  17.408  0.00  0.00    -0.476 OA
ENDBRANCH   3   2
ENDBRANCH   5   4
TORSDOF 4
ENDMDL
MODEL 7
REMARK VINA RESULT:      -5.0      3.931      7.465
REMARK  Name = ZINC95486028
REMARK  7 active torsions:
REMARK  status: ('A' for Active; 'I' for Inactive)
REMARK    1  A    between atoms: C1_1  and  C2_2
REMARK    2  A    between atoms: C2_2  and  C3_4
REMARK    3  A    between atoms: C4_5  and  C5_6
REMARK    4  A    between atoms: C12_15  and  C13_16
REMARK    5  A    between atoms: C13_16  and  C14_17
REMARK    6  A    between atoms: C13_16  and  C15_18
REMARK    7  A    between atoms: C13_16  and  C16_19
REMARK                            x       y       z     vdW  Elec       q    Type
REMARK                         _______ _______ _______ _____ _____    ______ ____
ROOT
ATOM      5  C   UNL     1      44.285  19.269  19.055  0.00  0.00    -0.072 A 
ATOM      6  C   UNL     1      45.324  19.196  18.111  0.00  0.00    +0.008 A 
ATOM      7  C   UNL     1      46.110  18.089  18.038  0.00  0.00    +0.050 A 
ATOM      8  C   UNL     1      45.886  17.012  18.905  0.00  0.00    -0.077 A 
ATOM      9  C   UNL     1      44.848  17.072  19.857  0.00  0.00    +0.086 A 
ATOM     10  N   UNL     1      44.870  15.885  20.557  0.00  0.00    -0.592 N 
ATOM     11  C   UNL     1      45.874  15.088  20.087  0.00  0.00    +0.233 A 
ATOM     12  H   UNL     1      44.263  15.651  21.277  0.00  0.00    +0.418 HD
ATOM     13  C   UNL     1      46.525  15.710  19.088  0.00  0.00    -0.156 A 
ATOM     19  C   UNL     1      44.053  18.205  19.931  0.00  0.00    +0.034 A 
ENDROOT
BRANCH  13  14
ATOM     14  C   UNL     1      47.694  15.168  18.306  0.00  0.00    +0.038 C 
ATOM     17  C   UNL     1      47.287  14.989  16.842  0.00  0.00    +0.039 C 
ATOM     18  C   UNL     1      48.115  13.818  18.888  0.00  0.00    +0.035 C 
BRANCH  14  15
ATOM     15  C   UNL     1      48.848  16.134  18.392  0.00  0.00    -0.029 C 
ATOM     16  C   UNL     1      49.974  15.865  17.780  0.00  0.00    -0.001 C 
ENDBRANCH  14  15
ENDBRANCH  13  14
BRANCH   5   4
ATOM      3  C   UNL     1      42.152  20.416  18.714  0.00  0.00    -0.123 C 
ATOM      4  C   UNL     1      43.443  20.469  19.125  0.00  0.00    +0.142 C 
BRANCH   3   2
ATOM      1  C   UNL     1      39.852  21.453  18.606  0.00  0.00    +0.060 C 
ATOM      2  C   UNL     1      41.345  21.568  18.781  0.00  0.00    +0.380 C 
ATOM     20  O   UNL     1      41.851  22.654  18.979  0.00  0.00    -0.476 OA
ENDBRANCH   3   2
ENDBRANCH   5   4
TORSDOF 4
ENDMDL
MODEL 8
REMARK VINA RESULT:      -4.9      4.737      7.257
REMARK  Name = ZINC95486028
REMARK  7 active torsions:
REMARK  status: ('A' for Active; 'I' for Inactive)
REMARK    1  A    between atoms: C1_1  and  C2_2
REMARK    2  A    between atoms: C2_2  and  C3_4
REMARK    3  A    between atoms: C4_5  and  C5_6
REMARK    4  A    between atoms: C12_15  and  C13_16
REMARK    5  A    between atoms: C13_16  and  C14_17
REMARK    6  A    between atoms: C13_16  and  C15_18
REMARK    7  A    between atoms: C13_16  and  C16_19
REMARK                            x       y       z     vdW  Elec       q    Type
REMARK                         _______ _______ _______ _____ _____    ______ ____
ROOT
ATOM      5  C   UNL     1      45.283  18.633  18.718  0.00  0.00    -0.072 A 
ATOM      6  C   UNL     1      44.907  17.688  19.688  0.00  0.00    +0.008 A 
ATOM      7  C   UNL     1      45.284  16.387  19.562  0.00  0.00    +0.050 A 
ATOM      8  C   UNL     1      46.051  15.983  18.463  0.00  0.00    -0.077 A 
ATOM      9  C   UNL     1      46.434  16.921  17.482  0.00  0.00    +0.086 A 
ATOM     10  N   UNL     1      47.170  16.240  16.536  0.00  0.00    -0.592 N 
ATOM     11  C   UNL     1      47.264  14.922  16.881  0.00  0.00    +0.233 A 
ATOM     12  H   UNL     1      47.564  16.639  15.744  0.00  0.00    +0.418 HD
ATOM     13  C   UNL     1      46.609  14.702  18.034  0.00  0.00    -0.156 A 
ATOM     19  C   UNL     1      46.043  18.244  17.612  0.00  0.00    +0.034 A 
ENDROOT
BRANCH  13  14
ATOM     14  C   UNL     1      46.476  13.382  18.751  0.00  0.00    +0.038 C 
ATOM     17  C   UNL     1      44.996  13.086  19.001  0.00  0.00    +0.039 C 
ATOM     18  C   UNL     1      47.216  13.452  20.089  0.00  0.00    +0.035 C 
BRANCH  14  15
ATOM     15  C   UNL     1      47.072  12.288  17.904  0.00  0.00    -0.029 C 
ATOM     16  C   UNL     1      46.298  11.554  17.143  0.00  0.00    -0.001 C 
ENDBRANCH  14  15
ENDBRANCH  13  14
BRANCH   5   4
ATOM      3  C   UNL     1      43.631  20.331  19.325  0.00  0.00    -0.123 C 
ATOM      4  C   UNL     1      44.871  20.034  18.864  0.00  0.00    +0.142 C 
BRANCH   3   2
ATOM      1  C   UNL     1      44.201  22.690  20.020  0.00  0.00    +0.060 C 
ATOM      2  C   UNL     1      43.235  21.675  19.465  0.00  0.00    +0.380 C 
ATOM     20  O   UNL     1      42.116  22.016  19.139  0.00  0.00    -0.476 OA
ENDBRANCH   3   2
ENDBRANCH   5   4
TORSDOF 4
ENDMDL
MODEL 9
REMARK VINA RESULT:      -4.7      3.346      8.006
REMARK  Name = ZINC95486028
REMARK  7 active torsions:
REMARK  status: ('A' for Active; 'I' for Inactive)
REMARK    1  A    between atoms: C1_1  and  C2_2
REMARK    2  A    between atoms: C2_2  and  C3_4
REMARK    3  A    between atoms: C4_5  and  C5_6
REMARK    4  A    between atoms: C12_15  and  C13_16
REMARK    5  A    between atoms: C13_16  and  C14_17
REMARK    6  A    between atoms: C13_16  and  C15_18
REMARK    7  A    between atoms: C13_16  and  C16_19
REMARK                            x       y       z     vdW  Elec       q    Type
REMARK                         _______ _______ _______ _____ _____    ______ ____
ROOT
ATOM      5  C   UNL     1      47.599  20.504  19.474  0.00  0.00    -0.072 A 
ATOM      6  C   UNL     1      48.952  20.852  19.324  0.00  0.00    +0.008 A 
ATOM      7  C   UNL     1      49.817  19.999  18.712  0.00  0.00    +0.050 A 
ATOM      8  C   UNL     1      49.362  18.767  18.227  0.00  0.00    -0.077 A 
ATOM      9  C   UNL     1      48.007  18.406  18.371  0.00  0.00    +0.086 A 
ATOM     10  N   UNL     1      47.858  17.158  17.806  0.00  0.00    -0.592 N 
ATOM     11  C   UNL     1      49.056  16.724  17.316  0.00  0.00    +0.233 A 
ATOM     12  H   UNL     1      47.025  16.661  17.762  0.00  0.00    +0.418 HD
ATOM     13  C   UNL     1      50.005  17.650  17.538  0.00  0.00    -0.156 A 
ATOM     19  C   UNL     1      47.131  19.276  19.000  0.00  0.00    +0.034 A 
ENDROOT
BRANCH  13  14
ATOM     14  C   UNL     1      51.459  17.555  17.151  0.00  0.00    +0.038 C 
ATOM     17  C   UNL     1      51.763  18.581  16.058  0.00  0.00    +0.039 C 
ATOM     18  C   UNL     1      51.755  16.148  16.626  0.00  0.00    +0.035 C 
BRANCH  14  15
ATOM     15  C   UNL     1      52.319  17.833  18.356  0.00  0.00    -0.029 C 
ATOM     16  C   UNL     1      53.034  16.871  18.886  0.00  0.00    -0.001 C 
ENDBRANCH  14  15
ENDBRANCH  13  14
BRANCH   5   4
ATOM      3  C   UNL     1      45.379  21.497  19.740  0.00  0.00    -0.123 C 
ATOM      4  C   UNL     1      46.674  21.432  20.136  0.00  0.00    +0.142 C 
BRANCH   3   2
ATOM      1  C   UNL     1      43.380  23.031  19.589  0.00  0.00    +0.060 C 
ATOM      2  C   UNL     1      44.493  22.387  20.375  0.00  0.00    +0.380 C 
ATOM     20  O   UNL     1      44.625  22.636  21.557  0.00  0.00    -0.476 OA
ENDBRANCH   3   2
ENDBRANCH   5   4
TORSDOF 4
ENDMDL
