MODEL 1
REMARK VINA RESULT:      -5.1      0.000      0.000
REMARK  Name = ZINC34006254
REMARK  9 active torsions:
REMARK  status: ('A' for Active; 'I' for Inactive)
REMARK    1  A    between atoms: C1_1  and  C2_2
REMARK    2  A    between atoms: C2_2  and  C3_3
REMARK    3  A    between atoms: C3_3  and  O1_4
REMARK    4  A    between atoms: O1_4  and  C4_5
REMARK    5  A    between atoms: C4_5  and  C5_7
REMARK    6  A    between atoms: C6_8  and  C7_9
REMARK    7  A    between atoms: C10_12  and  O4_17
REMARK    8  A    between atoms: C11_13  and  O3_15
REMARK    9  A    between atoms: O3_15  and  C13_16
REMARK                            x       y       z     vdW  Elec       q    Type
REMARK                         _______ _______ _______ _____ _____    ______ ____
ROOT
ATOM      8  C   UNL     1      46.621  21.208  19.805  0.00  0.00    -0.057 A 
ATOM      9  C   UNL     1      47.027  21.706  21.049  0.00  0.00    +0.026 A 
ATOM     10  C   UNL     1      46.175  22.501  21.783  0.00  0.00    +0.033 A 
ATOM     11  C   UNL     1      44.913  22.811  21.292  0.00  0.00    +0.095 A 
ATOM     14  C   UNL     1      44.502  22.319  20.055  0.00  0.00    +0.100 A 
ATOM     17  C   UNL     1      45.352  21.525  19.309  0.00  0.00    -0.026 A 
ENDROOT
BRANCH   8   7
ATOM      6  C   UNL     1      48.840  20.299  19.336  0.00  0.00    -0.060 C 
ATOM      7  C   UNL     1      47.528  20.359  19.020  0.00  0.00    +0.150 C 
BRANCH   6   5
ATOM      5  C   UNL     1      49.715  19.480  18.578  0.00  0.00    +0.501 C 
ATOM     18  O   UNL     1      49.295  18.469  18.047  0.00  0.00    -0.514 OA
BRANCH   5   4
ATOM      4  O   UNL     1      51.014  19.821  18.447  0.00  0.00    -0.350 OA
BRANCH   4   3
ATOM      3  C   UNL     1      51.295  21.149  18.003  0.00  0.00    +0.201 C 
BRANCH   3   2
ATOM      1  C   UNL     1      52.192  19.877  16.048  0.00  0.00    +0.032 C 
ATOM      2  C   UNL     1      51.468  21.153  16.482  0.00  0.00    +0.025 C 
ENDBRANCH   3   2
ENDBRANCH   4   3
ENDBRANCH   5   4
ENDBRANCH   6   5
ENDBRANCH   8   7
BRANCH  11  12
ATOM     12  O   UNL     1      44.077  23.595  22.021  0.00  0.00    -0.485 OA
ATOM     13  H   UNL     1      44.080  24.526  21.755  0.00  0.00    +0.392 HD
ENDBRANCH  11  12
BRANCH  14  15
ATOM     15  O   UNL     1      43.265  22.625  19.577  0.00  0.00    -0.306 OA
ATOM     16  C   UNL     1      42.421  21.532  19.212  0.00  0.00    +0.242 C 
ENDBRANCH  14  15
TORSDOF 7
ENDMDL
MODEL 2
REMARK VINA RESULT:      -4.8      1.221      2.262
REMARK  Name = ZINC34006254
REMARK  9 active torsions:
REMARK  status: ('A' for Active; 'I' for Inactive)
REMARK    1  A    between atoms: C1_1  and  C2_2
REMARK    2  A    between atoms: C2_2  and  C3_3
REMARK    3  A    between atoms: C3_3  and  O1_4
REMARK    4  A    between atoms: O1_4  and  C4_5
REMARK    5  A    between atoms: C4_5  and  C5_7
REMARK    6  A    between atoms: C6_8  and  C7_9
REMARK    7  A    between atoms: C10_12  and  O4_17
REMARK    8  A    between atoms: C11_13  and  O3_15
REMARK    9  A    between atoms: O3_15  and  C13_16
REMARK                            x       y       z     vdW  Elec       q    Type
REMARK                         _______ _______ _______ _____ _____    ______ ____
ROOT
ATOM      8  C   UNL     1      46.219  20.308  19.024  0.00  0.00    -0.057 A 
ATOM      9  C   UNL     1      45.171  19.541  18.500  0.00  0.00    +0.026 A 
ATOM     10  C   UNL     1      43.866  19.934  18.700  0.00  0.00    +0.033 A 
ATOM     11  C   UNL     1      43.586  21.087  19.420  0.00  0.00    +0.095 A 
ATOM     14  C   UNL     1      44.623  21.855  19.945  0.00  0.00    +0.100 A 
ATOM     17  C   UNL     1      45.935  21.467  19.755  0.00  0.00    -0.026 A 
ENDROOT
BRANCH   8   7
ATOM      6  C   UNL     1      48.625  20.703  19.193  0.00  0.00    -0.060 C 
ATOM      7  C   UNL     1      47.613  19.892  18.813  0.00  0.00    +0.150 C 
BRANCH   6   5
ATOM      5  C   UNL     1      49.969  20.302  18.989  0.00  0.00    +0.501 C 
ATOM     18  O   UNL     1      50.268  19.124  19.049  0.00  0.00    -0.514 OA
BRANCH   5   4
ATOM      4  O   UNL     1      50.917  21.226  18.729  0.00  0.00    -0.350 OA
BRANCH   4   3
ATOM      3  C   UNL     1      52.010  20.820  17.904  0.00  0.00    +0.201 C 
BRANCH   3   2
ATOM      1  C   UNL     1      51.880  19.750  15.650  0.00  0.00    +0.032 C 
ATOM      2  C   UNL     1      51.651  21.044  16.433  0.00  0.00    +0.025 C 
ENDBRANCH   3   2
ENDBRANCH   4   3
ENDBRANCH   5   4
ENDBRANCH   6   5
ENDBRANCH   8   7
BRANCH  11  12
ATOM     12  O   UNL     1      42.296  21.468  19.613  0.00  0.00    -0.485 OA
ATOM     13  H   UNL     1      42.168  22.427  19.625  0.00  0.00    +0.392 HD
ENDBRANCH  11  12
BRANCH  14  15
ATOM     15  O   UNL     1      44.345  22.984  20.651  0.00  0.00    -0.306 OA
ATOM     16  C   UNL     1      45.445  23.837  20.972  0.00  0.00    +0.242 C 
ENDBRANCH  14  15
TORSDOF 7
ENDMDL
MODEL 3
REMARK VINA RESULT:      -4.8      1.775      6.589
REMARK  Name = ZINC34006254
REMARK  9 active torsions:
REMARK  status: ('A' for Active; 'I' for Inactive)
REMARK    1  A    between atoms: C1_1  and  C2_2
REMARK    2  A    between atoms: C2_2  and  C3_3
REMARK    3  A    between atoms: C3_3  and  O1_4
REMARK    4  A    between atoms: O1_4  and  C4_5
REMARK    5  A    between atoms: C4_5  and  C5_7
REMARK    6  A    between atoms: C6_8  and  C7_9
REMARK    7  A    between atoms: C10_12  and  O4_17
REMARK    8  A    between atoms: C11_13  and  O3_15
REMARK    9  A    between atoms: O3_15  and  C13_16
REMARK                            x       y       z     vdW  Elec       q    Type
REMARK                         _______ _______ _______ _____ _____    ______ ____
ROOT
ATOM      8  C   UNL     1      49.167  20.701  19.641  0.00  0.00    -0.057 A 
ATOM      9  C   UNL     1      50.015  20.783  20.752  0.00  0.00    +0.026 A 
ATOM     10  C   UNL     1      51.357  21.036  20.576  0.00  0.00    +0.033 A 
ATOM     11  C   UNL     1      51.873  21.208  19.298  0.00  0.00    +0.095 A 
ATOM     14  C   UNL     1      51.035  21.127  18.187  0.00  0.00    +0.100 A 
ATOM     17  C   UNL     1      49.688  20.869  18.354  0.00  0.00    -0.026 A 
ENDROOT
BRANCH   8   7
ATOM      6  C   UNL     1      46.871  20.636  18.807  0.00  0.00    -0.060 C 
ATOM      7  C   UNL     1      47.733  20.432  19.827  0.00  0.00    +0.150 C 
BRANCH   6   5
ATOM      5  C   UNL     1      45.488  20.377  18.986  0.00  0.00    +0.501 C 
ATOM     18  O   UNL     1      44.917  19.592  18.253  0.00  0.00    -0.514 OA
BRANCH   5   4
ATOM      4  O   UNL     1      44.806  21.001  19.969  0.00  0.00    -0.350 OA
BRANCH   4   3
ATOM      3  C   UNL     1      44.515  22.386  19.778  0.00  0.00    +0.201 C 
BRANCH   3   2
ATOM      1  C   UNL     1      45.195  22.304  22.181  0.00  0.00    +0.032 C 
ATOM      2  C   UNL     1      45.092  23.195  20.942  0.00  0.00    +0.025 C 
ENDBRANCH   3   2
ENDBRANCH   4   3
ENDBRANCH   5   4
ENDBRANCH   6   5
ENDBRANCH   8   7
BRANCH  11  12
ATOM     12  O   UNL     1      53.198  21.457  19.130  0.00  0.00    -0.485 OA
ATOM     13  H   UNL     1      53.665  20.775  18.627  0.00  0.00    +0.392 HD
ENDBRANCH  11  12
BRANCH  14  15
ATOM     15  O   UNL     1      51.544  21.296  16.937  0.00  0.00    -0.306 OA
ATOM     16  C   UNL     1      51.875  20.115  16.205  0.00  0.00    +0.242 C 
ENDBRANCH  14  15
TORSDOF 7
ENDMDL
MODEL 4
REMARK VINA RESULT:      -4.7      1.770      2.307
REMARK  Name = ZINC34006254
REMARK  9 active torsions:
REMARK  status: ('A' for Active; 'I' for Inactive)
REMARK    1  A    between atoms: C1_1  and  C2_2
REMARK    2  A    between atoms: C2_2  and  C3_3
REMARK    3  A    between atoms: C3_3  and  O1_4
REMARK    4  A    between atoms: O1_4  and  C4_5
REMARK    5  A    between atoms: C4_5  and  C5_7
REMARK    6  A    between atoms: C6_8  and  C7_9
REMARK    7  A    between atoms: C10_12  and  O4_17
REMARK    8  A    between atoms: C11_13  and  O3_15
REMARK    9  A    between atoms: O3_15  and  C13_16
REMARK                            x       y       z     vdW  Elec       q    Type
REMARK                         _______ _______ _______ _____ _____    ______ ____
ROOT
ATOM      8  C   UNL     1      45.430  19.920  18.583  0.00  0.00    -0.057 A 
ATOM      9  C   UNL     1      46.009  21.153  18.909  0.00  0.00    +0.026 A 
ATOM     10  C   UNL     1      45.229  22.164  19.424  0.00  0.00    +0.033 A 
ATOM     11  C   UNL     1      43.870  21.965  19.622  0.00  0.00    +0.095 A 
ATOM     14  C   UNL     1      43.285  20.742  19.299  0.00  0.00    +0.100 A 
ATOM     17  C   UNL     1      44.059  19.723  18.777  0.00  0.00    -0.026 A 
ENDROOT
BRANCH   8   7
ATOM      6  C   UNL     1      47.526  18.668  18.473  0.00  0.00    -0.060 C 
ATOM      7  C   UNL     1      46.260  18.839  18.033  0.00  0.00    +0.150 C 
BRANCH   6   5
ATOM      5  C   UNL     1      48.326  17.625  17.942  0.00  0.00    +0.501 C 
ATOM     18  O   UNL     1      47.801  16.675  17.393  0.00  0.00    -0.514 OA
BRANCH   5   4
ATOM      4  O   UNL     1      49.670  17.686  18.046  0.00  0.00    -0.350 OA
BRANCH   4   3
ATOM      3  C   UNL     1      50.400  17.995  16.857  0.00  0.00    +0.201 C 
BRANCH   3   2
ATOM      1  C   UNL     1      52.083  19.544  15.851  0.00  0.00    +0.032 C 
ATOM      2  C   UNL     1      51.180  19.296  17.061  0.00  0.00    +0.025 C 
ENDBRANCH   3   2
ENDBRANCH   4   3
ENDBRANCH   5   4
ENDBRANCH   6   5
ENDBRANCH   8   7
BRANCH  11  12
ATOM     12  O   UNL     1      43.106  22.967  20.131  0.00  0.00    -0.485 OA
ATOM     13  H   UNL     1      42.576  23.432  19.468  0.00  0.00    +0.392 HD
ENDBRANCH  11  12
BRANCH  14  15
ATOM     15  O   UNL     1      41.953  20.551  19.494  0.00  0.00    -0.306 OA
ATOM     16  C   UNL     1      41.156  20.303  18.335  0.00  0.00    +0.242 C 
ENDBRANCH  14  15
TORSDOF 7
ENDMDL
MODEL 5
REMARK VINA RESULT:      -4.7      2.249      6.440
REMARK  Name = ZINC34006254
REMARK  9 active torsions:
REMARK  status: ('A' for Active; 'I' for Inactive)
REMARK    1  A    between atoms: C1_1  and  C2_2
REMARK    2  A    between atoms: C2_2  and  C3_3
REMARK    3  A    between atoms: C3_3  and  O1_4
REMARK    4  A    between atoms: O1_4  and  C4_5
REMARK    5  A    between atoms: C4_5  and  C5_7
REMARK    6  A    between atoms: C6_8  and  C7_9
REMARK    7  A    between atoms: C10_12  and  O4_17
REMARK    8  A    between atoms: C11_13  and  O3_15
REMARK    9  A    between atoms: O3_15  and  C13_16
REMARK                            x       y       z     vdW  Elec       q    Type
REMARK                         _______ _______ _______ _____ _____    ______ ____
ROOT
ATOM      8  C   UNL     1      49.204  20.663  19.518  0.00  0.00    -0.057 A 
ATOM      9  C   UNL     1      50.009  20.769  20.659  0.00  0.00    +0.026 A 
ATOM     10  C   UNL     1      51.353  21.041  20.530  0.00  0.00    +0.033 A 
ATOM     11  C   UNL     1      51.913  21.210  19.270  0.00  0.00    +0.095 A 
ATOM     14  C   UNL     1      51.119  21.105  18.130  0.00  0.00    +0.100 A 
ATOM     17  C   UNL     1      49.771  20.828  18.250  0.00  0.00    -0.026 A 
ENDROOT
BRANCH   8   7
ATOM      6  C   UNL     1      46.892  20.872  18.754  0.00  0.00    -0.060 C 
ATOM      7  C   UNL     1      47.769  20.373  19.653  0.00  0.00    +0.150 C 
BRANCH   6   5
ATOM      5  C   UNL     1      45.508  20.592  18.884  0.00  0.00    +0.501 C 
ATOM     18  O   UNL     1      44.769  21.408  19.403  0.00  0.00    -0.514 OA
BRANCH   5   4
ATOM      4  O   UNL     1      45.011  19.422  18.434  0.00  0.00    -0.350 OA
BRANCH   4   3
ATOM      3  C   UNL     1      44.614  18.464  19.417  0.00  0.00    +0.201 C 
BRANCH   3   2
ATOM      1  C   UNL     1      46.073  17.177  17.848  0.00  0.00    +0.032 C 
ATOM      2  C   UNL     1      45.424  17.179  19.234  0.00  0.00    +0.025 C 
ENDBRANCH   3   2
ENDBRANCH   4   3
ENDBRANCH   5   4
ENDBRANCH   6   5
ENDBRANCH   8   7
BRANCH  11  12
ATOM     12  O   UNL     1      53.239  21.478  19.149  0.00  0.00    -0.485 OA
ATOM     13  H   UNL     1      53.434  22.396  18.915  0.00  0.00    +0.392 HD
ENDBRANCH  11  12
BRANCH  14  15
ATOM     15  O   UNL     1      51.671  21.271  16.898  0.00  0.00    -0.306 OA
ATOM     16  C   UNL     1      51.967  20.089  16.154  0.00  0.00    +0.242 C 
ENDBRANCH  14  15
TORSDOF 7
ENDMDL
MODEL 6
REMARK VINA RESULT:      -4.6      1.844      6.919
REMARK  Name = ZINC34006254
REMARK  9 active torsions:
REMARK  status: ('A' for Active; 'I' for Inactive)
REMARK    1  A    between atoms: C1_1  and  C2_2
REMARK    2  A    between atoms: C2_2  and  C3_3
REMARK    3  A    between atoms: C3_3  and  O1_4
REMARK    4  A    between atoms: O1_4  and  C4_5
REMARK    5  A    between atoms: C4_5  and  C5_7
REMARK    6  A    between atoms: C6_8  and  C7_9
REMARK    7  A    between atoms: C10_12  and  O4_17
REMARK    8  A    between atoms: C11_13  and  O3_15
REMARK    9  A    between atoms: O3_15  and  C13_16
REMARK                            x       y       z     vdW  Elec       q    Type
REMARK                         _______ _______ _______ _____ _____    ______ ____
ROOT
ATOM      8  C   UNL     1      49.267  20.645  19.566  0.00  0.00    -0.057 A 
ATOM      9  C   UNL     1      50.076  20.783  20.701  0.00  0.00    +0.026 A 
ATOM     10  C   UNL     1      51.414  21.076  20.560  0.00  0.00    +0.033 A 
ATOM     11  C   UNL     1      51.964  21.236  19.295  0.00  0.00    +0.095 A 
ATOM     14  C   UNL     1      51.166  21.100  18.161  0.00  0.00    +0.100 A 
ATOM     17  C   UNL     1      49.824  20.800  18.292  0.00  0.00    -0.026 A 
ENDROOT
BRANCH   8   7
ATOM      6  C   UNL     1      47.007  21.226  20.292  0.00  0.00    -0.060 C 
ATOM      7  C   UNL     1      47.838  20.332  19.714  0.00  0.00    +0.150 C 
BRANCH   6   5
ATOM      5  C   UNL     1      45.629  20.923  20.435  0.00  0.00    +0.501 C 
ATOM     18  O   UNL     1      45.213  20.459  21.480  0.00  0.00    -0.514 OA
BRANCH   5   4
ATOM      4  O   UNL     1      44.780  21.149  19.411  0.00  0.00    -0.350 OA
BRANCH   4   3
ATOM      3  C   UNL     1      44.178  20.005  18.803  0.00  0.00    +0.201 C 
BRANCH   3   2
ATOM      1  C   UNL     1      42.022  19.562  19.987  0.00  0.00    +0.032 C 
ATOM      2  C   UNL     1      42.660  20.195  18.748  0.00  0.00    +0.025 C 
ENDBRANCH   3   2
ENDBRANCH   4   3
ENDBRANCH   5   4
ENDBRANCH   6   5
ENDBRANCH   8   7
BRANCH  11  12
ATOM     12  O   UNL     1      53.285  21.526  19.162  0.00  0.00    -0.485 OA
ATOM     13  H   UNL     1      53.768  21.546  20.000  0.00  0.00    +0.392 HD
ENDBRANCH  11  12
BRANCH  14  15
ATOM     15  O   UNL     1      51.708  21.257  16.923  0.00  0.00    -0.306 OA
ATOM     16  C   UNL     1      52.024  20.069  16.197  0.00  0.00    +0.242 C 
ENDBRANCH  14  15
TORSDOF 7
ENDMDL
MODEL 7
REMARK VINA RESULT:      -4.6      1.748      2.553
REMARK  Name = ZINC34006254
REMARK  9 active torsions:
REMARK  status: ('A' for Active; 'I' for Inactive)
REMARK    1  A    between atoms: C1_1  and  C2_2
REMARK    2  A    between atoms: C2_2  and  C3_3
REMARK    3  A    between atoms: C3_3  and  O1_4
REMARK    4  A    between atoms: O1_4  and  C4_5
REMARK    5  A    between atoms: C4_5  and  C5_7
REMARK    6  A    between atoms: C6_8  and  C7_9
REMARK    7  A    between atoms: C10_12  and  O4_17
REMARK    8  A    between atoms: C11_13  and  O3_15
REMARK    9  A    between atoms: O3_15  and  C13_16
REMARK                            x       y       z     vdW  Elec       q    Type
REMARK                         _______ _______ _______ _____ _____    ______ ____
ROOT
ATOM      8  C   UNL     1      44.942  21.542  19.678  0.00  0.00    -0.057 A 
ATOM      9  C   UNL     1      44.516  22.873  19.600  0.00  0.00    +0.026 A 
ATOM     10  C   UNL     1      43.202  23.159  19.304  0.00  0.00    +0.033 A 
ATOM     11  C   UNL     1      42.297  22.129  19.081  0.00  0.00    +0.095 A 
ATOM     14  C   UNL     1      42.714  20.801  19.155  0.00  0.00    +0.100 A 
ATOM     17  C   UNL     1      44.031  20.505  19.447  0.00  0.00    -0.026 A 
ENDROOT
BRANCH   8   7
ATOM      6  C   UNL     1      47.178  20.807  19.021  0.00  0.00    -0.060 C 
ATOM      7  C   UNL     1      46.345  21.234  19.995  0.00  0.00    +0.150 C 
BRANCH   6   5
ATOM      5  C   UNL     1      48.531  20.510  19.327  0.00  0.00    +0.501 C 
ATOM     18  O   UNL     1      48.794  19.720  20.213  0.00  0.00    -0.514 OA
BRANCH   5   4
ATOM      4  O   UNL     1      49.525  21.105  18.635  0.00  0.00    -0.350 OA
BRANCH   4   3
ATOM      3  C   UNL     1      50.609  20.276  18.215  0.00  0.00    +0.201 C 
BRANCH   3   2
ATOM      1  C   UNL     1      51.757  20.143  15.999  0.00  0.00    +0.032 C 
ATOM      2  C   UNL     1      51.474  21.037  17.208  0.00  0.00    +0.025 C 
ENDBRANCH   3   2
ENDBRANCH   4   3
ENDBRANCH   5   4
ENDBRANCH   6   5
ENDBRANCH   8   7
BRANCH  11  12
ATOM     12  O   UNL     1      41.002  22.417  18.789  0.00  0.00    -0.485 OA
ATOM     13  H   UNL     1      40.384  22.215  19.505  0.00  0.00    +0.392 HD
ENDBRANCH  11  12
BRANCH  14  15
ATOM     15  O   UNL     1      41.825  19.795  18.936  0.00  0.00    -0.306 OA
ATOM     16  C   UNL     1      41.326  19.107  20.083  0.00  0.00    +0.242 C 
ENDBRANCH  14  15
TORSDOF 7
ENDMDL
MODEL 8
REMARK VINA RESULT:      -4.4      1.756      7.342
REMARK  Name = ZINC34006254
REMARK  9 active torsions:
REMARK  status: ('A' for Active; 'I' for Inactive)
REMARK    1  A    between atoms: C1_1  and  C2_2
REMARK    2  A    between atoms: C2_2  and  C3_3
REMARK    3  A    between atoms: C3_3  and  O1_4
REMARK    4  A    between atoms: O1_4  and  C4_5
REMARK    5  A    between atoms: C4_5  and  C5_7
REMARK    6  A    between atoms: C6_8  and  C7_9
REMARK    7  A    between atoms: C10_12  and  O4_17
REMARK    8  A    between atoms: C11_13  and  O3_15
REMARK    9  A    between atoms: O3_15  and  C13_16
REMARK                            x       y       z     vdW  Elec       q    Type
REMARK                         _______ _______ _______ _____ _____    ______ ____
ROOT
ATOM      8  C   UNL     1      48.933  20.068  18.974  0.00  0.00    -0.057 A 
ATOM      9  C   UNL     1      49.874  21.006  18.532  0.00  0.00    +0.026 A 
ATOM     10  C   UNL     1      51.065  20.580  17.986  0.00  0.00    +0.033 A 
ATOM     11  C   UNL     1      51.336  19.224  17.873  0.00  0.00    +0.095 A 
ATOM     14  C   UNL     1      50.405  18.283  18.311  0.00  0.00    +0.100 A 
ATOM     17  C   UNL     1      49.210  18.700  18.865  0.00  0.00    -0.026 A 
ENDROOT
BRANCH   8   7
ATOM      6  C   UNL     1      46.647  20.902  18.751  0.00  0.00    -0.060 C 
ATOM      7  C   UNL     1      47.661  20.518  19.557  0.00  0.00    +0.150 C 
BRANCH   6   5
ATOM      5  C   UNL     1      45.421  21.337  19.314  0.00  0.00    +0.501 C 
ATOM     18  O   UNL     1      45.411  22.246  20.122  0.00  0.00    -0.514 OA
BRANCH   5   4
ATOM      4  O   UNL     1      44.265  20.741  18.955  0.00  0.00    -0.350 OA
BRANCH   4   3
ATOM      3  C   UNL     1      43.053  21.360  19.389  0.00  0.00    +0.201 C 
BRANCH   3   2
ATOM      1  C   UNL     1      40.717  21.650  18.551  0.00  0.00    +0.032 C 
ATOM      2  C   UNL     1      41.858  20.650  18.748  0.00  0.00    +0.025 C 
ENDBRANCH   3   2
ENDBRANCH   4   3
ENDBRANCH   5   4
ENDBRANCH   6   5
ENDBRANCH   8   7
BRANCH  11  12
ATOM     12  O   UNL     1      52.512  18.811  17.333  0.00  0.00    -0.485 OA
ATOM     13  H   UNL     1      52.844  19.385  16.628  0.00  0.00    +0.392 HD
ENDBRANCH  11  12
BRANCH  14  15
ATOM     15  O   UNL     1      50.674  16.955  18.199  0.00  0.00    -0.306 OA
ATOM     16  C   UNL     1      49.817  16.187  17.353  0.00  0.00    +0.242 C 
ENDBRANCH  14  15
TORSDOF 7
ENDMDL
MODEL 9
REMARK VINA RESULT:      -4.4      2.215      3.228
REMARK  Name = ZINC34006254
REMARK  9 active torsions:
REMARK  status: ('A' for Active; 'I' for Inactive)
REMARK    1  A    between atoms: C1_1  and  C2_2
REMARK    2  A    between atoms: C2_2  and  C3_3
REMARK    3  A    between atoms: C3_3  and  O1_4
REMARK    4  A    between atoms: O1_4  and  C4_5
REMARK    5  A    between atoms: C4_5  and  C5_7
REMARK    6  A    between atoms: C6_8  and  C7_9
REMARK    7  A    between atoms: C10_12  and  O4_17
REMARK    8  A    between atoms: C11_13  and  O3_15
REMARK    9  A    between atoms: O3_15  and  C13_16
REMARK                            x       y       z     vdW  Elec       q    Type
REMARK                         _______ _______ _______ _____ _____    ______ ____
ROOT
ATOM      8  C   UNL     1      47.438  20.584  19.184  0.00  0.00    -0.057 A 
ATOM      9  C   UNL     1      46.461  21.570  19.368  0.00  0.00    +0.026 A 
ATOM     10  C   UNL     1      45.137  21.280  19.126  0.00  0.00    +0.033 A 
ATOM     11  C   UNL     1      44.767  20.012  18.698  0.00  0.00    +0.095 A 
ATOM     14  C   UNL     1      45.733  19.026  18.511  0.00  0.00    +0.100 A 
ATOM     17  C   UNL     1      47.065  19.309  18.747  0.00  0.00    -0.026 A 
ENDROOT
BRANCH   8   7
ATOM      6  C   UNL     1      49.819  20.260  18.740  0.00  0.00    -0.060 C 
ATOM      7  C   UNL     1      48.852  20.891  19.442  0.00  0.00    +0.150 C 
BRANCH   6   5
ATOM      5  C   UNL     1      51.183  20.555  18.989  0.00  0.00    +0.501 C 
ATOM     18  O   UNL     1      51.659  20.349  20.090  0.00  0.00    -0.514 OA
BRANCH   5   4
ATOM      4  O   UNL     1      51.953  21.066  18.006  0.00  0.00    -0.350 OA
BRANCH   4   3
ATOM      3  C   UNL     1      51.447  20.979  16.673  0.00  0.00    +0.201 C 
BRANCH   3   2
ATOM      1  C   UNL     1      51.691  18.600  15.948  0.00  0.00    +0.032 C 
ATOM      2  C   UNL     1      52.302  20.001  15.865  0.00  0.00    +0.025 C 
ENDBRANCH   3   2
ENDBRANCH   4   3
ENDBRANCH   5   4
ENDBRANCH   6   5
ENDBRANCH   8   7
BRANCH  11  12
ATOM     12  O   UNL     1      43.459  19.733  18.461  0.00  0.00    -0.485 OA
ATOM     13  H   UNL     1      42.944  20.493  18.155  0.00  0.00    +0.392 HD
ENDBRANCH  11  12
BRANCH  14  15
ATOM     15  O   UNL     1      45.367  17.785  18.091  0.00  0.00    -0.306 OA
ATOM     16  C   UNL     1      46.212  16.696  18.466  0.00  0.00    +0.242 C 
ENDBRANCH  14  15
TORSDOF 7
ENDMDL
