MODEL 1
REMARK VINA RESULT:      -6.9      0.000      0.000
REMARK  Name = ZINC95485922
REMARK  16 active torsions:
REMARK  status: ('A' for Active; 'I' for Inactive)
REMARK    1  A    between atoms: C1_1  and  C2_2
REMARK    2  A    between atoms: C2_2  and  C28_34
REMARK    3  A    between atoms: C3_3  and  C4_4
REMARK    4  A    between atoms: C4_4  and  C5_5
REMARK    5  A    between atoms: C5_5  and  C6_6
REMARK    6  A    between atoms: C6_6  and  C27_33
REMARK    7  A    between atoms: C7_7  and  C8_8
REMARK    8  A    between atoms: C8_8  and  C9_9
REMARK    9  A    between atoms: C10_10  and  O6_32
REMARK   10  A    between atoms: C11_11  and  C22_27
REMARK   11  A    between atoms: C14_14  and  O1_15
REMARK   12  A    between atoms: C17_19  and  O5_26
REMARK   13  A    between atoms: C20_22  and  O4_25
REMARK   14  A    between atoms: C22_27  and  C23_28
REMARK   15  A    between atoms: C24_29  and  C25_30
REMARK   16  A    between atoms: C24_29  and  C26_31
REMARK                            x       y       z     vdW  Elec       q    Type
REMARK                         _______ _______ _______ _____ _____    ______ ____
ROOT
ATOM     11  C   UNL     1      47.145  19.658  21.708  0.00  0.00    -0.156 A 
ATOM     12  C   UNL     1      46.513  18.420  21.732  0.00  0.00    +0.198 A 
ATOM     15  C   UNL     1      45.288  18.236  21.110  0.00  0.00    -0.132 A 
ATOM     21  C   UNL     1      44.672  19.294  20.454  0.00  0.00    +0.183 A 
ATOM     22  C   UNL     1      45.306  20.548  20.439  0.00  0.00    -0.262 A 
ATOM     23  C   UNL     1      44.630  21.669  19.761  0.00  0.00    +0.445 A 
ATOM     24  C   UNL     1      43.215  21.446  19.401  0.00  0.00    -0.244 A 
ATOM     25  C   UNL     1      42.397  22.509  18.999  0.00  0.00    +0.194 A 
ATOM     28  C   UNL     1      41.073  22.266  18.676  0.00  0.00    -0.013 A 
ATOM     29  C   UNL     1      40.565  20.980  18.750  0.00  0.00    +0.088 A 
ATOM     30  C   UNL     1      41.366  19.922  19.143  0.00  0.00    +0.075 A 
ATOM     33  C   UNL     1      42.704  20.142  19.471  0.00  0.00    +0.146 A 
ATOM     34  O   UNL     1      45.203  22.714  19.512  0.00  0.00    -0.422 OA
ATOM     35  O   UNL     1      43.485  19.106  19.843  0.00  0.00    -0.210 OA
ATOM     36  C   UNL     1      46.546  20.727  21.066  0.00  0.00    +0.215 A 
ENDROOT
BRANCH  12  13
ATOM     13  O   UNL     1      47.103  17.379  22.373  0.00  0.00    -0.478 OA
ATOM     14  H   UNL     1      46.529  16.609  22.485  0.00  0.00    +0.398 HD
ENDBRANCH  12  13
BRANCH  25  26
ATOM     26  O   UNL     1      42.899  23.768  18.926  0.00  0.00    -0.477 OA
ATOM     27  H   UNL     1      42.523  24.301  18.213  0.00  0.00    +0.403 HD
ENDBRANCH  25  26
BRANCH  30  31
ATOM     31  O   UNL     1      40.849  18.666  19.209  0.00  0.00    -0.478 OA
ATOM     32  H   UNL     1      40.492  18.343  18.370  0.00  0.00    +0.392 HD
ENDBRANCH  30  31
BRANCH  36  37
ATOM     37  O   UNL     1      47.156  21.938  21.041  0.00  0.00    -0.471 OA
ATOM     38  H   UNL     1      46.870  22.507  20.312  0.00  0.00    +0.401 HD
ENDBRANCH  36  37
BRANCH  11  10
ATOM     10  C   UNL     1      48.479  19.838  22.386  0.00  0.00    +0.131 C 
BRANCH  10   9
ATOM      7  C   UNL     1      50.516  20.719  21.370  0.00  0.00    -0.124 C 
ATOM      8  C   UNL     1      50.554  21.743  22.477  0.00  0.00    +0.076 C 
ATOM      9  C   UNL     1      49.575  19.810  21.352  0.00  0.00    -0.045 C 
BRANCH   7   6
ATOM      6  C   UNL     1      51.563  20.743  20.286  0.00  0.00    +0.059 C 
BRANCH   6   5
ATOM      5  C   UNL     1      50.881  20.877  18.923  0.00  0.00    +0.053 C 
BRANCH   5   4
ATOM      1  C   UNL     1      51.499  21.331  16.208  0.00  0.00    +0.071 C 
ATOM      2  C   UNL     1      51.525  19.931  16.765  0.00  0.00    -0.130 C 
ATOM      3  C   UNL     1      51.815  18.764  15.857  0.00  0.00    +0.072 C 
ATOM      4  C   UNL     1      51.296  19.728  18.039  0.00  0.00    -0.062 C 
ENDBRANCH   5   4
ENDBRANCH   6   5
ENDBRANCH   7   6
ENDBRANCH  10   9
ENDBRANCH  11  10
BRANCH  15  16
ATOM     16  C   UNL     1      44.622  16.885  21.147  0.00  0.00    +0.135 C 
BRANCH  16  17
ATOM     17  C   UNL     1      45.075  16.068  19.965  0.00  0.00    -0.054 C 
ATOM     18  C   UNL     1      45.355  14.798  20.115  0.00  0.00    -0.126 C 
ATOM     19  C   UNL     1      45.663  13.947  18.910  0.00  0.00    +0.073 C 
ATOM     20  C   UNL     1      45.368  14.187  21.493  0.00  0.00    +0.076 C 
ENDBRANCH  16  17
ENDBRANCH  15  16
TORSDOF 11
ENDMDL
MODEL 2
REMARK VINA RESULT:      -6.7      3.075      8.367
REMARK  Name = ZINC95485922
REMARK  16 active torsions:
REMARK  status: ('A' for Active; 'I' for Inactive)
REMARK    1  A    between atoms: C1_1  and  C2_2
REMARK    2  A    between atoms: C2_2  and  C28_34
REMARK    3  A    between atoms: C3_3  and  C4_4
REMARK    4  A    between atoms: C4_4  and  C5_5
REMARK    5  A    between atoms: C5_5  and  C6_6
REMARK    6  A    between atoms: C6_6  and  C27_33
REMARK    7  A    between atoms: C7_7  and  C8_8
REMARK    8  A    between atoms: C8_8  and  C9_9
REMARK    9  A    between atoms: C10_10  and  O6_32
REMARK   10  A    between atoms: C11_11  and  C22_27
REMARK   11  A    between atoms: C14_14  and  O1_15
REMARK   12  A    between atoms: C17_19  and  O5_26
REMARK   13  A    between atoms: C20_22  and  O4_25
REMARK   14  A    between atoms: C22_27  and  C23_28
REMARK   15  A    between atoms: C24_29  and  C25_30
REMARK   16  A    between atoms: C24_29  and  C26_31
REMARK                            x       y       z     vdW  Elec       q    Type
REMARK                         _______ _______ _______ _____ _____    ______ ____
ROOT
ATOM     11  C   UNL     1      46.751  19.010  20.236  0.00  0.00    -0.156 A 
ATOM     12  C   UNL     1      47.980  19.661  20.226  0.00  0.00    +0.198 A 
ATOM     15  C   UNL     1      49.029  19.184  19.456  0.00  0.00    -0.132 A 
ATOM     21  C   UNL     1      48.866  18.042  18.683  0.00  0.00    +0.183 A 
ATOM     22  C   UNL     1      47.626  17.378  18.701  0.00  0.00    -0.262 A 
ATOM     23  C   UNL     1      47.473  16.153  17.895  0.00  0.00    +0.445 A 
ATOM     24  C   UNL     1      48.722  15.572  17.362  0.00  0.00    -0.244 A 
ATOM     25  C   UNL     1      48.741  14.284  16.813  0.00  0.00    +0.194 A 
ATOM     28  C   UNL     1      49.931  13.767  16.329  0.00  0.00    -0.013 A 
ATOM     29  C   UNL     1      51.091  14.521  16.388  0.00  0.00    +0.088 A 
ATOM     30  C   UNL     1      51.081  15.796  16.924  0.00  0.00    +0.075 A 
ATOM     33  C   UNL     1      49.895  16.340  17.416  0.00  0.00    +0.146 A 
ATOM     34  O   UNL     1      46.385  15.651  17.683  0.00  0.00    -0.422 OA
ATOM     35  O   UNL     1      49.887  17.588  17.929  0.00  0.00    -0.210 OA
ATOM     36  C   UNL     1      46.568  17.867  19.479  0.00  0.00    +0.215 A 
ENDROOT
BRANCH  12  13
ATOM     13  O   UNL     1      48.154  20.776  20.979  0.00  0.00    -0.478 OA
ATOM     14  H   UNL     1      47.595  21.519  20.717  0.00  0.00    +0.398 HD
ENDBRANCH  12  13
BRANCH  25  26
ATOM     26  O   UNL     1      47.602  13.548  16.757  0.00  0.00    -0.477 OA
ATOM     27  H   UNL     1      47.703  12.641  17.077  0.00  0.00    +0.403 HD
ENDBRANCH  25  26
BRANCH  30  31
ATOM     31  O   UNL     1      52.231  16.522  16.972  0.00  0.00    -0.478 OA
ATOM     32  H   UNL     1      52.688  16.589  16.123  0.00  0.00    +0.392 HD
ENDBRANCH  30  31
BRANCH  36  37
ATOM     37  O   UNL     1      45.373  17.226  19.485  0.00  0.00    -0.471 OA
ATOM     38  H   UNL     1      45.422  16.301  19.209  0.00  0.00    +0.401 HD
ENDBRANCH  36  37
BRANCH  11  10
ATOM     10  C   UNL     1      45.620  19.546  21.075  0.00  0.00    +0.131 C 
BRANCH  10   9
ATOM      7  C   UNL     1      44.423  21.613  20.569  0.00  0.00    -0.124 C 
ATOM      8  C   UNL     1      45.069  22.216  21.791  0.00  0.00    +0.076 C 
ATOM      9  C   UNL     1      44.711  20.385  20.215  0.00  0.00    -0.045 C 
BRANCH   7   6
ATOM      6  C   UNL     1      43.446  22.422  19.757  0.00  0.00    +0.059 C 
BRANCH   6   5
ATOM      5  C   UNL     1      42.624  21.487  18.867  0.00  0.00    +0.053 C 
BRANCH   5   4
ATOM      1  C   UNL     1      40.627  19.688  18.012  0.00  0.00    +0.071 C 
ATOM      2  C   UNL     1      40.250  21.072  18.473  0.00  0.00    -0.130 C 
ATOM      3  C   UNL     1      38.812  21.521  18.414  0.00  0.00    +0.072 C 
ATOM      4  C   UNL     1      41.171  21.886  18.926  0.00  0.00    -0.062 C 
ENDBRANCH   5   4
ENDBRANCH   6   5
ENDBRANCH   7   6
ENDBRANCH  10   9
ENDBRANCH  11  10
BRANCH  15  16
ATOM     16  C   UNL     1      50.352  19.906  19.458  0.00  0.00    +0.135 C 
BRANCH  16  17
ATOM     17  C   UNL     1      50.446  20.787  18.241  0.00  0.00    -0.054 C 
ATOM     18  C   UNL     1      51.477  20.690  17.440  0.00  0.00    -0.126 C 
ATOM     19  C   UNL     1      51.501  21.462  16.146  0.00  0.00    +0.073 C 
ATOM     20  C   UNL     1      52.640  19.806  17.811  0.00  0.00    +0.076 C 
ENDBRANCH  16  17
ENDBRANCH  15  16
TORSDOF 11
ENDMDL
MODEL 3
REMARK VINA RESULT:      -6.5      4.168      9.176
REMARK  Name = ZINC95485922
REMARK  16 active torsions:
REMARK  status: ('A' for Active; 'I' for Inactive)
REMARK    1  A    between atoms: C1_1  and  C2_2
REMARK    2  A    between atoms: C2_2  and  C28_34
REMARK    3  A    between atoms: C3_3  and  C4_4
REMARK    4  A    between atoms: C4_4  and  C5_5
REMARK    5  A    between atoms: C5_5  and  C6_6
REMARK    6  A    between atoms: C6_6  and  C27_33
REMARK    7  A    between atoms: C7_7  and  C8_8
REMARK    8  A    between atoms: C8_8  and  C9_9
REMARK    9  A    between atoms: C10_10  and  O6_32
REMARK   10  A    between atoms: C11_11  and  C22_27
REMARK   11  A    between atoms: C14_14  and  O1_15
REMARK   12  A    between atoms: C17_19  and  O5_26
REMARK   13  A    between atoms: C20_22  and  O4_25
REMARK   14  A    between atoms: C22_27  and  C23_28
REMARK   15  A    between atoms: C24_29  and  C25_30
REMARK   16  A    between atoms: C24_29  and  C26_31
REMARK                            x       y       z     vdW  Elec       q    Type
REMARK                         _______ _______ _______ _____ _____    ______ ____
ROOT
ATOM     11  C   UNL     1      47.698  16.795  19.107  0.00  0.00    -0.156 A 
ATOM     12  C   UNL     1      49.019  17.151  18.859  0.00  0.00    +0.198 A 
ATOM     15  C   UNL     1      49.781  16.451  17.936  0.00  0.00    -0.132 A 
ATOM     21  C   UNL     1      49.232  15.378  17.247  0.00  0.00    +0.183 A 
ATOM     22  C   UNL     1      47.900  15.012  17.507  0.00  0.00    -0.262 A 
ATOM     23  C   UNL     1      47.336  13.854  16.787  0.00  0.00    +0.445 A 
ATOM     24  C   UNL     1      48.309  13.008  16.066  0.00  0.00    -0.244 A 
ATOM     25  C   UNL     1      47.943  11.750  15.572  0.00  0.00    +0.194 A 
ATOM     28  C   UNL     1      48.881  10.979  14.908  0.00  0.00    -0.013 A 
ATOM     29  C   UNL     1      50.172  11.451  14.735  0.00  0.00    +0.088 A 
ATOM     30  C   UNL     1      50.542  12.694  15.216  0.00  0.00    +0.075 A 
ATOM     33  C   UNL     1      49.614  13.491  15.887  0.00  0.00    +0.146 A 
ATOM     34  O   UNL     1      46.143  13.612  16.787  0.00  0.00    -0.422 OA
ATOM     35  O   UNL     1      49.976  14.707  16.345  0.00  0.00    -0.210 OA
ATOM     36  C   UNL     1      47.133  15.725  18.437  0.00  0.00    +0.215 A 
ENDROOT
BRANCH  12  13
ATOM     13  O   UNL     1      49.568  18.196  19.528  0.00  0.00    -0.478 OA
ATOM     14  H   UNL     1      49.681  18.992  18.991  0.00  0.00    +0.398 HD
ENDBRANCH  12  13
BRANCH  25  26
ATOM     26  O   UNL     1      46.677  11.291  15.743  0.00  0.00    -0.477 OA
ATOM     27  H   UNL     1      46.503  10.935  16.625  0.00  0.00    +0.403 HD
ENDBRANCH  25  26
BRANCH  30  31
ATOM     31  O   UNL     1      51.814  13.141  15.035  0.00  0.00    -0.478 OA
ATOM     32  H   UNL     1      51.903  14.102  15.084  0.00  0.00    +0.392 HD
ENDBRANCH  30  31
BRANCH  36  37
ATOM     37  O   UNL     1      45.846  15.371  18.676  0.00  0.00    -0.471 OA
ATOM     38  H   UNL     1      45.241  15.575  17.950  0.00  0.00    +0.401 HD
ENDBRANCH  36  37
BRANCH  11  10
ATOM     10  C   UNL     1      46.883  17.571  20.110  0.00  0.00    +0.131 C 
BRANCH  10   9
ATOM      7  C   UNL     1      44.908  18.862  19.484  0.00  0.00    -0.124 C 
ATOM      8  C   UNL     1      44.092  17.907  20.318  0.00  0.00    +0.076 C 
ATOM      9  C   UNL     1      46.209  18.729  19.420  0.00  0.00    -0.045 C 
BRANCH   7   6
ATOM      6  C   UNL     1      44.226  19.970  18.723  0.00  0.00    +0.059 C 
BRANCH   6   5
ATOM      5  C   UNL     1      43.387  20.810  19.689  0.00  0.00    +0.053 C 
BRANCH   5   4
ATOM      1  C   UNL     1      40.864  19.663  20.213  0.00  0.00    +0.071 C 
ATOM      2  C   UNL     1      41.000  20.747  19.175  0.00  0.00    -0.130 C 
ATOM      3  C   UNL     1      39.801  21.173  18.368  0.00  0.00    +0.072 C 
ATOM      4  C   UNL     1      42.161  21.321  18.975  0.00  0.00    -0.062 C 
ENDBRANCH   5   4
ENDBRANCH   6   5
ENDBRANCH   7   6
ENDBRANCH  10   9
ENDBRANCH  11  10
BRANCH  15  16
ATOM     16  C   UNL     1      51.210  16.856  17.681  0.00  0.00    +0.135 C 
BRANCH  16  17
ATOM     17  C   UNL     1      51.246  17.949  16.646  0.00  0.00    -0.054 C 
ATOM     18  C   UNL     1      51.949  19.033  16.861  0.00  0.00    -0.126 C 
ATOM     19  C   UNL     1      52.107  20.058  15.768  0.00  0.00    +0.073 C 
ATOM     20  C   UNL     1      52.600  19.255  18.202  0.00  0.00    +0.076 C 
ENDBRANCH  16  17
ENDBRANCH  15  16
TORSDOF 11
ENDMDL
MODEL 4
REMARK VINA RESULT:      -6.4      2.105      5.007
REMARK  Name = ZINC95485922
REMARK  16 active torsions:
REMARK  status: ('A' for Active; 'I' for Inactive)
REMARK    1  A    between atoms: C1_1  and  C2_2
REMARK    2  A    between atoms: C2_2  and  C28_34
REMARK    3  A    between atoms: C3_3  and  C4_4
REMARK    4  A    between atoms: C4_4  and  C5_5
REMARK    5  A    between atoms: C5_5  and  C6_6
REMARK    6  A    between atoms: C6_6  and  C27_33
REMARK    7  A    between atoms: C7_7  and  C8_8
REMARK    8  A    between atoms: C8_8  and  C9_9
REMARK    9  A    between atoms: C10_10  and  O6_32
REMARK   10  A    between atoms: C11_11  and  C22_27
REMARK   11  A    between atoms: C14_14  and  O1_15
REMARK   12  A    between atoms: C17_19  and  O5_26
REMARK   13  A    between atoms: C20_22  and  O4_25
REMARK   14  A    between atoms: C22_27  and  C23_28
REMARK   15  A    between atoms: C24_29  and  C25_30
REMARK   16  A    between atoms: C24_29  and  C26_31
REMARK                            x       y       z     vdW  Elec       q    Type
REMARK                         _______ _______ _______ _____ _____    ______ ____
ROOT
ATOM     11  C   UNL     1      46.839  17.113  21.115  0.00  0.00    -0.156 A 
ATOM     12  C   UNL     1      47.724  18.186  21.110  0.00  0.00    +0.198 A 
ATOM     15  C   UNL     1      47.268  19.481  20.924  0.00  0.00    -0.132 A 
ATOM     21  C   UNL     1      45.914  19.725  20.736  0.00  0.00    +0.183 A 
ATOM     22  C   UNL     1      45.021  18.640  20.730  0.00  0.00    -0.262 A 
ATOM     23  C   UNL     1      43.588  18.909  20.505  0.00  0.00    +0.445 A 
ATOM     24  C   UNL     1      43.256  20.265  20.023  0.00  0.00    -0.244 A 
ATOM     25  C   UNL     1      41.981  20.560  19.525  0.00  0.00    +0.194 A 
ATOM     28  C   UNL     1      41.705  21.840  19.073  0.00  0.00    -0.013 A 
ATOM     29  C   UNL     1      42.685  22.818  19.117  0.00  0.00    +0.088 A 
ATOM     30  C   UNL     1      43.946  22.537  19.611  0.00  0.00    +0.075 A 
ATOM     33  C   UNL     1      44.248  21.256  20.073  0.00  0.00    +0.146 A 
ATOM     34  O   UNL     1      42.733  18.066  20.704  0.00  0.00    -0.422 OA
ATOM     35  O   UNL     1      45.476  20.988  20.565  0.00  0.00    -0.210 OA
ATOM     36  C   UNL     1      45.487  17.333  20.923  0.00  0.00    +0.215 A 
ENDROOT
BRANCH  12  13
ATOM     13  O   UNL     1      49.050  17.961  21.290  0.00  0.00    -0.478 OA
ATOM     14  H   UNL     1      49.544  18.736  21.590  0.00  0.00    +0.398 HD
ENDBRANCH  12  13
BRANCH  25  26
ATOM     26  O   UNL     1      41.024  19.599  19.484  0.00  0.00    -0.477 OA
ATOM     27  H   UNL     1      40.338  19.698  20.158  0.00  0.00    +0.403 HD
ENDBRANCH  25  26
BRANCH  30  31
ATOM     31  O   UNL     1      44.894  23.511  19.646  0.00  0.00    -0.478 OA
ATOM     32  H   UNL     1      45.019  23.969  18.803  0.00  0.00    +0.392 HD
ENDBRANCH  30  31
BRANCH  36  37
ATOM     37  O   UNL     1      44.618  16.291  20.925  0.00  0.00    -0.471 OA
ATOM     38  H   UNL     1      44.549  15.839  21.777  0.00  0.00    +0.401 HD
ENDBRANCH  36  37
BRANCH  11  10
ATOM     10  C   UNL     1      47.352  15.712  21.325  0.00  0.00    +0.131 C 
BRANCH  10   9
ATOM      7  C   UNL     1      48.382  14.582  19.422  0.00  0.00    -0.124 C 
ATOM      8  C   UNL     1      49.720  14.839  20.069  0.00  0.00    +0.076 C 
ATOM      9  C   UNL     1      47.281  14.952  20.025  0.00  0.00    -0.045 C 
BRANCH   7   6
ATOM      6  C   UNL     1      48.313  13.899  18.081  0.00  0.00    +0.059 C 
BRANCH   6   5
ATOM      5  C   UNL     1      48.553  14.926  16.972  0.00  0.00    +0.053 C 
BRANCH   5   4
ATOM      1  C   UNL     1      49.120  17.632  17.530  0.00  0.00    +0.071 C 
ATOM      2  C   UNL     1      47.698  17.190  17.301  0.00  0.00    -0.130 C 
ATOM      3  C   UNL     1      46.570  18.180  17.436  0.00  0.00    +0.072 C 
ATOM      4  C   UNL     1      47.441  15.945  16.983  0.00  0.00    -0.062 C 
ENDBRANCH   5   4
ENDBRANCH   6   5
ENDBRANCH   7   6
ENDBRANCH  10   9
ENDBRANCH  11  10
BRANCH  15  16
ATOM     16  C   UNL     1      48.244  20.629  20.924  0.00  0.00    +0.135 C 
BRANCH  16  17
ATOM     17  C   UNL     1      48.813  20.806  19.540  0.00  0.00    -0.054 C 
ATOM     18  C   UNL     1      50.110  20.841  19.364  0.00  0.00    -0.126 C 
ATOM     19  C   UNL     1      50.680  20.867  17.970  0.00  0.00    +0.073 C 
ATOM     20  C   UNL     1      51.032  20.855  20.556  0.00  0.00    +0.076 C 
ENDBRANCH  16  17
ENDBRANCH  15  16
TORSDOF 11
ENDMDL
MODEL 5
REMARK VINA RESULT:      -6.3      3.889      8.623
REMARK  Name = ZINC95485922
REMARK  16 active torsions:
REMARK  status: ('A' for Active; 'I' for Inactive)
REMARK    1  A    between atoms: C1_1  and  C2_2
REMARK    2  A    between atoms: C2_2  and  C28_34
REMARK    3  A    between atoms: C3_3  and  C4_4
REMARK    4  A    between atoms: C4_4  and  C5_5
REMARK    5  A    between atoms: C5_5  and  C6_6
REMARK    6  A    between atoms: C6_6  and  C27_33
REMARK    7  A    between atoms: C7_7  and  C8_8
REMARK    8  A    between atoms: C8_8  and  C9_9
REMARK    9  A    between atoms: C10_10  and  O6_32
REMARK   10  A    between atoms: C11_11  and  C22_27
REMARK   11  A    between atoms: C14_14  and  O1_15
REMARK   12  A    between atoms: C17_19  and  O5_26
REMARK   13  A    between atoms: C20_22  and  O4_25
REMARK   14  A    between atoms: C22_27  and  C23_28
REMARK   15  A    between atoms: C24_29  and  C25_30
REMARK   16  A    between atoms: C24_29  and  C26_31
REMARK                            x       y       z     vdW  Elec       q    Type
REMARK                         _______ _______ _______ _____ _____    ______ ____
ROOT
ATOM     11  C   UNL     1      46.134  16.277  19.423  0.00  0.00    -0.156 A 
ATOM     12  C   UNL     1      47.203  16.964  18.858  0.00  0.00    +0.198 A 
ATOM     15  C   UNL     1      47.939  16.407  17.824  0.00  0.00    -0.132 A 
ATOM     21  C   UNL     1      47.617  15.147  17.338  0.00  0.00    +0.183 A 
ATOM     22  C   UNL     1      46.544  14.447  17.916  0.00  0.00    -0.262 A 
ATOM     23  C   UNL     1      46.228  13.099  17.408  0.00  0.00    +0.445 A 
ATOM     24  C   UNL     1      47.245  12.487  16.529  0.00  0.00    -0.244 A 
ATOM     25  C   UNL     1      47.189  11.128  16.200  0.00  0.00    +0.194 A 
ATOM     28  C   UNL     1      48.164  10.584  15.381  0.00  0.00    -0.013 A 
ATOM     29  C   UNL     1      49.184  11.383  14.890  0.00  0.00    +0.088 A 
ATOM     30  C   UNL     1      49.245  12.728  15.206  0.00  0.00    +0.075 A 
ATOM     33  C   UNL     1      48.274  13.299  16.029  0.00  0.00    +0.146 A 
ATOM     34  O   UNL     1      45.193  12.527  17.695  0.00  0.00    -0.422 OA
ATOM     35  O   UNL     1      48.331  14.614  16.326  0.00  0.00    -0.210 OA
ATOM     36  C   UNL     1      45.801  15.017  18.958  0.00  0.00    +0.215 A 
ENDROOT
BRANCH  12  13
ATOM     13  O   UNL     1      47.530  18.196  19.326  0.00  0.00    -0.478 OA
ATOM     14  H   UNL     1      46.931  18.898  19.038  0.00  0.00    +0.398 HD
ENDBRANCH  12  13
BRANCH  25  26
ATOM     26  O   UNL     1      46.188  10.348  16.682  0.00  0.00    -0.477 OA
ATOM     27  H   UNL     1      46.056  10.422  17.637  0.00  0.00    +0.403 HD
ENDBRANCH  25  26
BRANCH  30  31
ATOM     31  O   UNL     1      50.254  13.496  14.714  0.00  0.00    -0.478 OA
ATOM     32  H   UNL     1      50.459  14.270  15.256  0.00  0.00    +0.392 HD
ENDBRANCH  30  31
BRANCH  36  37
ATOM     37  O   UNL     1      44.761  14.340  19.506  0.00  0.00    -0.471 OA
ATOM     38  H   UNL     1      44.233  14.864  20.124  0.00  0.00    +0.401 HD
ENDBRANCH  36  37
BRANCH  11  10
ATOM     10  C   UNL     1      45.343  16.900  20.543  0.00  0.00    +0.131 C 
BRANCH  10   9
ATOM      7  C   UNL     1      43.369  18.329  20.691  0.00  0.00    -0.124 C 
ATOM      8  C   UNL     1      43.208  17.857  22.114  0.00  0.00    +0.076 C 
ATOM      9  C   UNL     1      44.384  17.915  19.975  0.00  0.00    -0.045 C 
BRANCH   7   6
ATOM      6  C   UNL     1      42.362  19.277  20.094  0.00  0.00    +0.059 C 
BRANCH   6   5
ATOM      5  C   UNL     1      43.032  20.109  18.998  0.00  0.00    +0.053 C 
BRANCH   5   4
ATOM      1  C   UNL     1      45.649  21.148  18.837  0.00  0.00    +0.071 C 
ATOM      2  C   UNL     1      44.559  21.945  19.505  0.00  0.00    -0.130 C 
ATOM      3  C   UNL     1      44.882  23.270  20.149  0.00  0.00    +0.072 C 
ATOM      4  C   UNL     1      43.332  21.489  19.527  0.00  0.00    -0.062 C 
ENDBRANCH   5   4
ENDBRANCH   6   5
ENDBRANCH   7   6
ENDBRANCH  10   9
ENDBRANCH  11  10
BRANCH  15  16
ATOM     16  C   UNL     1      49.092  17.171  17.226  0.00  0.00    +0.135 C 
BRANCH  16  17
ATOM     17  C   UNL     1      50.323  16.964  18.069  0.00  0.00    -0.054 C 
ATOM     18  C   UNL     1      51.408  17.655  17.824  0.00  0.00    -0.126 C 
ATOM     19  C   UNL     1      52.589  17.559  18.756  0.00  0.00    +0.073 C 
ATOM     20  C   UNL     1      51.477  18.546  16.610  0.00  0.00    +0.076 C 
ENDBRANCH  16  17
ENDBRANCH  15  16
TORSDOF 11
ENDMDL
MODEL 6
REMARK VINA RESULT:      -6.1      2.579      7.433
REMARK  Name = ZINC95485922
REMARK  16 active torsions:
REMARK  status: ('A' for Active; 'I' for Inactive)
REMARK    1  A    between atoms: C1_1  and  C2_2
REMARK    2  A    between atoms: C2_2  and  C28_34
REMARK    3  A    between atoms: C3_3  and  C4_4
REMARK    4  A    between atoms: C4_4  and  C5_5
REMARK    5  A    between atoms: C5_5  and  C6_6
REMARK    6  A    between atoms: C6_6  and  C27_33
REMARK    7  A    between atoms: C7_7  and  C8_8
REMARK    8  A    between atoms: C8_8  and  C9_9
REMARK    9  A    between atoms: C10_10  and  O6_32
REMARK   10  A    between atoms: C11_11  and  C22_27
REMARK   11  A    between atoms: C14_14  and  O1_15
REMARK   12  A    between atoms: C17_19  and  O5_26
REMARK   13  A    between atoms: C20_22  and  O4_25
REMARK   14  A    between atoms: C22_27  and  C23_28
REMARK   15  A    between atoms: C24_29  and  C25_30
REMARK   16  A    between atoms: C24_29  and  C26_31
REMARK                            x       y       z     vdW  Elec       q    Type
REMARK                         _______ _______ _______ _____ _____    ______ ____
ROOT
ATOM     11  C   UNL     1      47.250  18.678  21.058  0.00  0.00    -0.156 A 
ATOM     12  C   UNL     1      47.400  17.312  20.847  0.00  0.00    +0.198 A 
ATOM     15  C   UNL     1      48.377  16.829  19.991  0.00  0.00    -0.132 A 
ATOM     21  C   UNL     1      49.221  17.709  19.327  0.00  0.00    +0.183 A 
ATOM     22  C   UNL     1      49.062  19.090  19.532  0.00  0.00    -0.262 A 
ATOM     23  C   UNL     1      49.948  20.016  18.802  0.00  0.00    +0.445 A 
ATOM     24  C   UNL     1      50.737  19.421  17.703  0.00  0.00    -0.244 A 
ATOM     25  C   UNL     1      51.406  20.229  16.777  0.00  0.00    +0.194 A 
ATOM     28  C   UNL     1      52.130  19.639  15.755  0.00  0.00    -0.013 A 
ATOM     29  C   UNL     1      52.191  18.259  15.654  0.00  0.00    +0.088 A 
ATOM     30  C   UNL     1      51.537  17.452  16.568  0.00  0.00    +0.075 A 
ATOM     33  C   UNL     1      50.803  18.023  17.607  0.00  0.00    +0.146 A 
ATOM     34  O   UNL     1      50.025  21.197  19.086  0.00  0.00    -0.422 OA
ATOM     35  O   UNL     1      50.176  17.232  18.503  0.00  0.00    -0.210 OA
ATOM     36  C   UNL     1      48.075  19.573  20.401  0.00  0.00    +0.215 A 
ENDROOT
BRANCH  12  13
ATOM     13  O   UNL     1      46.579  16.441  21.488  0.00  0.00    -0.478 OA
ATOM     14  H   UNL     1      45.807  16.854  21.896  0.00  0.00    +0.398 HD
ENDBRANCH  12  13
BRANCH  25  26
ATOM     26  O   UNL     1      51.344  21.581  16.879  0.00  0.00    -0.477 OA
ATOM     27  H   UNL     1      51.477  22.046  16.041  0.00  0.00    +0.403 HD
ENDBRANCH  25  26
BRANCH  30  31
ATOM     31  O   UNL     1      51.610  16.099  16.453  0.00  0.00    -0.478 OA
ATOM     32  H   UNL     1      51.437  15.624  17.277  0.00  0.00    +0.392 HD
ENDBRANCH  30  31
BRANCH  36  37
ATOM     37  O   UNL     1      47.933  20.907  20.600  0.00  0.00    -0.471 OA
ATOM     38  H   UNL     1      47.590  21.384  19.832  0.00  0.00    +0.401 HD
ENDBRANCH  36  37
BRANCH  11  10
ATOM     10  C   UNL     1      46.185  19.184  21.996  0.00  0.00    +0.131 C 
BRANCH  10   9
ATOM      7  C   UNL     1      44.015  19.746  21.029  0.00  0.00    -0.124 C 
ATOM      8  C   UNL     1      44.473  21.182  20.987  0.00  0.00    +0.076 C 
ATOM      9  C   UNL     1      44.826  18.813  21.461  0.00  0.00    -0.045 C 
BRANCH   7   6
ATOM      6  C   UNL     1      42.625  19.385  20.574  0.00  0.00    +0.059 C 
BRANCH   6   5
ATOM      5  C   UNL     1      42.476  19.704  19.085  0.00  0.00    +0.053 C 
BRANCH   5   4
ATOM      1  C   UNL     1      41.594  22.361  18.749  0.00  0.00    +0.071 C 
ATOM      2  C   UNL     1      40.609  21.223  18.677  0.00  0.00    -0.130 C 
ATOM      3  C   UNL     1      39.141  21.508  18.492  0.00  0.00    +0.072 C 
ATOM      4  C   UNL     1      41.029  19.986  18.773  0.00  0.00    -0.062 C 
ENDBRANCH   5   4
ENDBRANCH   6   5
ENDBRANCH   7   6
ENDBRANCH  10   9
ENDBRANCH  11  10
BRANCH  15  16
ATOM     16  C   UNL     1      48.524  15.344  19.779  0.00  0.00    +0.135 C 
BRANCH  16  17
ATOM     17  C   UNL     1      47.660  14.914  18.623  0.00  0.00    -0.054 C 
ATOM     18  C   UNL     1      48.118  14.056  17.746  0.00  0.00    -0.126 C 
ATOM     19  C   UNL     1      47.207  13.512  16.676  0.00  0.00    +0.073 C 
ATOM     20  C   UNL     1      49.558  13.613  17.806  0.00  0.00    +0.076 C 
ENDBRANCH  16  17
ENDBRANCH  15  16
TORSDOF 11
ENDMDL
MODEL 7
REMARK VINA RESULT:      -6.1      2.857      6.843
REMARK  Name = ZINC95485922
REMARK  16 active torsions:
REMARK  status: ('A' for Active; 'I' for Inactive)
REMARK    1  A    between atoms: C1_1  and  C2_2
REMARK    2  A    between atoms: C2_2  and  C28_34
REMARK    3  A    between atoms: C3_3  and  C4_4
REMARK    4  A    between atoms: C4_4  and  C5_5
REMARK    5  A    between atoms: C5_5  and  C6_6
REMARK    6  A    between atoms: C6_6  and  C27_33
REMARK    7  A    between atoms: C7_7  and  C8_8
REMARK    8  A    between atoms: C8_8  and  C9_9
REMARK    9  A    between atoms: C10_10  and  O6_32
REMARK   10  A    between atoms: C11_11  and  C22_27
REMARK   11  A    between atoms: C14_14  and  O1_15
REMARK   12  A    between atoms: C17_19  and  O5_26
REMARK   13  A    between atoms: C20_22  and  O4_25
REMARK   14  A    between atoms: C22_27  and  C23_28
REMARK   15  A    between atoms: C24_29  and  C25_30
REMARK   16  A    between atoms: C24_29  and  C26_31
REMARK                            x       y       z     vdW  Elec       q    Type
REMARK                         _______ _______ _______ _____ _____    ______ ____
ROOT
ATOM     11  C   UNL     1      47.372  17.587  21.438  0.00  0.00    -0.156 A 
ATOM     12  C   UNL     1      47.586  16.328  20.887  0.00  0.00    +0.198 A 
ATOM     15  C   UNL     1      48.548  16.137  19.907  0.00  0.00    -0.132 A 
ATOM     21  C   UNL     1      49.311  17.206  19.459  0.00  0.00    +0.183 A 
ATOM     22  C   UNL     1      49.087  18.481  20.008  0.00  0.00    -0.262 A 
ATOM     23  C   UNL     1      49.887  19.613  19.505  0.00  0.00    +0.445 A 
ATOM     24  C   UNL     1      50.655  19.361  18.269  0.00  0.00    -0.244 A 
ATOM     25  C   UNL     1      51.235  20.415  17.554  0.00  0.00    +0.194 A 
ATOM     28  C   UNL     1      51.942  20.144  16.395  0.00  0.00    -0.013 A 
ATOM     29  C   UNL     1      52.074  18.839  15.950  0.00  0.00    +0.088 A 
ATOM     30  C   UNL     1      51.508  17.791  16.652  0.00  0.00    +0.075 A 
ATOM     33  C   UNL     1      50.792  18.038  17.824  0.00  0.00    +0.146 A 
ATOM     34  O   UNL     1      49.912  20.689  20.074  0.00  0.00    -0.422 OA
ATOM     35  O   UNL     1      50.251  17.011  18.512  0.00  0.00    -0.210 OA
ATOM     36  C   UNL     1      48.116  18.668  21.000  0.00  0.00    +0.215 A 
ENDROOT
BRANCH  12  13
ATOM     13  O   UNL     1      46.844  15.275  21.314  0.00  0.00    -0.478 OA
ATOM     14  H   UNL     1      45.937  15.271  20.982  0.00  0.00    +0.398 HD
ENDBRANCH  12  13
BRANCH  25  26
ATOM     26  O   UNL     1      51.105  21.693  17.993  0.00  0.00    -0.477 OA
ATOM     27  H   UNL     1      50.445  22.209  17.510  0.00  0.00    +0.403 HD
ENDBRANCH  25  26
BRANCH  30  31
ATOM     31  O   UNL     1      51.649  16.516  16.200  0.00  0.00    -0.478 OA
ATOM     32  H   UNL     1      52.497  16.343  15.769  0.00  0.00    +0.392 HD
ENDBRANCH  30  31
BRANCH  36  37
ATOM     37  O   UNL     1      47.911  19.899  21.531  0.00  0.00    -0.471 OA
ATOM     38  H   UNL     1      48.691  20.471  21.511  0.00  0.00    +0.401 HD
ENDBRANCH  36  37
BRANCH  11  10
ATOM     10  C   UNL     1      46.325  17.776  22.505  0.00  0.00    +0.131 C 
BRANCH  10   9
ATOM      7  C   UNL     1      44.041  18.157  21.735  0.00  0.00    -0.124 C 
ATOM      8  C   UNL     1      43.753  16.713  22.063  0.00  0.00    +0.076 C 
ATOM      9  C   UNL     1      45.225  18.660  21.979  0.00  0.00    -0.045 C 
BRANCH   7   6
ATOM      6  C   UNL     1      42.966  19.020  21.128  0.00  0.00    +0.059 C 
BRANCH   6   5
ATOM      5  C   UNL     1      43.197  19.137  19.620  0.00  0.00    +0.053 C 
BRANCH   5   4
ATOM      1  C   UNL     1      45.618  18.633  18.263  0.00  0.00    +0.071 C 
ATOM      2  C   UNL     1      45.309  20.019  18.768  0.00  0.00    -0.130 C 
ATOM      3  C   UNL     1      46.323  21.123  18.609  0.00  0.00    +0.072 C 
ATOM      4  C   UNL     1      44.159  20.265  19.345  0.00  0.00    -0.062 C 
ENDBRANCH   5   4
ENDBRANCH   6   5
ENDBRANCH   7   6
ENDBRANCH  10   9
ENDBRANCH  11  10
BRANCH  15  16
ATOM     16  C   UNL     1      48.764  14.763  19.326  0.00  0.00    +0.135 C 
BRANCH  16  17
ATOM     17  C   UNL     1      47.868  14.576  18.130  0.00  0.00    -0.054 C 
ATOM     18  C   UNL     1      48.322  13.978  17.058  0.00  0.00    -0.126 C 
ATOM     19  C   UNL     1      47.387  13.657  15.920  0.00  0.00    +0.073 C 
ATOM     20  C   UNL     1      49.781  13.609  16.961  0.00  0.00    +0.076 C 
ENDBRANCH  16  17
ENDBRANCH  15  16
TORSDOF 11
ENDMDL
MODEL 8
REMARK VINA RESULT:      -5.9      2.460      5.856
REMARK  Name = ZINC95485922
REMARK  16 active torsions:
REMARK  status: ('A' for Active; 'I' for Inactive)
REMARK    1  A    between atoms: C1_1  and  C2_2
REMARK    2  A    between atoms: C2_2  and  C28_34
REMARK    3  A    between atoms: C3_3  and  C4_4
REMARK    4  A    between atoms: C4_4  and  C5_5
REMARK    5  A    between atoms: C5_5  and  C6_6
REMARK    6  A    between atoms: C6_6  and  C27_33
REMARK    7  A    between atoms: C7_7  and  C8_8
REMARK    8  A    between atoms: C8_8  and  C9_9
REMARK    9  A    between atoms: C10_10  and  O6_32
REMARK   10  A    between atoms: C11_11  and  C22_27
REMARK   11  A    between atoms: C14_14  and  O1_15
REMARK   12  A    between atoms: C17_19  and  O5_26
REMARK   13  A    between atoms: C20_22  and  O4_25
REMARK   14  A    between atoms: C22_27  and  C23_28
REMARK   15  A    between atoms: C24_29  and  C25_30
REMARK   16  A    between atoms: C24_29  and  C26_31
REMARK                            x       y       z     vdW  Elec       q    Type
REMARK                         _______ _______ _______ _____ _____    ______ ____
ROOT
ATOM     11  C   UNL     1      47.009  17.231  19.807  0.00  0.00    -0.156 A 
ATOM     12  C   UNL     1      47.938  18.255  19.952  0.00  0.00    +0.198 A 
ATOM     15  C   UNL     1      47.529  19.575  20.053  0.00  0.00    -0.132 A 
ATOM     21  C   UNL     1      46.178  19.894  20.006  0.00  0.00    +0.183 A 
ATOM     22  C   UNL     1      45.240  18.859  19.849  0.00  0.00    -0.262 A 
ATOM     23  C   UNL     1      43.810  19.213  19.776  0.00  0.00    +0.445 A 
ATOM     24  C   UNL     1      43.509  20.647  19.591  0.00  0.00    -0.244 A 
ATOM     25  C   UNL     1      42.222  21.075  19.246  0.00  0.00    +0.194 A 
ATOM     28  C   UNL     1      41.976  22.426  19.072  0.00  0.00    -0.013 A 
ATOM     29  C   UNL     1      42.998  23.345  19.240  0.00  0.00    +0.088 A 
ATOM     30  C   UNL     1      44.273  22.933  19.585  0.00  0.00    +0.075 A 
ATOM     33  C   UNL     1      44.545  21.577  19.767  0.00  0.00    +0.146 A 
ATOM     34  O   UNL     1      42.932  18.374  19.864  0.00  0.00    -0.422 OA
ATOM     35  O   UNL     1      45.787  21.179  20.114  0.00  0.00    -0.210 OA
ATOM     36  C   UNL     1      45.659  17.526  19.751  0.00  0.00    +0.215 A 
ENDROOT
BRANCH  12  13
ATOM     13  O   UNL     1      49.262  17.957  19.995  0.00  0.00    -0.478 OA
ATOM     14  H   UNL     1      49.516  17.212  19.435  0.00  0.00    +0.398 HD
ENDBRANCH  12  13
BRANCH  25  26
ATOM     26  O   UNL     1      41.222  20.171  19.083  0.00  0.00    -0.477 OA
ATOM     27  H   UNL     1      41.000  19.680  19.886  0.00  0.00    +0.403 HD
ENDBRANCH  25  26
BRANCH  30  31
ATOM     31  O   UNL     1      45.263  23.851  19.746  0.00  0.00    -0.478 OA
ATOM     32  H   UNL     1      45.136  24.660  19.233  0.00  0.00    +0.392 HD
ENDBRANCH  30  31
BRANCH  36  37
ATOM     37  O   UNL     1      44.747  16.532  19.607  0.00  0.00    -0.471 OA
ATOM     38  H   UNL     1      43.923  16.813  19.186  0.00  0.00    +0.401 HD
ENDBRANCH  36  37
BRANCH  11  10
ATOM     10  C   UNL     1      47.472  15.800  19.704  0.00  0.00    +0.131 C 
BRANCH  10   9
ATOM      7  C   UNL     1      47.073  14.353  17.779  0.00  0.00    -0.124 C 
ATOM      8  C   UNL     1      46.172  13.527  18.662  0.00  0.00    +0.076 C 
ATOM      9  C   UNL     1      47.644  15.432  18.253  0.00  0.00    -0.045 C 
BRANCH   7   6
ATOM      6  C   UNL     1      47.316  13.937  16.351  0.00  0.00    +0.059 C 
BRANCH   6   5
ATOM      5  C   UNL     1      48.802  13.634  16.154  0.00  0.00    +0.053 C 
BRANCH   5   4
ATOM      1  C   UNL     1      50.790  13.449  18.146  0.00  0.00    +0.071 C 
ATOM      2  C   UNL     1      50.094  12.206  17.656  0.00  0.00    -0.130 C 
ATOM      3  C   UNL     1      50.505  10.854  18.181  0.00  0.00    +0.072 C 
ATOM      4  C   UNL     1      49.129  12.299  16.774  0.00  0.00    -0.062 C 
ENDBRANCH   5   4
ENDBRANCH   6   5
ENDBRANCH   7   6
ENDBRANCH  10   9
ENDBRANCH  11  10
BRANCH  15  16
ATOM     16  C   UNL     1      48.553  20.669  20.211  0.00  0.00    +0.135 C 
BRANCH  16  17
ATOM     17  C   UNL     1      49.209  20.940  18.883  0.00  0.00    -0.054 C 
ATOM     18  C   UNL     1      50.515  20.995  18.796  0.00  0.00    -0.126 C 
ATOM     19  C   UNL     1      51.176  21.116  17.447  0.00  0.00    +0.073 C 
ATOM     20  C   UNL     1      51.357  20.935  20.044  0.00  0.00    +0.076 C 
ENDBRANCH  16  17
ENDBRANCH  15  16
TORSDOF 11
ENDMDL
MODEL 9
REMARK VINA RESULT:      -5.9      4.230      7.788
REMARK  Name = ZINC95485922
REMARK  16 active torsions:
REMARK  status: ('A' for Active; 'I' for Inactive)
REMARK    1  A    between atoms: C1_1  and  C2_2
REMARK    2  A    between atoms: C2_2  and  C28_34
REMARK    3  A    between atoms: C3_3  and  C4_4
REMARK    4  A    between atoms: C4_4  and  C5_5
REMARK    5  A    between atoms: C5_5  and  C6_6
REMARK    6  A    between atoms: C6_6  and  C27_33
REMARK    7  A    between atoms: C7_7  and  C8_8
REMARK    8  A    between atoms: C8_8  and  C9_9
REMARK    9  A    between atoms: C10_10  and  O6_32
REMARK   10  A    between atoms: C11_11  and  C22_27
REMARK   11  A    between atoms: C14_14  and  O1_15
REMARK   12  A    between atoms: C17_19  and  O5_26
REMARK   13  A    between atoms: C20_22  and  O4_25
REMARK   14  A    between atoms: C22_27  and  C23_28
REMARK   15  A    between atoms: C24_29  and  C25_30
REMARK   16  A    between atoms: C24_29  and  C26_31
REMARK                            x       y       z     vdW  Elec       q    Type
REMARK                         _______ _______ _______ _____ _____    ______ ____
ROOT
ATOM     11  C   UNL     1      49.894  17.263  17.276  0.00  0.00    -0.156 A 
ATOM     12  C   UNL     1      48.531  17.411  17.511  0.00  0.00    +0.198 A 
ATOM     15  C   UNL     1      47.676  16.322  17.437  0.00  0.00    -0.132 A 
ATOM     21  C   UNL     1      48.172  15.064  17.123  0.00  0.00    +0.183 A 
ATOM     22  C   UNL     1      49.548  14.917  16.876  0.00  0.00    -0.262 A 
ATOM     23  C   UNL     1      50.059  13.581  16.519  0.00  0.00    +0.445 A 
ATOM     24  C   UNL     1      49.038  12.571  16.176  0.00  0.00    -0.244 A 
ATOM     25  C   UNL     1      49.396  11.359  15.573  0.00  0.00    +0.194 A 
ATOM     28  C   UNL     1      48.412  10.438  15.257  0.00  0.00    -0.013 A 
ATOM     29  C   UNL     1      47.085  10.715  15.539  0.00  0.00    +0.088 A 
ATOM     30  C   UNL     1      46.721  11.907  16.139  0.00  0.00    +0.075 A 
ATOM     33  C   UNL     1      47.694  12.851  16.468  0.00  0.00    +0.146 A 
ATOM     34  O   UNL     1      51.250  13.326  16.508  0.00  0.00    -0.422 OA
ATOM     35  O   UNL     1      47.337  14.008  17.063  0.00  0.00    -0.210 OA
ATOM     36  C   UNL     1      50.408  16.020  16.955  0.00  0.00    +0.215 A 
ENDROOT
BRANCH  12  13
ATOM     13  O   UNL     1      48.032  18.636  17.815  0.00  0.00    -0.478 OA
ATOM     14  H   UNL     1      47.392  18.632  18.539  0.00  0.00    +0.398 HD
ENDBRANCH  12  13
BRANCH  25  26
ATOM     26  O   UNL     1      50.698  11.091  15.299  0.00  0.00    -0.477 OA
ATOM     27  H   UNL     1      51.298  11.828  15.478  0.00  0.00    +0.403 HD
ENDBRANCH  25  26
BRANCH  30  31
ATOM     31  O   UNL     1      45.412  12.160  16.408  0.00  0.00    -0.478 OA
ATOM     32  H   UNL     1      45.187  12.110  17.347  0.00  0.00    +0.392 HD
ENDBRANCH  30  31
BRANCH  36  37
ATOM     37  O   UNL     1      51.736  15.869  16.723  0.00  0.00    -0.471 OA
ATOM     38  H   UNL     1      51.985  14.982  16.429  0.00  0.00    +0.401 HD
ENDBRANCH  36  37
BRANCH  11  10
ATOM     10  C   UNL     1      50.809  18.457  17.366  0.00  0.00    +0.131 C 
BRANCH  10   9
ATOM      7  C   UNL     1      51.312  19.966  19.217  0.00  0.00    -0.124 C 
ATOM      8  C   UNL     1      51.112  21.113  18.259  0.00  0.00    +0.076 C 
ATOM      9  C   UNL     1      51.132  18.735  18.811  0.00  0.00    -0.045 C 
BRANCH   7   6
ATOM      6  C   UNL     1      51.720  20.238  20.642  0.00  0.00    +0.059 C 
BRANCH   6   5
ATOM      5  C   UNL     1      50.604  19.788  21.587  0.00  0.00    +0.053 C 
BRANCH   5   4
ATOM      1  C   UNL     1      48.095  18.545  21.251  0.00  0.00    +0.071 C 
ATOM      2  C   UNL     1      48.219  20.041  21.129  0.00  0.00    -0.130 C 
ATOM      3  C   UNL     1      47.014  20.870  20.760  0.00  0.00    +0.072 C 
ATOM      4  C   UNL     1      49.372  20.623  21.343  0.00  0.00    -0.062 C 
ENDBRANCH   5   4
ENDBRANCH   6   5
ENDBRANCH   7   6
ENDBRANCH  10   9
ENDBRANCH  11  10
BRANCH  15  16
ATOM     16  C   UNL     1      46.203  16.505  17.697  0.00  0.00    +0.135 C 
BRANCH  16  17
ATOM     17  C   UNL     1      45.892  16.120  19.120  0.00  0.00    -0.054 C 
ATOM     18  C   UNL     1      45.153  16.904  19.864  0.00  0.00    -0.126 C 
ATOM     19  C   UNL     1      44.718  16.452  21.235  0.00  0.00    +0.073 C 
ATOM     20  C   UNL     1      44.737  18.259  19.351  0.00  0.00    +0.076 C 
ENDBRANCH  16  17
ENDBRANCH  15  16
TORSDOF 11
ENDMDL
