MODEL 1
REMARK VINA RESULT:      -7.3      0.000      0.000
REMARK  Name = ZINC95485887
REMARK  17 active torsions:
REMARK  status: ('A' for Active; 'I' for Inactive)
REMARK    1  A    between atoms: C1_1  and  N1_2
REMARK    2  A    between atoms: C6_7  and  O6_50
REMARK    3  A    between atoms: C7_8  and  C19_22
REMARK    4  A    between atoms: C10_11  and  C11_13
REMARK    5  A    between atoms: C11_13  and  C12_14
REMARK    6  A    between atoms: C17_19  and  O1_20
REMARK    7  A    between atoms: O1_20  and  C18_21
REMARK    8  A    between atoms: C19_22  and  C20_23
REMARK    9  A    between atoms: C24_27  and  O3_31
REMARK   10  A    between atoms: C25_28  and  O2_29
REMARK   11  A    between atoms: O2_29  and  C26_30
REMARK   12  A    between atoms: O3_31  and  C27_32
REMARK   13  A    between atoms: C31_37  and  O5_48
REMARK   14  A    between atoms: C32_38  and  O4_47
REMARK   15  A    between atoms: N2_45  and  C38_46
REMARK   16  A    between atoms: O5_48  and  C39_49
REMARK   17  A    between atoms: O6_50  and  C40_51
REMARK                            x       y       z     vdW  Elec       q    Type
REMARK                         _______ _______ _______ _____ _____    ______ ____
ROOT
ATOM     12  C   UNL     1      46.059  15.200  18.574  0.00  0.00    -0.062 A 
ATOM     13  C   UNL     1      45.724  16.413  19.176  0.00  0.00    -0.045 A 
ATOM     14  C   UNL     1      45.170  16.431  20.425  0.00  0.00    -0.118 A 
ATOM     15  C   UNL     1      44.735  17.648  21.175  0.00  0.00    +0.299 C 
ATOM     16  C   UNL     1      43.880  18.600  20.410  0.00  0.00    -0.104 A 
ATOM     17  C   UNL     1      42.543  18.801  20.675  0.00  0.00    -0.015 A 
ATOM     18  C   UNL     1      41.829  19.727  19.929  0.00  0.00    +0.114 A 
ATOM     21  C   UNL     1      42.459  20.452  18.921  0.00  0.00    +0.123 A 
ATOM     24  C   UNL     1      43.805  20.238  18.653  0.00  0.00    +0.065 A 
ATOM     25  C   UNL     1      44.498  19.311  19.389  0.00  0.00    -0.101 A 
ATOM     26  C   UNL     1      45.934  18.949  19.149  0.00  0.00    +0.073 C 
ATOM     27  C   UNL     1      46.688  18.945  20.469  0.00  0.00    +0.259 C 
ATOM     28  N   UNL     1      45.959  18.371  21.571  0.00  0.00    -0.377 N 
ATOM     29  H   UNL     1      46.575  17.728  22.047  0.00  0.00    +0.426 HD
ATOM     30  C   UNL     1      45.592  19.444  22.505  0.00  0.00    +0.317 C 
ATOM     31  C   UNL     1      44.962  15.215  21.089  0.00  0.00    -0.054 A 
ATOM     32  C   UNL     1      45.293  14.013  20.502  0.00  0.00    +0.114 A 
ATOM     35  C   UNL     1      46.015  17.649  18.390  0.00  0.00    +0.109 C 
ATOM     36  C   UNL     1      45.840  14.000  19.223  0.00  0.00    +0.126 A 
ENDROOT
BRANCH  18  19
ATOM     19  O   UNL     1      40.508  19.929  20.183  0.00  0.00    -0.297 OA
ATOM     20  C   UNL     1      40.054  19.652  21.510  0.00  0.00    +0.248 C 
ENDBRANCH  18  19
BRANCH  21  22
ATOM     22  O   UNL     1      41.757  21.367  18.200  0.00  0.00    -0.470 OA
ATOM     23  H   UNL     1      40.800  21.236  18.223  0.00  0.00    +0.392 HD
ENDBRANCH  21  22
BRANCH  32  33
ATOM     33  O   UNL     1      45.080  12.846  21.167  0.00  0.00    -0.297 OA
ATOM     34  C   UNL     1      45.572  12.761  22.505  0.00  0.00    +0.244 C 
ENDBRANCH  32  33
BRANCH  36  37
ATOM     37  O   UNL     1      46.162  12.824  18.621  0.00  0.00    -0.291 OA
ATOM     38  C   UNL     1      45.321  12.393  17.549  0.00  0.00    +0.226 C 
ENDBRANCH  36  37
BRANCH  12  11
ATOM     11  C   UNL     1      46.661  15.197  17.192  0.00  0.00    +0.147 C 
BRANCH  11  10
ATOM      1  C   UNL     1      52.978  17.924  19.883  0.00  0.00    +0.189 C 
ATOM      2  N   UNL     1      52.298  17.070  18.900  0.00  0.00    -0.523 NA
ATOM      3  C   UNL     1      52.923  15.739  18.835  0.00  0.00    +0.171 C 
ATOM      4  C   UNL     1      52.432  15.034  17.571  0.00  0.00    +0.086 C 
ATOM      5  C   UNL     1      50.928  15.097  17.497  0.00  0.00    -0.017 A 
ATOM      6  C   UNL     1      50.273  14.228  16.639  0.00  0.00    -0.083 A 
ATOM      7  C   UNL     1      48.891  14.254  16.537  0.00  0.00    +0.145 A 
ATOM     10  C   UNL     1      48.164  15.158  17.299  0.00  0.00    -0.122 A 
ATOM     39  C   UNL     1      48.819  16.020  18.153  0.00  0.00    +0.050 A 
ATOM     40  C   UNL     1      50.203  15.990  18.257  0.00  0.00    -0.110 A 
ATOM     41  C   UNL     1      50.869  16.945  19.211  0.00  0.00    +0.187 C 
BRANCH   7   8
ATOM      8  O   UNL     1      48.252  13.402  15.694  0.00  0.00    -0.282 OA
ATOM      9  C   UNL     1      48.991  12.930  14.565  0.00  0.00    +0.231 C 
ENDBRANCH   7   8
BRANCH  41  42
ATOM     42  C   UNL     1      50.206  18.319  19.097  0.00  0.00    +0.102 C 
BRANCH  42  43
ATOM     43  C   UNL     1      50.778  19.057  17.914  0.00  0.00    -0.112 A 
ATOM     44  C   UNL     1      51.027  18.384  16.734  0.00  0.00    +0.034 A 
ATOM     45  C   UNL     1      51.553  19.060  15.648  0.00  0.00    -0.034 A 
ATOM     46  C   UNL     1      51.830  20.412  15.741  0.00  0.00    +0.042 A 
ATOM     47  C   UNL     1      51.582  21.090  16.918  0.00  0.00    -0.084 A 
ATOM     48  C   UNL     1      51.050  20.414  18.008  0.00  0.00    +0.142 A 
BRANCH  48  49
ATOM     49  O   UNL     1      50.801  21.080  19.167  0.00  0.00    -0.299 OA
ATOM     50  C   UNL     1      51.931  21.453  19.956  0.00  0.00    +0.239 C 
ENDBRANCH  48  49
ENDBRANCH  42  43
ENDBRANCH  41  42
ENDBRANCH  11  10
ENDBRANCH  12  11
TORSDOF 10
ENDMDL
MODEL 2
REMARK VINA RESULT:      -7.1      2.464      6.229
REMARK  Name = ZINC95485887
REMARK  17 active torsions:
REMARK  status: ('A' for Active; 'I' for Inactive)
REMARK    1  A    between atoms: C1_1  and  N1_2
REMARK    2  A    between atoms: C6_7  and  O6_50
REMARK    3  A    between atoms: C7_8  and  C19_22
REMARK    4  A    between atoms: C10_11  and  C11_13
REMARK    5  A    between atoms: C11_13  and  C12_14
REMARK    6  A    between atoms: C17_19  and  O1_20
REMARK    7  A    between atoms: O1_20  and  C18_21
REMARK    8  A    between atoms: C19_22  and  C20_23
REMARK    9  A    between atoms: C24_27  and  O3_31
REMARK   10  A    between atoms: C25_28  and  O2_29
REMARK   11  A    between atoms: O2_29  and  C26_30
REMARK   12  A    between atoms: O3_31  and  C27_32
REMARK   13  A    between atoms: C31_37  and  O5_48
REMARK   14  A    between atoms: C32_38  and  O4_47
REMARK   15  A    between atoms: N2_45  and  C38_46
REMARK   16  A    between atoms: O5_48  and  C39_49
REMARK   17  A    between atoms: O6_50  and  C40_51
REMARK                            x       y       z     vdW  Elec       q    Type
REMARK                         _______ _______ _______ _____ _____    ______ ____
ROOT
ATOM     12  C   UNL     1      51.568  16.175  18.090  0.00  0.00    -0.062 A 
ATOM     13  C   UNL     1      51.310  17.468  18.542  0.00  0.00    -0.045 A 
ATOM     14  C   UNL     1      51.578  17.811  19.837  0.00  0.00    -0.118 A 
ATOM     15  C   UNL     1      51.323  19.144  20.464  0.00  0.00    +0.299 C 
ATOM     16  C   UNL     1      49.962  19.708  20.237  0.00  0.00    -0.104 A 
ATOM     17  C   UNL     1      49.016  19.830  21.231  0.00  0.00    -0.015 A 
ATOM     18  C   UNL     1      47.782  20.392  20.936  0.00  0.00    +0.114 A 
ATOM     21  C   UNL     1      47.503  20.835  19.646  0.00  0.00    +0.123 A 
ATOM     24  C   UNL     1      48.458  20.701  18.647  0.00  0.00    +0.065 A 
ATOM     25  C   UNL     1      49.670  20.132  18.947  0.00  0.00    -0.101 A 
ATOM     26  C   UNL     1      50.752  19.877  17.940  0.00  0.00    +0.073 C 
ATOM     27  C   UNL     1      52.083  20.369  18.485  0.00  0.00    +0.259 C 
ATOM     28  N   UNL     1      52.298  20.087  19.881  0.00  0.00    -0.377 N 
ATOM     29  H   UNL     1      53.224  19.697  19.979  0.00  0.00    +0.426 HD
ATOM     30  C   UNL     1      52.240  21.349  20.632  0.00  0.00    +0.317 C 
ATOM     31  C   UNL     1      52.128  16.846  20.690  0.00  0.00    -0.054 A 
ATOM     32  C   UNL     1      52.389  15.567  20.251  0.00  0.00    +0.114 A 
ATOM     35  C   UNL     1      50.749  18.424  17.540  0.00  0.00    +0.109 C 
ATOM     36  C   UNL     1      52.098  15.219  18.935  0.00  0.00    +0.126 A 
ENDROOT
BRANCH  18  19
ATOM     19  O   UNL     1      46.842  20.513  21.911  0.00  0.00    -0.297 OA
ATOM     20  C   UNL     1      46.362  19.303  22.502  0.00  0.00    +0.248 C 
ENDBRANCH  18  19
BRANCH  21  22
ATOM     22  O   UNL     1      46.296  21.396  19.365  0.00  0.00    -0.470 OA
ATOM     23  H   UNL     1      46.209  21.705  18.453  0.00  0.00    +0.392 HD
ENDBRANCH  21  22
BRANCH  32  33
ATOM     33  O   UNL     1      52.922  14.648  21.099  0.00  0.00    -0.297 OA
ATOM     34  C   UNL     1      54.325  14.739  21.358  0.00  0.00    +0.244 C 
ENDBRANCH  32  33
BRANCH  36  37
ATOM     37  O   UNL     1      52.336  13.959  18.486  0.00  0.00    -0.291 OA
ATOM     38  C   UNL     1      51.759  12.884  19.232  0.00  0.00    +0.226 C 
ENDBRANCH  36  37
BRANCH  12  11
ATOM     11  C   UNL     1      51.259  15.811  16.660  0.00  0.00    +0.147 C 
BRANCH  11  10
ATOM      1  C   UNL     1      44.759  12.948  18.693  0.00  0.00    +0.189 C 
ATOM      2  N   UNL     1      46.100  12.741  18.131  0.00  0.00    -0.523 NA
ATOM      3  C   UNL     1      46.036  11.954  16.889  0.00  0.00    +0.171 C 
ATOM      4  C   UNL     1      47.444  11.462  16.553  0.00  0.00    +0.086 C 
ATOM      5  C   UNL     1      48.415  12.614  16.594  0.00  0.00    -0.017 A 
ATOM      6  C   UNL     1      49.649  12.458  15.982  0.00  0.00    -0.083 A 
ATOM      7  C   UNL     1      50.574  13.491  15.999  0.00  0.00    +0.145 A 
ATOM     10  C   UNL     1      50.259  14.684  16.633  0.00  0.00    -0.122 A 
ATOM     39  C   UNL     1      49.029  14.836  17.239  0.00  0.00    +0.050 A 
ATOM     40  C   UNL     1      48.103  13.803  17.218  0.00  0.00    -0.110 A 
ATOM     41  C   UNL     1      46.771  14.023  17.886  0.00  0.00    +0.187 C 
BRANCH   7   8
ATOM      8  O   UNL     1      51.783  13.334  15.400  0.00  0.00    -0.282 OA
ATOM      9  C   UNL     1      51.797  13.281  13.972  0.00  0.00    +0.231 C 
ENDBRANCH   7   8
BRANCH  41  42
ATOM     42  C   UNL     1      46.986  14.743  19.218  0.00  0.00    +0.102 C 
BRANCH  42  43
ATOM     43  C   UNL     1      46.194  16.026  19.230  0.00  0.00    -0.112 A 
ATOM     44  C   UNL     1      46.360  16.949  18.216  0.00  0.00    +0.034 A 
ATOM     45  C   UNL     1      45.635  18.127  18.226  0.00  0.00    -0.034 A 
ATOM     46  C   UNL     1      44.740  18.382  19.250  0.00  0.00    +0.042 A 
ATOM     47  C   UNL     1      44.569  17.460  20.265  0.00  0.00    -0.084 A 
ATOM     48  C   UNL     1      45.293  16.276  20.255  0.00  0.00    +0.142 A 
BRANCH  48  49
ATOM     49  O   UNL     1      45.123  15.365  21.250  0.00  0.00    -0.299 OA
ATOM     50  C   UNL     1      44.346  15.774  22.376  0.00  0.00    +0.239 C 
ENDBRANCH  48  49
ENDBRANCH  42  43
ENDBRANCH  41  42
ENDBRANCH  11  10
ENDBRANCH  12  11
TORSDOF 10
ENDMDL
MODEL 3
REMARK VINA RESULT:      -7.0      2.321      4.018
REMARK  Name = ZINC95485887
REMARK  17 active torsions:
REMARK  status: ('A' for Active; 'I' for Inactive)
REMARK    1  A    between atoms: C1_1  and  N1_2
REMARK    2  A    between atoms: C6_7  and  O6_50
REMARK    3  A    between atoms: C7_8  and  C19_22
REMARK    4  A    between atoms: C10_11  and  C11_13
REMARK    5  A    between atoms: C11_13  and  C12_14
REMARK    6  A    between atoms: C17_19  and  O1_20
REMARK    7  A    between atoms: O1_20  and  C18_21
REMARK    8  A    between atoms: C19_22  and  C20_23
REMARK    9  A    between atoms: C24_27  and  O3_31
REMARK   10  A    between atoms: C25_28  and  O2_29
REMARK   11  A    between atoms: O2_29  and  C26_30
REMARK   12  A    between atoms: O3_31  and  C27_32
REMARK   13  A    between atoms: C31_37  and  O5_48
REMARK   14  A    between atoms: C32_38  and  O4_47
REMARK   15  A    between atoms: N2_45  and  C38_46
REMARK   16  A    between atoms: O5_48  and  C39_49
REMARK   17  A    between atoms: O6_50  and  C40_51
REMARK                            x       y       z     vdW  Elec       q    Type
REMARK                         _______ _______ _______ _____ _____    ______ ____
ROOT
ATOM     12  C   UNL     1      46.854  14.551  19.500  0.00  0.00    -0.062 A 
ATOM     13  C   UNL     1      46.979  15.916  19.239  0.00  0.00    -0.045 A 
ATOM     14  C   UNL     1      47.762  16.701  20.039  0.00  0.00    -0.118 A 
ATOM     15  C   UNL     1      47.961  18.175  19.899  0.00  0.00    +0.299 C 
ATOM     16  C   UNL     1      46.715  18.979  19.749  0.00  0.00    -0.104 A 
ATOM     17  C   UNL     1      46.241  19.831  20.721  0.00  0.00    -0.015 A 
ATOM     18  C   UNL     1      45.084  20.562  20.487  0.00  0.00    +0.114 A 
ATOM     21  C   UNL     1      44.409  20.437  19.275  0.00  0.00    +0.123 A 
ATOM     24  C   UNL     1      44.888  19.568  18.303  0.00  0.00    +0.065 A 
ATOM     25  C   UNL     1      46.026  18.843  18.551  0.00  0.00    -0.101 A 
ATOM     26  C   UNL     1      46.599  17.829  17.605  0.00  0.00    +0.073 C 
ATOM     27  C   UNL     1      48.095  18.058  17.456  0.00  0.00    +0.259 C 
ATOM     28  N   UNL     1      48.774  18.385  18.684  0.00  0.00    -0.377 N 
ATOM     29  H   UNL     1      49.600  17.808  18.744  0.00  0.00    +0.426 HD
ATOM     30  C   UNL     1      49.190  19.794  18.634  0.00  0.00    +0.317 C 
ATOM     31  C   UNL     1      48.443  16.106  21.109  0.00  0.00    -0.054 A 
ATOM     32  C   UNL     1      48.327  14.758  21.371  0.00  0.00    +0.114 A 
ATOM     35  C   UNL     1      46.231  16.439  18.057  0.00  0.00    +0.109 C 
ATOM     36  C   UNL     1      47.515  13.968  20.563  0.00  0.00    +0.126 A 
ENDROOT
BRANCH  18  19
ATOM     19  O   UNL     1      44.608  21.403  21.443  0.00  0.00    -0.297 OA
ATOM     20  C   UNL     1      45.563  22.234  22.108  0.00  0.00    +0.248 C 
ENDBRANCH  18  19
BRANCH  21  22
ATOM     22  O   UNL     1      43.283  21.164  19.046  0.00  0.00    -0.470 OA
ATOM     23  H   UNL     1      43.013  21.717  19.791  0.00  0.00    +0.392 HD
ENDBRANCH  21  22
BRANCH  32  33
ATOM     33  O   UNL     1      48.998  14.205  22.417  0.00  0.00    -0.297 OA
ATOM     34  C   UNL     1      50.421  14.337  22.420  0.00  0.00    +0.244 C 
ENDBRANCH  32  33
BRANCH  36  37
ATOM     37  O   UNL     1      47.377  12.639  20.813  0.00  0.00    -0.291 OA
ATOM     38  C   UNL     1      48.487  11.799  20.487  0.00  0.00    +0.226 C 
ENDBRANCH  36  37
BRANCH  12  11
ATOM     11  C   UNL     1      45.981  13.702  18.613  0.00  0.00    +0.147 C 
BRANCH  11  10
ATOM      1  C   UNL     1      52.191  13.627  14.613  0.00  0.00    +0.189 C 
ATOM      2  N   UNL     1      50.785  13.225  14.755  0.00  0.00    -0.523 NA
ATOM      3  C   UNL     1      50.618  11.788  14.486  0.00  0.00    +0.171 C 
ATOM      4  C   UNL     1      49.129  11.502  14.286  0.00  0.00    +0.086 C 
ATOM      5  C   UNL     1      48.335  12.091  15.424  0.00  0.00    -0.017 A 
ATOM      6  C   UNL     1      47.038  11.646  15.622  0.00  0.00    -0.083 A 
ATOM      7  C   UNL     1      46.271  12.163  16.654  0.00  0.00    +0.145 A 
ATOM     10  C   UNL     1      46.808  13.131  17.490  0.00  0.00    -0.122 A 
ATOM     39  C   UNL     1      48.101  13.569  17.292  0.00  0.00    +0.050 A 
ATOM     40  C   UNL     1      48.869  13.048  16.260  0.00  0.00    -0.110 A 
ATOM     41  C   UNL     1      50.277  13.554  16.092  0.00  0.00    +0.187 C 
BRANCH   7   8
ATOM      8  O   UNL     1      44.998  11.726  16.845  0.00  0.00    -0.282 OA
ATOM      9  C   UNL     1      44.431  10.913  15.816  0.00  0.00    +0.231 C 
ENDBRANCH   7   8
BRANCH  41  42
ATOM     42  C   UNL     1      50.296  15.071  16.280  0.00  0.00    +0.102 C 
BRANCH  42  43
ATOM     43  C   UNL     1      51.214  15.425  17.422  0.00  0.00    -0.112 A 
ATOM     44  C   UNL     1      51.599  14.453  18.325  0.00  0.00    +0.034 A 
ATOM     45  C   UNL     1      52.441  14.776  19.374  0.00  0.00    -0.034 A 
ATOM     46  C   UNL     1      52.899  16.073  19.521  0.00  0.00    +0.042 A 
ATOM     47  C   UNL     1      52.517  17.048  18.620  0.00  0.00    -0.084 A 
ATOM     48  C   UNL     1      51.677  16.725  17.564  0.00  0.00    +0.142 A 
BRANCH  48  49
ATOM     49  O   UNL     1      51.303  17.682  16.673  0.00  0.00    -0.299 OA
ATOM     50  C   UNL     1      52.063  18.891  16.666  0.00  0.00    +0.239 C 
ENDBRANCH  48  49
ENDBRANCH  42  43
ENDBRANCH  41  42
ENDBRANCH  11  10
ENDBRANCH  12  11
TORSDOF 10
ENDMDL
MODEL 4
REMARK VINA RESULT:      -7.0      2.698      8.723
REMARK  Name = ZINC95485887
REMARK  17 active torsions:
REMARK  status: ('A' for Active; 'I' for Inactive)
REMARK    1  A    between atoms: C1_1  and  N1_2
REMARK    2  A    between atoms: C6_7  and  O6_50
REMARK    3  A    between atoms: C7_8  and  C19_22
REMARK    4  A    between atoms: C10_11  and  C11_13
REMARK    5  A    between atoms: C11_13  and  C12_14
REMARK    6  A    between atoms: C17_19  and  O1_20
REMARK    7  A    between atoms: O1_20  and  C18_21
REMARK    8  A    between atoms: C19_22  and  C20_23
REMARK    9  A    between atoms: C24_27  and  O3_31
REMARK   10  A    between atoms: C25_28  and  O2_29
REMARK   11  A    between atoms: O2_29  and  C26_30
REMARK   12  A    between atoms: O3_31  and  C27_32
REMARK   13  A    between atoms: C31_37  and  O5_48
REMARK   14  A    between atoms: C32_38  and  O4_47
REMARK   15  A    between atoms: N2_45  and  C38_46
REMARK   16  A    between atoms: O5_48  and  C39_49
REMARK   17  A    between atoms: O6_50  and  C40_51
REMARK                            x       y       z     vdW  Elec       q    Type
REMARK                         _______ _______ _______ _____ _____    ______ ____
ROOT
ATOM     12  C   UNL     1      51.721  16.502  18.716  0.00  0.00    -0.062 A 
ATOM     13  C   UNL     1      51.066  15.402  18.162  0.00  0.00    -0.045 A 
ATOM     14  C   UNL     1      51.135  14.181  18.772  0.00  0.00    -0.118 A 
ATOM     15  C   UNL     1      50.514  12.916  18.276  0.00  0.00    +0.299 C 
ATOM     16  C   UNL     1      50.770  12.594  16.844  0.00  0.00    -0.104 A 
ATOM     17  C   UNL     1      51.571  11.553  16.431  0.00  0.00    -0.015 A 
ATOM     18  C   UNL     1      51.733  11.310  15.074  0.00  0.00    +0.114 A 
ATOM     21  C   UNL     1      51.088  12.111  14.136  0.00  0.00    +0.123 A 
ATOM     24  C   UNL     1      50.289  13.165  14.559  0.00  0.00    +0.065 A 
ATOM     25  C   UNL     1      50.146  13.403  15.902  0.00  0.00    -0.101 A 
ATOM     26  C   UNL     1      49.363  14.548  16.475  0.00  0.00    +0.073 C 
ATOM     27  C   UNL     1      48.454  14.042  17.583  0.00  0.00    +0.259 C 
ATOM     28  N   UNL     1      49.054  13.057  18.446  0.00  0.00    -0.377 N 
ATOM     29  H   UNL     1      48.864  13.326  19.400  0.00  0.00    +0.426 HD
ATOM     30  C   UNL     1      48.422  11.756  18.191  0.00  0.00    +0.317 C 
ATOM     31  C   UNL     1      51.859  14.063  19.965  0.00  0.00    -0.054 A 
ATOM     32  C   UNL     1      52.506  15.145  20.521  0.00  0.00    +0.114 A 
ATOM     35  C   UNL     1      50.301  15.648  16.903  0.00  0.00    +0.109 C 
ATOM     36  C   UNL     1      52.446  16.382  19.885  0.00  0.00    +0.126 A 
ENDROOT
BRANCH  18  19
ATOM     19  O   UNL     1      52.524  10.285  14.659  0.00  0.00    -0.297 OA
ATOM     20  C   UNL     1      53.874  10.277  15.130  0.00  0.00    +0.248 C 
ENDBRANCH  18  19
BRANCH  21  22
ATOM     22  O   UNL     1      51.240  11.861  12.808  0.00  0.00    -0.470 OA
ATOM     23  H   UNL     1      51.391  12.653  12.273  0.00  0.00    +0.392 HD
ENDBRANCH  21  22
BRANCH  32  33
ATOM     33  O   UNL     1      53.203  15.005  21.680  0.00  0.00    -0.297 OA
ATOM     34  C   UNL     1      53.049  13.771  22.385  0.00  0.00    +0.244 C 
ENDBRANCH  32  33
BRANCH  36  37
ATOM     37  O   UNL     1      53.087  17.459  20.411  0.00  0.00    -0.291 OA
ATOM     38  C   UNL     1      52.463  18.109  21.521  0.00  0.00    +0.226 C 
ENDBRANCH  36  37
BRANCH  12  11
ATOM     11  C   UNL     1      51.641  17.840  18.026  0.00  0.00    +0.147 C 
BRANCH  11  10
ATOM      1  C   UNL     1      45.191  18.192  21.610  0.00  0.00    +0.189 C 
ATOM      2  N   UNL     1      46.206  18.860  20.785  0.00  0.00    -0.523 NA
ATOM      3  C   UNL     1      46.570  20.168  21.353  0.00  0.00    +0.171 C 
ATOM      4  C   UNL     1      47.330  20.963  20.291  0.00  0.00    +0.086 C 
ATOM      5  C   UNL     1      48.442  20.123  19.716  0.00  0.00    -0.017 A 
ATOM      6  C   UNL     1      49.454  20.760  19.015  0.00  0.00    -0.083 A 
ATOM      7  C   UNL     1      50.494  20.026  18.467  0.00  0.00    +0.145 A 
ATOM     10  C   UNL     1      50.517  18.647  18.622  0.00  0.00    -0.122 A 
ATOM     39  C   UNL     1      49.509  18.018  19.322  0.00  0.00    +0.050 A 
ATOM     40  C   UNL     1      48.471  18.754  19.874  0.00  0.00    -0.110 A 
ATOM     41  C   UNL     1      47.400  18.020  20.637  0.00  0.00    +0.187 C 
BRANCH   7   8
ATOM      8  O   UNL     1      51.484  20.652  17.779  0.00  0.00    -0.282 OA
ATOM      9  C   UNL     1      51.149  21.175  16.492  0.00  0.00    +0.231 C 
ENDBRANCH   7   8
BRANCH  41  42
ATOM     42  C   UNL     1      47.028  16.742  19.884  0.00  0.00    +0.102 C 
BRANCH  42  43
ATOM     43  C   UNL     1      47.403  15.542  20.715  0.00  0.00    -0.112 A 
ATOM     44  C   UNL     1      48.640  15.485  21.327  0.00  0.00    +0.034 A 
ATOM     45  C   UNL     1      48.986  14.383  22.089  0.00  0.00    -0.034 A 
ATOM     46  C   UNL     1      48.094  13.337  22.241  0.00  0.00    +0.042 A 
ATOM     47  C   UNL     1      46.855  13.390  21.632  0.00  0.00    -0.084 A 
ATOM     48  C   UNL     1      46.505  14.496  20.870  0.00  0.00    +0.142 A 
BRANCH  48  49
ATOM     49  O   UNL     1      45.284  14.553  20.273  0.00  0.00    -0.299 OA
ATOM     50  C   UNL     1      45.085  13.724  19.127  0.00  0.00    +0.239 C 
ENDBRANCH  48  49
ENDBRANCH  42  43
ENDBRANCH  41  42
ENDBRANCH  11  10
ENDBRANCH  12  11
TORSDOF 10
ENDMDL
MODEL 5
REMARK VINA RESULT:      -7.0      2.059      3.600
REMARK  Name = ZINC95485887
REMARK  17 active torsions:
REMARK  status: ('A' for Active; 'I' for Inactive)
REMARK    1  A    between atoms: C1_1  and  N1_2
REMARK    2  A    between atoms: C6_7  and  O6_50
REMARK    3  A    between atoms: C7_8  and  C19_22
REMARK    4  A    between atoms: C10_11  and  C11_13
REMARK    5  A    between atoms: C11_13  and  C12_14
REMARK    6  A    between atoms: C17_19  and  O1_20
REMARK    7  A    between atoms: O1_20  and  C18_21
REMARK    8  A    between atoms: C19_22  and  C20_23
REMARK    9  A    between atoms: C24_27  and  O3_31
REMARK   10  A    between atoms: C25_28  and  O2_29
REMARK   11  A    between atoms: O2_29  and  C26_30
REMARK   12  A    between atoms: O3_31  and  C27_32
REMARK   13  A    between atoms: C31_37  and  O5_48
REMARK   14  A    between atoms: C32_38  and  O4_47
REMARK   15  A    between atoms: N2_45  and  C38_46
REMARK   16  A    between atoms: O5_48  and  C39_49
REMARK   17  A    between atoms: O6_50  and  C40_51
REMARK                            x       y       z     vdW  Elec       q    Type
REMARK                         _______ _______ _______ _____ _____    ______ ____
ROOT
ATOM     12  C   UNL     1      48.605  14.100  17.178  0.00  0.00    -0.062 A 
ATOM     13  C   UNL     1      48.148  15.018  18.123  0.00  0.00    -0.045 A 
ATOM     14  C   UNL     1      46.961  14.809  18.767  0.00  0.00    -0.118 A 
ATOM     15  C   UNL     1      46.336  15.719  19.774  0.00  0.00    +0.299 C 
ATOM     16  C   UNL     1      46.261  17.155  19.380  0.00  0.00    -0.104 A 
ATOM     17  C   UNL     1      45.081  17.800  19.084  0.00  0.00    -0.015 A 
ATOM     18  C   UNL     1      45.102  19.147  18.751  0.00  0.00    +0.114 A 
ATOM     21  C   UNL     1      46.307  19.844  18.722  0.00  0.00    +0.123 A 
ATOM     24  C   UNL     1      47.494  19.185  19.014  0.00  0.00    +0.065 A 
ATOM     25  C   UNL     1      47.462  17.851  19.329  0.00  0.00    -0.101 A 
ATOM     26  C   UNL     1      48.683  17.021  19.598  0.00  0.00    +0.073 C 
ATOM     27  C   UNL     1      48.476  16.202  20.862  0.00  0.00    +0.259 C 
ATOM     28  N   UNL     1      47.158  15.636  20.998  0.00  0.00    -0.377 N 
ATOM     29  H   UNL     1      47.263  14.665  21.252  0.00  0.00    +0.426 HD
ATOM     30  C   UNL     1      46.455  16.331  22.086  0.00  0.00    +0.317 C 
ATOM     31  C   UNL     1      46.227  13.654  18.470  0.00  0.00    -0.054 A 
ATOM     32  C   UNL     1      46.672  12.740  17.540  0.00  0.00    +0.114 A 
ATOM     35  C   UNL     1      49.024  16.200  18.381  0.00  0.00    +0.109 C 
ATOM     36  C   UNL     1      47.874  12.968  16.875  0.00  0.00    +0.126 A 
ENDROOT
BRANCH  18  19
ATOM     19  O   UNL     1      43.941  19.790  18.454  0.00  0.00    -0.297 OA
ATOM     20  C   UNL     1      42.963  19.875  19.493  0.00  0.00    +0.248 C 
ENDBRANCH  18  19
BRANCH  21  22
ATOM     22  O   UNL     1      46.320  21.167  18.407  0.00  0.00    -0.470 OA
ATOM     23  H   UNL     1      46.895  21.701  18.973  0.00  0.00    +0.392 HD
ENDBRANCH  21  22
BRANCH  32  33
ATOM     33  O   UNL     1      45.940  11.627  17.269  0.00  0.00    -0.297 OA
ATOM     34  C   UNL     1      44.714  11.813  16.558  0.00  0.00    +0.244 C 
ENDBRANCH  32  33
BRANCH  36  37
ATOM     37  O   UNL     1      48.325  12.085  15.945  0.00  0.00    -0.291 OA
ATOM     38  C   UNL     1      47.888  12.282  14.598  0.00  0.00    +0.226 C 
ENDBRANCH  36  37
BRANCH  12  11
ATOM     11  C   UNL     1      49.912  14.349  16.471  0.00  0.00    +0.147 C 
BRANCH  11  10
ATOM      1  C   UNL     1      55.146  16.032  21.406  0.00  0.00    +0.189 C 
ATOM      2  N   UNL     1      54.600  15.077  20.432  0.00  0.00    -0.523 NA
ATOM      3  C   UNL     1      54.520  13.725  21.008  0.00  0.00    +0.171 C 
ATOM      4  C   UNL     1      54.303  12.726  19.871  0.00  0.00    +0.086 C 
ATOM      5  C   UNL     1      53.158  13.177  19.000  0.00  0.00    -0.017 A 
ATOM      6  C   UNL     1      52.576  12.254  18.146  0.00  0.00    -0.083 A 
ATOM      7  C   UNL     1      51.523  12.628  17.326  0.00  0.00    +0.145 A 
ATOM     10  C   UNL     1      51.054  13.932  17.362  0.00  0.00    -0.122 A 
ATOM     39  C   UNL     1      51.635  14.848  18.215  0.00  0.00    +0.050 A 
ATOM     40  C   UNL     1      52.686  14.472  19.039  0.00  0.00    -0.110 A 
ATOM     41  C   UNL     1      53.279  15.506  19.959  0.00  0.00    +0.187 C 
BRANCH   7   8
ATOM      8  O   UNL     1      50.955  11.720  16.488  0.00  0.00    -0.282 OA
ATOM      9  C   UNL     1      51.771  11.215  15.430  0.00  0.00    +0.231 C 
ENDBRANCH   7   8
BRANCH  41  42
ATOM     42  C   UNL     1      53.418  16.831  19.207  0.00  0.00    +0.102 C 
BRANCH  42  43
ATOM     43  C   UNL     1      52.473  17.846  19.799  0.00  0.00    -0.112 A 
ATOM     44  C   UNL     1      52.071  17.730  21.115  0.00  0.00    +0.034 A 
ATOM     45  C   UNL     1      51.203  18.660  21.658  0.00  0.00    -0.034 A 
ATOM     46  C   UNL     1      50.737  19.708  20.885  0.00  0.00    +0.042 A 
ATOM     47  C   UNL     1      51.137  19.829  19.568  0.00  0.00    -0.084 A 
ATOM     48  C   UNL     1      52.011  18.899  19.023  0.00  0.00    +0.142 A 
BRANCH  48  49
ATOM     49  O   UNL     1      52.411  19.018  17.728  0.00  0.00    -0.299 OA
ATOM     50  C   UNL     1      51.440  18.727  16.722  0.00  0.00    +0.239 C 
ENDBRANCH  48  49
ENDBRANCH  42  43
ENDBRANCH  41  42
ENDBRANCH  11  10
ENDBRANCH  12  11
TORSDOF 10
ENDMDL
MODEL 6
REMARK VINA RESULT:      -6.3      2.534      4.288
REMARK  Name = ZINC95485887
REMARK  17 active torsions:
REMARK  status: ('A' for Active; 'I' for Inactive)
REMARK    1  A    between atoms: C1_1  and  N1_2
REMARK    2  A    between atoms: C6_7  and  O6_50
REMARK    3  A    between atoms: C7_8  and  C19_22
REMARK    4  A    between atoms: C10_11  and  C11_13
REMARK    5  A    between atoms: C11_13  and  C12_14
REMARK    6  A    between atoms: C17_19  and  O1_20
REMARK    7  A    between atoms: O1_20  and  C18_21
REMARK    8  A    between atoms: C19_22  and  C20_23
REMARK    9  A    between atoms: C24_27  and  O3_31
REMARK   10  A    between atoms: C25_28  and  O2_29
REMARK   11  A    between atoms: O2_29  and  C26_30
REMARK   12  A    between atoms: O3_31  and  C27_32
REMARK   13  A    between atoms: C31_37  and  O5_48
REMARK   14  A    between atoms: C32_38  and  O4_47
REMARK   15  A    between atoms: N2_45  and  C38_46
REMARK   16  A    between atoms: O5_48  and  C39_49
REMARK   17  A    between atoms: O6_50  and  C40_51
REMARK                            x       y       z     vdW  Elec       q    Type
REMARK                         _______ _______ _______ _____ _____    ______ ____
ROOT
ATOM     12  C   UNL     1      46.472  16.888  20.536  0.00  0.00    -0.062 A 
ATOM     13  C   UNL     1      45.520  17.905  20.595  0.00  0.00    -0.045 A 
ATOM     14  C   UNL     1      44.871  18.308  19.462  0.00  0.00    -0.118 A 
ATOM     15  C   UNL     1      43.856  19.401  19.372  0.00  0.00    +0.299 C 
ATOM     16  C   UNL     1      44.241  20.688  20.018  0.00  0.00    -0.104 A 
ATOM     17  C   UNL     1      44.529  21.835  19.312  0.00  0.00    -0.015 A 
ATOM     18  C   UNL     1      44.853  22.997  19.998  0.00  0.00    +0.114 A 
ATOM     21  C   UNL     1      44.885  23.005  21.390  0.00  0.00    +0.123 A 
ATOM     24  C   UNL     1      44.603  21.842  22.095  0.00  0.00    +0.065 A 
ATOM     25  C   UNL     1      44.295  20.697  21.406  0.00  0.00    -0.101 A 
ATOM     26  C   UNL     1      44.036  19.369  22.056  0.00  0.00    +0.073 C 
ATOM     27  C   UNL     1      42.776  18.752  21.472  0.00  0.00    +0.259 C 
ATOM     28  N   UNL     1      42.637  18.912  20.046  0.00  0.00    -0.377 N 
ATOM     29  H   UNL     1      42.388  18.015  19.657  0.00  0.00    +0.426 HD
ATOM     30  C   UNL     1      41.542  19.856  19.782  0.00  0.00    +0.317 C 
ATOM     31  C   UNL     1      45.170  17.671  18.251  0.00  0.00    -0.054 A 
ATOM     32  C   UNL     1      46.108  16.663  18.184  0.00  0.00    +0.114 A 
ATOM     35  C   UNL     1      45.259  18.496  21.942  0.00  0.00    +0.109 C 
ATOM     36  C   UNL     1      46.777  16.270  19.339  0.00  0.00    +0.126 A 
ENDROOT
BRANCH  18  19
ATOM     19  O   UNL     1      45.141  24.133  19.308  0.00  0.00    -0.297 OA
ATOM     20  C   UNL     1      44.100  24.678  18.494  0.00  0.00    +0.248 C 
ENDBRANCH  18  19
BRANCH  21  22
ATOM     22  O   UNL     1      45.193  24.149  22.057  0.00  0.00    -0.470 OA
ATOM     23  H   UNL     1      44.725  24.932  21.733  0.00  0.00    +0.392 HD
ENDBRANCH  21  22
BRANCH  32  33
ATOM     33  O   UNL     1      46.381  16.061  16.996  0.00  0.00    -0.297 OA
ATOM     34  C   UNL     1      47.265  16.748  16.108  0.00  0.00    +0.244 C 
ENDBRANCH  32  33
BRANCH  36  37
ATOM     37  O   UNL     1      47.715  15.287  19.291  0.00  0.00    -0.291 OA
ATOM     38  C   UNL     1      47.245  13.938  19.365  0.00  0.00    +0.226 C 
ENDBRANCH  36  37
BRANCH  12  11
ATOM     11  C   UNL     1      47.184  16.462  21.793  0.00  0.00    +0.147 C 
BRANCH  11  10
ATOM      1  C   UNL     1      52.200  21.621  20.120  0.00  0.00    +0.189 C 
ATOM      2  N   UNL     1      51.903  20.223  20.459  0.00  0.00    -0.523 NA
ATOM      3  C   UNL     1      52.785  19.743  21.535  0.00  0.00    +0.171 C 
ATOM      4  C   UNL     1      52.694  18.218  21.594  0.00  0.00    +0.086 C 
ATOM      5  C   UNL     1      51.249  17.791  21.639  0.00  0.00    -0.017 A 
ATOM      6  C   UNL     1      50.956  16.500  22.050  0.00  0.00    -0.083 A 
ATOM      7  C   UNL     1      49.641  16.064  22.103  0.00  0.00    +0.145 A 
ATOM     10  C   UNL     1      48.617  16.927  21.742  0.00  0.00    -0.122 A 
ATOM     39  C   UNL     1      48.912  18.212  21.336  0.00  0.00    +0.050 A 
ATOM     40  C   UNL     1      50.229  18.648  21.287  0.00  0.00    -0.110 A 
ATOM     41  C   UNL     1      50.498  20.063  20.846  0.00  0.00    +0.187 C 
BRANCH   7   8
ATOM      8  O   UNL     1      49.357  14.798  22.505  0.00  0.00    -0.282 OA
ATOM      9  C   UNL     1      49.998  13.734  21.798  0.00  0.00    +0.231 C 
ENDBRANCH   7   8
BRANCH  41  42
ATOM     42  C   UNL     1      49.604  20.399  19.651  0.00  0.00    +0.102 C 
BRANCH  42  43
ATOM     43  C   UNL     1      50.378  20.198  18.373  0.00  0.00    -0.112 A 
ATOM     44  C   UNL     1      50.931  21.284  17.723  0.00  0.00    +0.034 A 
ATOM     45  C   UNL     1      51.640  21.102  16.550  0.00  0.00    -0.034 A 
ATOM     46  C   UNL     1      51.797  19.832  16.024  0.00  0.00    +0.042 A 
ATOM     47  C   UNL     1      51.246  18.743  16.671  0.00  0.00    -0.084 A 
ATOM     48  C   UNL     1      50.538  18.923  17.851  0.00  0.00    +0.142 A 
BRANCH  48  49
ATOM     49  O   UNL     1      49.998  17.852  18.492  0.00  0.00    -0.299 OA
ATOM     50  C   UNL     1      50.482  16.562  18.116  0.00  0.00    +0.239 C 
ENDBRANCH  48  49
ENDBRANCH  42  43
ENDBRANCH  41  42
ENDBRANCH  11  10
ENDBRANCH  12  11
TORSDOF 10
ENDMDL
MODEL 7
REMARK VINA RESULT:      -6.2      2.911      9.432
REMARK  Name = ZINC95485887
REMARK  17 active torsions:
REMARK  status: ('A' for Active; 'I' for Inactive)
REMARK    1  A    between atoms: C1_1  and  N1_2
REMARK    2  A    between atoms: C6_7  and  O6_50
REMARK    3  A    between atoms: C7_8  and  C19_22
REMARK    4  A    between atoms: C10_11  and  C11_13
REMARK    5  A    between atoms: C11_13  and  C12_14
REMARK    6  A    between atoms: C17_19  and  O1_20
REMARK    7  A    between atoms: O1_20  and  C18_21
REMARK    8  A    between atoms: C19_22  and  C20_23
REMARK    9  A    between atoms: C24_27  and  O3_31
REMARK   10  A    between atoms: C25_28  and  O2_29
REMARK   11  A    between atoms: O2_29  and  C26_30
REMARK   12  A    between atoms: O3_31  and  C27_32
REMARK   13  A    between atoms: C31_37  and  O5_48
REMARK   14  A    between atoms: C32_38  and  O4_47
REMARK   15  A    between atoms: N2_45  and  C38_46
REMARK   16  A    between atoms: O5_48  and  C39_49
REMARK   17  A    between atoms: O6_50  and  C40_51
REMARK                            x       y       z     vdW  Elec       q    Type
REMARK                         _______ _______ _______ _____ _____    ______ ____
ROOT
ATOM     12  C   UNL     1      51.109  18.134  20.023  0.00  0.00    -0.062 A 
ATOM     13  C   UNL     1      52.070  17.132  20.153  0.00  0.00    -0.045 A 
ATOM     14  C   UNL     1      52.715  16.650  19.049  0.00  0.00    -0.118 A 
ATOM     15  C   UNL     1      53.739  15.562  19.035  0.00  0.00    +0.299 C 
ATOM     16  C   UNL     1      53.368  14.324  19.779  0.00  0.00    -0.104 A 
ATOM     17  C   UNL     1      53.086  13.125  19.165  0.00  0.00    -0.015 A 
ATOM     18  C   UNL     1      52.776  12.015  19.938  0.00  0.00    +0.114 A 
ATOM     21  C   UNL     1      52.753  12.113  21.327  0.00  0.00    +0.123 A 
ATOM     24  C   UNL     1      53.029  13.328  21.940  0.00  0.00    +0.065 A 
ATOM     25  C   UNL     1      53.323  14.420  21.165  0.00  0.00    -0.101 A 
ATOM     26  C   UNL     1      53.575  15.795  21.710  0.00  0.00    +0.073 C 
ATOM     27  C   UNL     1      54.826  16.377  21.072  0.00  0.00    +0.259 C 
ATOM     28  N   UNL     1      54.958  16.109  19.662  0.00  0.00    -0.377 N 
ATOM     29  H   UNL     1      55.196  16.977  19.204  0.00  0.00    +0.426 HD
ATOM     30  C   UNL     1      56.059  15.157  19.463  0.00  0.00    +0.317 C 
ATOM     31  C   UNL     1      52.403  17.191  17.795  0.00  0.00    -0.054 A 
ATOM     32  C   UNL     1      51.457  18.183  17.658  0.00  0.00    +0.114 A 
ATOM     35  C   UNL     1      52.344  16.648  21.539  0.00  0.00    +0.109 C 
ATOM     36  C   UNL     1      50.791  18.658  18.785  0.00  0.00    +0.126 A 
ENDROOT
BRANCH  18  19
ATOM     19  O   UNL     1      52.493  10.828  19.339  0.00  0.00    -0.297 OA
ATOM     20  C   UNL     1      52.496  10.807  17.909  0.00  0.00    +0.248 C 
ENDBRANCH  18  19
BRANCH  21  22
ATOM     22  O   UNL     1      52.459  11.020  22.081  0.00  0.00    -0.470 OA
ATOM     23  H   UNL     1      52.498  10.184  21.596  0.00  0.00    +0.392 HD
ENDBRANCH  21  22
BRANCH  32  33
ATOM     33  O   UNL     1      51.171  18.691  16.430  0.00  0.00    -0.297 OA
ATOM     34  C   UNL     1      52.139  19.566  15.847  0.00  0.00    +0.244 C 
ENDBRANCH  32  33
BRANCH  36  37
ATOM     37  O   UNL     1      49.845  19.627  18.670  0.00  0.00    -0.291 OA
ATOM     38  C   UNL     1      50.299  20.982  18.692  0.00  0.00    +0.226 C 
ENDBRANCH  36  37
BRANCH  12  11
ATOM     11  C   UNL     1      50.401  18.649  21.250  0.00  0.00    +0.147 C 
BRANCH  11  10
ATOM      1  C   UNL     1      45.122  13.641  19.971  0.00  0.00    +0.189 C 
ATOM      2  N   UNL     1      45.498  15.049  20.152  0.00  0.00    -0.523 NA
ATOM      3  C   UNL     1      44.608  15.713  21.118  0.00  0.00    +0.171 C 
ATOM      4  C   UNL     1      44.799  17.224  20.995  0.00  0.00    +0.086 C 
ATOM      5  C   UNL     1      46.266  17.564  21.060  0.00  0.00    -0.017 A 
ATOM      6  C   UNL     1      46.628  18.876  21.324  0.00  0.00    -0.083 A 
ATOM      7  C   UNL     1      47.966  19.233  21.389  0.00  0.00    +0.145 A 
ATOM     10  C   UNL     1      48.944  18.270  21.185  0.00  0.00    -0.122 A 
ATOM     39  C   UNL     1      48.579  16.965  20.924  0.00  0.00    +0.050 A 
ATOM     40  C   UNL     1      47.240  16.608  20.864  0.00  0.00    -0.110 A 
ATOM     41  C   UNL     1      46.895  15.169  20.585  0.00  0.00    +0.187 C 
BRANCH   7   8
ATOM      8  O   UNL     1      48.317  20.520  21.647  0.00  0.00    -0.282 OA
ATOM      9  C   UNL     1      47.461  21.542  21.134  0.00  0.00    +0.231 C 
ENDBRANCH   7   8
BRANCH  41  42
ATOM     42  C   UNL     1      47.812  14.633  19.485  0.00  0.00    +0.102 C 
BRANCH  42  43
ATOM     43  C   UNL     1      48.324  13.271  19.876  0.00  0.00    -0.112 A 
ATOM     44  C   UNL     1      48.679  13.017  21.187  0.00  0.00    +0.034 A 
ATOM     45  C   UNL     1      49.150  11.767  21.547  0.00  0.00    -0.034 A 
ATOM     46  C   UNL     1      49.266  10.769  20.596  0.00  0.00    +0.042 A 
ATOM     47  C   UNL     1      48.912  11.018  19.285  0.00  0.00    -0.084 A 
ATOM     48  C   UNL     1      48.435  12.270  18.922  0.00  0.00    +0.142 A 
BRANCH  48  49
ATOM     49  O   UNL     1      48.081  12.517  17.632  0.00  0.00    -0.299 OA
ATOM     50  C   UNL     1      46.927  11.838  17.137  0.00  0.00    +0.239 C 
ENDBRANCH  48  49
ENDBRANCH  42  43
ENDBRANCH  41  42
ENDBRANCH  11  10
ENDBRANCH  12  11
TORSDOF 10
ENDMDL
MODEL 8
REMARK VINA RESULT:      -6.1      3.100      8.942
REMARK  Name = ZINC95485887
REMARK  17 active torsions:
REMARK  status: ('A' for Active; 'I' for Inactive)
REMARK    1  A    between atoms: C1_1  and  N1_2
REMARK    2  A    between atoms: C6_7  and  O6_50
REMARK    3  A    between atoms: C7_8  and  C19_22
REMARK    4  A    between atoms: C10_11  and  C11_13
REMARK    5  A    between atoms: C11_13  and  C12_14
REMARK    6  A    between atoms: C17_19  and  O1_20
REMARK    7  A    between atoms: O1_20  and  C18_21
REMARK    8  A    between atoms: C19_22  and  C20_23
REMARK    9  A    between atoms: C24_27  and  O3_31
REMARK   10  A    between atoms: C25_28  and  O2_29
REMARK   11  A    between atoms: O2_29  and  C26_30
REMARK   12  A    between atoms: O3_31  and  C27_32
REMARK   13  A    between atoms: C31_37  and  O5_48
REMARK   14  A    between atoms: C32_38  and  O4_47
REMARK   15  A    between atoms: N2_45  and  C38_46
REMARK   16  A    between atoms: O5_48  and  C39_49
REMARK   17  A    between atoms: O6_50  and  C40_51
REMARK                            x       y       z     vdW  Elec       q    Type
REMARK                         _______ _______ _______ _____ _____    ______ ____
ROOT
ATOM     12  C   UNL     1      50.577  17.731  19.683  0.00  0.00    -0.062 A 
ATOM     13  C   UNL     1      51.585  16.862  20.100  0.00  0.00    -0.045 A 
ATOM     14  C   UNL     1      52.537  16.437  19.216  0.00  0.00    -0.118 A 
ATOM     15  C   UNL     1      53.651  15.486  19.514  0.00  0.00    +0.299 C 
ATOM     16  C   UNL     1      53.252  14.232  20.213  0.00  0.00    -0.104 A 
ATOM     17  C   UNL     1      53.274  12.990  19.617  0.00  0.00    -0.015 A 
ATOM     18  C   UNL     1      52.911  11.871  20.352  0.00  0.00    +0.114 A 
ATOM     21  C   UNL     1      52.531  12.000  21.686  0.00  0.00    +0.123 A 
ATOM     24  C   UNL     1      52.503  13.256  22.278  0.00  0.00    +0.065 A 
ATOM     25  C   UNL     1      52.853  14.357  21.538  0.00  0.00    -0.101 A 
ATOM     26  C   UNL     1      52.799  15.766  22.050  0.00  0.00    +0.073 C 
ATOM     27  C   UNL     1      54.094  16.484  21.706  0.00  0.00    +0.259 C 
ATOM     28  N   UNL     1      54.603  16.200  20.388  0.00  0.00    -0.377 N 
ATOM     29  H   UNL     1      54.846  17.078  19.954  0.00  0.00    +0.426 HD
ATOM     30  C   UNL     1      55.822  15.389  20.517  0.00  0.00    +0.317 C 
ATOM     31  C   UNL     1      52.486  16.902  17.896  0.00  0.00    -0.054 A 
ATOM     32  C   UNL     1      51.496  17.762  17.476  0.00  0.00    +0.114 A 
ATOM     35  C   UNL     1      51.559  16.452  21.536  0.00  0.00    +0.109 C 
ATOM     36  C   UNL     1      50.519  18.178  18.378  0.00  0.00    +0.126 A 
ENDROOT
BRANCH  18  19
ATOM     19  O   UNL     1      52.927  10.643  19.769  0.00  0.00    -0.297 OA
ATOM     20  C   UNL     1      52.190  10.493  18.553  0.00  0.00    +0.248 C 
ENDBRANCH  18  19
BRANCH  21  22
ATOM     22  O   UNL     1      52.188  10.899  22.405  0.00  0.00    -0.470 OA
ATOM     23  H   UNL     1      51.242  10.832  22.596  0.00  0.00    +0.392 HD
ENDBRANCH  21  22
BRANCH  32  33
ATOM     33  O   UNL     1      51.468  18.198  16.189  0.00  0.00    -0.297 OA
ATOM     34  C   UNL     1      52.220  19.375  15.885  0.00  0.00    +0.244 C 
ENDBRANCH  32  33
BRANCH  36  37
ATOM     37  O   UNL     1      49.526  19.016  17.981  0.00  0.00    -0.291 OA
ATOM     38  C   UNL     1      49.663  20.396  18.330  0.00  0.00    +0.226 C 
ENDBRANCH  36  37
BRANCH  12  11
ATOM     11  C   UNL     1      49.531  18.183  20.669  0.00  0.00    +0.147 C 
BRANCH  11  10
ATOM      1  C   UNL     1      45.859  12.656  17.420  0.00  0.00    +0.189 C 
ATOM      2  N   UNL     1      45.862  13.765  18.384  0.00  0.00    -0.523 NA
ATOM      3  C   UNL     1      45.318  13.337  19.682  0.00  0.00    +0.171 C 
ATOM      4  C   UNL     1      45.004  14.583  20.511  0.00  0.00    +0.086 C 
ATOM      5  C   UNL     1      46.198  15.503  20.530  0.00  0.00    -0.017 A 
ATOM      6  C   UNL     1      46.252  16.493  21.497  0.00  0.00    -0.083 A 
ATOM      7  C   UNL     1      47.330  17.364  21.549  0.00  0.00    +0.145 A 
ATOM     10  C   UNL     1      48.357  17.239  20.624  0.00  0.00    -0.122 A 
ATOM     39  C   UNL     1      48.300  16.250  19.664  0.00  0.00    +0.050 A 
ATOM     40  C   UNL     1      47.223  15.378  19.616  0.00  0.00    -0.110 A 
ATOM     41  C   UNL     1      47.214  14.310  18.554  0.00  0.00    +0.187 C 
BRANCH   7   8
ATOM      8  O   UNL     1      47.379  18.335  22.498  0.00  0.00    -0.282 OA
ATOM      9  C   UNL     1      46.513  19.457  22.322  0.00  0.00    +0.231 C 
ENDBRANCH   7   8
BRANCH  41  42
ATOM     42  C   UNL     1      47.687  14.909  17.230  0.00  0.00    +0.102 C 
BRANCH  42  43
ATOM     43  C   UNL     1      48.927  14.188  16.766  0.00  0.00    -0.112 A 
ATOM     44  C   UNL     1      50.112  14.337  17.459  0.00  0.00    +0.034 A 
ATOM     45  C   UNL     1      51.251  13.676  17.034  0.00  0.00    -0.034 A 
ATOM     46  C   UNL     1      51.205  12.865  15.915  0.00  0.00    +0.042 A 
ATOM     47  C   UNL     1      50.022  12.713  15.219  0.00  0.00    -0.084 A 
ATOM     48  C   UNL     1      48.877  13.371  15.646  0.00  0.00    +0.142 A 
BRANCH  48  49
ATOM     49  O   UNL     1      47.710  13.219  14.965  0.00  0.00    -0.299 OA
ATOM     50  C   UNL     1      47.807  12.925  13.571  0.00  0.00    +0.239 C 
ENDBRANCH  48  49
ENDBRANCH  42  43
ENDBRANCH  41  42
ENDBRANCH  11  10
ENDBRANCH  12  11
TORSDOF 10
ENDMDL
MODEL 9
REMARK VINA RESULT:      -6.1      3.654      7.653
REMARK  Name = ZINC95485887
REMARK  17 active torsions:
REMARK  status: ('A' for Active; 'I' for Inactive)
REMARK    1  A    between atoms: C1_1  and  N1_2
REMARK    2  A    between atoms: C6_7  and  O6_50
REMARK    3  A    between atoms: C7_8  and  C19_22
REMARK    4  A    between atoms: C10_11  and  C11_13
REMARK    5  A    between atoms: C11_13  and  C12_14
REMARK    6  A    between atoms: C17_19  and  O1_20
REMARK    7  A    between atoms: O1_20  and  C18_21
REMARK    8  A    between atoms: C19_22  and  C20_23
REMARK    9  A    between atoms: C24_27  and  O3_31
REMARK   10  A    between atoms: C25_28  and  O2_29
REMARK   11  A    between atoms: O2_29  and  C26_30
REMARK   12  A    between atoms: O3_31  and  C27_32
REMARK   13  A    between atoms: C31_37  and  O5_48
REMARK   14  A    between atoms: C32_38  and  O4_47
REMARK   15  A    between atoms: N2_45  and  C38_46
REMARK   16  A    between atoms: O5_48  and  C39_49
REMARK   17  A    between atoms: O6_50  and  C40_51
REMARK                            x       y       z     vdW  Elec       q    Type
REMARK                         _______ _______ _______ _____ _____    ______ ____
ROOT
ATOM     12  C   UNL     1      50.887  14.562  20.639  0.00  0.00    -0.062 A 
ATOM     13  C   UNL     1      50.721  15.817  20.054  0.00  0.00    -0.045 A 
ATOM     14  C   UNL     1      51.752  16.400  19.372  0.00  0.00    -0.118 A 
ATOM     15  C   UNL     1      51.726  17.747  18.725  0.00  0.00    +0.299 C 
ATOM     16  C   UNL     1      51.212  18.857  19.576  0.00  0.00    -0.104 A 
ATOM     17  C   UNL     1      52.007  19.869  20.066  0.00  0.00    -0.015 A 
ATOM     18  C   UNL     1      51.438  20.877  20.830  0.00  0.00    +0.114 A 
ATOM     21  C   UNL     1      50.071  20.870  21.097  0.00  0.00    +0.123 A 
ATOM     24  C   UNL     1      49.277  19.841  20.608  0.00  0.00    +0.065 A 
ATOM     25  C   UNL     1      49.853  18.843  19.864  0.00  0.00    -0.101 A 
ATOM     26  C   UNL     1      49.109  17.651  19.338  0.00  0.00    +0.073 C 
ATOM     27  C   UNL     1      49.451  17.441  17.872  0.00  0.00    +0.259 C 
ATOM     28  N   UNL     1      50.841  17.642  17.548  0.00  0.00    -0.377 N 
ATOM     29  H   UNL     1      51.143  16.862  16.984  0.00  0.00    +0.426 HD
ATOM     30  C   UNL     1      50.967  18.871  16.752  0.00  0.00    +0.317 C 
ATOM     31  C   UNL     1      52.964  15.708  19.261  0.00  0.00    -0.054 A 
ATOM     32  C   UNL     1      53.136  14.466  19.833  0.00  0.00    +0.114 A 
ATOM     35  C   UNL     1      49.378  16.452  20.211  0.00  0.00    +0.109 C 
ATOM     36  C   UNL     1      52.088  13.886  20.542  0.00  0.00    +0.126 A 
ENDROOT
BRANCH  18  19
ATOM     19  O   UNL     1      52.218  21.878  21.320  0.00  0.00    -0.297 OA
ATOM     20  C   UNL     1      52.966  21.596  22.505  0.00  0.00    +0.248 C 
ENDBRANCH  18  19
BRANCH  21  22
ATOM     22  O   UNL     1      49.517  21.867  21.837  0.00  0.00    -0.470 OA
ATOM     23  H   UNL     1      49.257  21.598  22.729  0.00  0.00    +0.392 HD
ENDBRANCH  21  22
BRANCH  32  33
ATOM     33  O   UNL     1      54.323  13.815  19.712  0.00  0.00    -0.297 OA
ATOM     34  C   UNL     1      55.508  14.613  19.749  0.00  0.00    +0.244 C 
ENDBRANCH  32  33
BRANCH  36  37
ATOM     37  O   UNL     1      52.241  12.668  21.125  0.00  0.00    -0.291 OA
ATOM     38  C   UNL     1      52.884  12.635  22.401  0.00  0.00    +0.226 C 
ENDBRANCH  36  37
BRANCH  12  11
ATOM     11  C   UNL     1      49.743  13.937  21.396  0.00  0.00    +0.147 C 
BRANCH  11  10
ATOM      1  C   UNL     1      47.586  11.728  14.684  0.00  0.00    +0.189 C 
ATOM      2  N   UNL     1      47.236  12.311  15.986  0.00  0.00    -0.523 NA
ATOM      3  C   UNL     1      46.058  11.643  16.563  0.00  0.00    +0.171 C 
ATOM      4  C   UNL     1      45.523  12.505  17.706  0.00  0.00    +0.086 C 
ATOM      5  C   UNL     1      46.644  12.866  18.647  0.00  0.00    -0.017 A 
ATOM      6  C   UNL     1      46.320  13.329  19.912  0.00  0.00    -0.083 A 
ATOM      7  C   UNL     1      47.319  13.675  20.808  0.00  0.00    +0.145 A 
ATOM     10  C   UNL     1      48.649  13.559  20.431  0.00  0.00    -0.122 A 
ATOM     39  C   UNL     1      48.968  13.096  19.171  0.00  0.00    +0.050 A 
ATOM     40  C   UNL     1      47.966  12.746  18.277  0.00  0.00    -0.110 A 
ATOM     41  C   UNL     1      48.367  12.237  16.917  0.00  0.00    +0.187 C 
BRANCH   7   8
ATOM      8  O   UNL     1      46.998  14.130  22.048  0.00  0.00    -0.282 OA
ATOM      9  C   UNL     1      46.324  15.387  22.123  0.00  0.00    +0.231 C 
ENDBRANCH   7   8
BRANCH  41  42
ATOM     42  C   UNL     1      49.520  13.087  16.379  0.00  0.00    +0.102 C 
BRANCH  42  43
ATOM     43  C   UNL     1      50.707  12.202  16.097  0.00  0.00    -0.112 A 
ATOM     44  C   UNL     1      51.129  11.289  17.043  0.00  0.00    +0.034 A 
ATOM     45  C   UNL     1      52.219  10.477  16.786  0.00  0.00    -0.034 A 
ATOM     46  C   UNL     1      52.889  10.578  15.580  0.00  0.00    +0.042 A 
ATOM     47  C   UNL     1      52.470  11.489  14.630  0.00  0.00    -0.084 A 
ATOM     48  C   UNL     1      51.374  12.301  14.884  0.00  0.00    +0.142 A 
BRANCH  48  49
ATOM     49  O   UNL     1      50.957  13.195  13.949  0.00  0.00    -0.299 OA
ATOM     50  C   UNL     1      50.845  12.722  12.605  0.00  0.00    +0.239 C 
ENDBRANCH  48  49
ENDBRANCH  42  43
ENDBRANCH  41  42
ENDBRANCH  11  10
ENDBRANCH  12  11
TORSDOF 10
ENDMDL
