MODEL 1
REMARK VINA RESULT:      -4.4      0.000      0.000
REMARK  Name = ZINC00001411
REMARK  5 active torsions:
REMARK  status: ('A' for Active; 'I' for Inactive)
REMARK    1  A    between atoms: C1_1  and  O1_2
REMARK    2  A    between atoms: O1_2  and  C2_3
REMARK    3  A    between atoms: C4_5  and  C8_10
REMARK    4  A    between atoms: C7_8  and  O2_9
REMARK    5  A    between atoms: C8_10  and  C9_11
REMARK                            x       y       z     vdW  Elec       q    Type
REMARK                         _______ _______ _______ _____ _____    ______ ____
ROOT
ATOM      3  C   UNL     1      41.338  20.061  19.864  0.00  0.00    +0.105 A 
ATOM      4  C   UNL     1      42.458  20.117  19.050  0.00  0.00    -0.060 A 
ATOM      5  C   UNL     1      43.587  19.389  19.378  0.00  0.00    -0.047 A 
ATOM      9  C   UNL     1      43.602  18.605  20.516  0.00  0.00    -0.007 A 
ATOM     10  C   UNL     1      42.488  18.544  21.332  0.00  0.00    +0.034 A 
ATOM     11  C   UNL     1      41.355  19.276  21.013  0.00  0.00    +0.069 A 
ENDROOT
BRANCH   3   2
ATOM      1  C   UNL     1      40.302  21.608  18.384  0.00  0.00    +0.239 C 
ATOM      2  O   UNL     1      40.226  20.776  19.544  0.00  0.00    -0.308 OA
ENDBRANCH   3   2
BRANCH  11  12
ATOM     12  O   UNL     1      40.260  19.221  21.817  0.00  0.00    -0.487 OA
ATOM     13  H   UNL     1      39.602  19.906  21.634  0.00  0.00    +0.387 HD
ENDBRANCH  11  12
BRANCH   5   6
ATOM      6  C   UNL     1      44.805  19.452  18.491  0.00  0.00    +0.108 C 
BRANCH   6   7
ATOM      7  C   UNL     1      45.544  20.741  18.743  0.00  0.00    -0.042 C 
ATOM      8  C   UNL     1      46.839  20.726  18.934  0.00  0.00    +0.010 C 
ENDBRANCH   6   7
ENDBRANCH   5   6
TORSDOF 4
ENDMDL
MODEL 2
REMARK VINA RESULT:      -4.3      2.797      4.080
REMARK  Name = ZINC00001411
REMARK  5 active torsions:
REMARK  status: ('A' for Active; 'I' for Inactive)
REMARK    1  A    between atoms: C1_1  and  O1_2
REMARK    2  A    between atoms: O1_2  and  C2_3
REMARK    3  A    between atoms: C4_5  and  C8_10
REMARK    4  A    between atoms: C7_8  and  O2_9
REMARK    5  A    between atoms: C8_10  and  C9_11
REMARK                            x       y       z     vdW  Elec       q    Type
REMARK                         _______ _______ _______ _____ _____    ______ ____
ROOT
ATOM      3  C   UNL     1      44.523  22.214  20.093  0.00  0.00    +0.105 A 
ATOM      4  C   UNL     1      45.433  21.471  19.356  0.00  0.00    -0.060 A 
ATOM      5  C   UNL     1      46.710  21.263  19.843  0.00  0.00    -0.047 A 
ATOM      9  C   UNL     1      47.083  21.795  21.063  0.00  0.00    -0.007 A 
ATOM     10  C   UNL     1      46.181  22.537  21.803  0.00  0.00    +0.034 A 
ATOM     11  C   UNL     1      44.901  22.754  21.318  0.00  0.00    +0.069 A 
ENDROOT
BRANCH   3   2
ATOM      1  C   UNL     1      42.521  21.262  19.233  0.00  0.00    +0.239 C 
ATOM      2  O   UNL     1      43.267  22.419  19.615  0.00  0.00    -0.308 OA
ENDBRANCH   3   2
BRANCH  11  12
ATOM     12  O   UNL     1      44.014  23.488  22.041  0.00  0.00    -0.487 OA
ATOM     13  H   UNL     1      44.349  24.353  22.315  0.00  0.00    +0.387 HD
ENDBRANCH  11  12
BRANCH   5   6
ATOM      6  C   UNL     1      47.697  20.454  19.041  0.00  0.00    +0.108 C 
BRANCH   6   7
ATOM      7  C   UNL     1      49.100  20.805  19.469  0.00  0.00    -0.042 C 
ATOM      8  C   UNL     1      50.067  20.832  18.587  0.00  0.00    +0.010 C 
ENDBRANCH   6   7
ENDBRANCH   5   6
TORSDOF 4
ENDMDL
MODEL 3
REMARK VINA RESULT:      -4.3      8.680      9.903
REMARK  Name = ZINC00001411
REMARK  5 active torsions:
REMARK  status: ('A' for Active; 'I' for Inactive)
REMARK    1  A    between atoms: C1_1  and  O1_2
REMARK    2  A    between atoms: O1_2  and  C2_3
REMARK    3  A    between atoms: C4_5  and  C8_10
REMARK    4  A    between atoms: C7_8  and  O2_9
REMARK    5  A    between atoms: C8_10  and  C9_11
REMARK                            x       y       z     vdW  Elec       q    Type
REMARK                         _______ _______ _______ _____ _____    ______ ____
ROOT
ATOM      3  C   UNL     1      51.393  17.849  16.984  0.00  0.00    +0.105 A 
ATOM      4  C   UNL     1      50.902  18.764  17.903  0.00  0.00    -0.060 A 
ATOM      5  C   UNL     1      51.035  20.120  17.667  0.00  0.00    -0.047 A 
ATOM      9  C   UNL     1      51.657  20.566  16.516  0.00  0.00    -0.007 A 
ATOM     10  C   UNL     1      52.149  19.660  15.595  0.00  0.00    +0.034 A 
ATOM     11  C   UNL     1      52.024  18.300  15.829  0.00  0.00    +0.069 A 
ENDROOT
BRANCH   3   2
ATOM      1  C   UNL     1      49.934  15.993  17.267  0.00  0.00    +0.239 C 
ATOM      2  O   UNL     1      51.263  16.516  17.215  0.00  0.00    -0.308 OA
ENDBRANCH   3   2
BRANCH  11  12
ATOM     12  O   UNL     1      52.512  17.406  14.927  0.00  0.00    -0.487 OA
ATOM     13  H   UNL     1      53.078  16.724  15.314  0.00  0.00    +0.387 HD
ENDBRANCH  11  12
BRANCH   5   6
ATOM      6  C   UNL     1      50.500  21.113  18.667  0.00  0.00    +0.108 C 
BRANCH   6   7
ATOM      7  C   UNL     1      51.306  21.029  19.938  0.00  0.00    -0.042 C 
ATOM      8  C   UNL     1      52.461  21.639  20.022  0.00  0.00    +0.010 C 
ENDBRANCH   6   7
ENDBRANCH   5   6
TORSDOF 4
ENDMDL
MODEL 4
REMARK VINA RESULT:      -4.2      2.290      3.467
REMARK  Name = ZINC00001411
REMARK  5 active torsions:
REMARK  status: ('A' for Active; 'I' for Inactive)
REMARK    1  A    between atoms: C1_1  and  O1_2
REMARK    2  A    between atoms: O1_2  and  C2_3
REMARK    3  A    between atoms: C4_5  and  C8_10
REMARK    4  A    between atoms: C7_8  and  O2_9
REMARK    5  A    between atoms: C8_10  and  C9_11
REMARK                            x       y       z     vdW  Elec       q    Type
REMARK                         _______ _______ _______ _____ _____    ______ ____
ROOT
ATOM      3  C   UNL     1      42.867  21.720  19.524  0.00  0.00    +0.105 A 
ATOM      4  C   UNL     1      43.354  20.629  20.226  0.00  0.00    -0.060 A 
ATOM      5  C   UNL     1      42.628  19.453  20.267  0.00  0.00    -0.047 A 
ATOM      9  C   UNL     1      41.415  19.364  19.609  0.00  0.00    -0.007 A 
ATOM     10  C   UNL     1      40.923  20.448  18.907  0.00  0.00    +0.034 A 
ATOM     11  C   UNL     1      41.644  21.631  18.867  0.00  0.00    +0.069 A 
ENDROOT
BRANCH   3   2
ATOM      1  C   UNL     1      44.961  22.802  19.846  0.00  0.00    +0.239 C 
ATOM      2  O   UNL     1      43.581  22.877  19.483  0.00  0.00    -0.308 OA
ENDBRANCH   3   2
BRANCH  11  12
ATOM     12  O   UNL     1      41.160  22.701  18.181  0.00  0.00    -0.487 OA
ATOM     13  H   UNL     1      40.328  22.529  17.718  0.00  0.00    +0.387 HD
ENDBRANCH  11  12
BRANCH   5   6
ATOM      6  C   UNL     1      43.159  18.268  21.030  0.00  0.00    +0.108 C 
BRANCH   6   7
ATOM      7  C   UNL     1      44.602  18.036  20.657  0.00  0.00    -0.042 C 
ATOM      8  C   UNL     1      44.905  17.168  19.724  0.00  0.00    +0.010 C 
ENDBRANCH   6   7
ENDBRANCH   5   6
TORSDOF 4
ENDMDL
MODEL 5
REMARK VINA RESULT:      -4.1     21.102     22.422
REMARK  Name = ZINC00001411
REMARK  5 active torsions:
REMARK  status: ('A' for Active; 'I' for Inactive)
REMARK    1  A    between atoms: C1_1  and  O1_2
REMARK    2  A    between atoms: O1_2  and  C2_3
REMARK    3  A    between atoms: C4_5  and  C8_10
REMARK    4  A    between atoms: C7_8  and  O2_9
REMARK    5  A    between atoms: C8_10  and  C9_11
REMARK                            x       y       z     vdW  Elec       q    Type
REMARK                         _______ _______ _______ _____ _____    ______ ____
ROOT
ATOM      3  C   UNL     1      51.998  33.376   5.523  0.00  0.00    +0.105 A 
ATOM      4  C   UNL     1      53.309  33.651   5.167  0.00  0.00    -0.060 A 
ATOM      5  C   UNL     1      54.069  34.510   5.939  0.00  0.00    -0.047 A 
ATOM      9  C   UNL     1      53.525  35.095   7.067  0.00  0.00    -0.007 A 
ATOM     10  C   UNL     1      52.218  34.825   7.428  0.00  0.00    +0.034 A 
ATOM     11  C   UNL     1      51.449  33.970   6.655  0.00  0.00    +0.069 A 
ENDROOT
BRANCH   3   2
ATOM      1  C   UNL     1      50.726  33.051   3.540  0.00  0.00    +0.239 C 
ATOM      2  O   UNL     1      51.249  32.532   4.764  0.00  0.00    -0.308 OA
ENDBRANCH   3   2
BRANCH  11  12
ATOM     12  O   UNL     1      50.162  33.706   7.006  0.00  0.00    -0.487 OA
ATOM     13  H   UNL     1      50.072  33.057   7.717  0.00  0.00    +0.387 HD
ENDBRANCH  11  12
BRANCH   5   6
ATOM      6  C   UNL     1      55.495  34.808   5.550  0.00  0.00    +0.108 C 
BRANCH   6   7
ATOM      7  C   UNL     1      56.325  33.558   5.690  0.00  0.00    -0.042 C 
ATOM      8  C   UNL     1      57.625  33.615   5.546  0.00  0.00    +0.010 C 
ENDBRANCH   6   7
ENDBRANCH   5   6
TORSDOF 4
ENDMDL
MODEL 6
REMARK VINA RESULT:      -4.1      6.255      9.112
REMARK  Name = ZINC00001411
REMARK  5 active torsions:
REMARK  status: ('A' for Active; 'I' for Inactive)
REMARK    1  A    between atoms: C1_1  and  O1_2
REMARK    2  A    between atoms: O1_2  and  C2_3
REMARK    3  A    between atoms: C4_5  and  C8_10
REMARK    4  A    between atoms: C7_8  and  O2_9
REMARK    5  A    between atoms: C8_10  and  C9_11
REMARK                            x       y       z     vdW  Elec       q    Type
REMARK                         _______ _______ _______ _____ _____    ______ ____
ROOT
ATOM      3  C   UNL     1      50.847  18.592  17.255  0.00  0.00    +0.105 A 
ATOM      4  C   UNL     1      49.959  18.985  18.244  0.00  0.00    -0.060 A 
ATOM      5  C   UNL     1      49.868  20.318  18.601  0.00  0.00    -0.047 A 
ATOM      9  C   UNL     1      50.662  21.260  17.973  0.00  0.00    -0.007 A 
ATOM     10  C   UNL     1      51.549  20.875  16.986  0.00  0.00    +0.034 A 
ATOM     11  C   UNL     1      51.649  19.540  16.628  0.00  0.00    +0.069 A 
ENDROOT
BRANCH   3   2
ATOM      1  C   UNL     1      51.636  16.416  17.800  0.00  0.00    +0.239 C 
ATOM      2  O   UNL     1      50.937  17.281  16.903  0.00  0.00    -0.308 OA
ENDBRANCH   3   2
BRANCH  11  12
ATOM     12  O   UNL     1      52.525  19.158  15.660  0.00  0.00    -0.487 OA
ATOM     13  H   UNL     1      52.144  18.571  14.993  0.00  0.00    +0.387 HD
ENDBRANCH  11  12
BRANCH   5   6
ATOM      6  C   UNL     1      48.902  20.744  19.677  0.00  0.00    +0.108 C 
BRANCH   6   7
ATOM      7  C   UNL     1      47.547  20.143  19.401  0.00  0.00    -0.042 C 
ATOM      8  C   UNL     1      46.621  20.858  18.813  0.00  0.00    +0.010 C 
ENDBRANCH   6   7
ENDBRANCH   5   6
TORSDOF 4
ENDMDL
MODEL 7
REMARK VINA RESULT:      -4.0     21.421     22.649
REMARK  Name = ZINC00001411
REMARK  5 active torsions:
REMARK  status: ('A' for Active; 'I' for Inactive)
REMARK    1  A    between atoms: C1_1  and  O1_2
REMARK    2  A    between atoms: O1_2  and  C2_3
REMARK    3  A    between atoms: C4_5  and  C8_10
REMARK    4  A    between atoms: C7_8  and  O2_9
REMARK    5  A    between atoms: C8_10  and  C9_11
REMARK                            x       y       z     vdW  Elec       q    Type
REMARK                         _______ _______ _______ _____ _____    ______ ____
ROOT
ATOM      3  C   UNL     1      52.290  32.777   3.823  0.00  0.00    +0.105 A 
ATOM      4  C   UNL     1      53.504  32.810   4.492  0.00  0.00    -0.060 A 
ATOM      5  C   UNL     1      53.546  33.149   5.832  0.00  0.00    -0.047 A 
ATOM      9  C   UNL     1      52.380  33.455   6.507  0.00  0.00    -0.007 A 
ATOM     10  C   UNL     1      51.166  33.424   5.847  0.00  0.00    +0.034 A 
ATOM     11  C   UNL     1      51.117  33.091   4.503  0.00  0.00    +0.069 A 
ENDROOT
BRANCH   3   2
ATOM      1  C   UNL     1      53.410  31.823   1.955  0.00  0.00    +0.239 C 
ATOM      2  O   UNL     1      52.247  32.444   2.506  0.00  0.00    -0.308 OA
ENDBRANCH   3   2
BRANCH  11  12
ATOM     12  O   UNL     1      49.924  33.065   3.850  0.00  0.00    -0.487 OA
ATOM     13  H   UNL     1      49.159  32.967   4.432  0.00  0.00    +0.387 HD
ENDBRANCH  11  12
BRANCH   5   6
ATOM      6  C   UNL     1      54.867  33.184   6.557  0.00  0.00    +0.108 C 
BRANCH   6   7
ATOM      7  C   UNL     1      55.791  34.159   5.871  0.00  0.00    -0.042 C 
ATOM      8  C   UNL     1      57.016  33.804   5.577  0.00  0.00    +0.010 C 
ENDBRANCH   6   7
ENDBRANCH   5   6
TORSDOF 4
ENDMDL
MODEL 8
REMARK VINA RESULT:      -4.0      8.348      9.932
REMARK  Name = ZINC00001411
REMARK  5 active torsions:
REMARK  status: ('A' for Active; 'I' for Inactive)
REMARK    1  A    between atoms: C1_1  and  O1_2
REMARK    2  A    between atoms: O1_2  and  C2_3
REMARK    3  A    between atoms: C4_5  and  C8_10
REMARK    4  A    between atoms: C7_8  and  O2_9
REMARK    5  A    between atoms: C8_10  and  C9_11
REMARK                            x       y       z     vdW  Elec       q    Type
REMARK                         _______ _______ _______ _____ _____    ______ ____
ROOT
ATOM      3  C   UNL     1      51.577  20.453  17.738  0.00  0.00    +0.105 A 
ATOM      4  C   UNL     1      51.492  19.157  18.222  0.00  0.00    -0.060 A 
ATOM      5  C   UNL     1      51.596  18.086  17.352  0.00  0.00    -0.047 A 
ATOM      9  C   UNL     1      51.785  18.306  16.001  0.00  0.00    -0.007 A 
ATOM     10  C   UNL     1      51.872  19.596  15.512  0.00  0.00    +0.034 A 
ATOM     11  C   UNL     1      51.763  20.673  16.377  0.00  0.00    +0.069 A 
ENDROOT
BRANCH   3   2
ATOM      1  C   UNL     1      52.347  21.511  19.724  0.00  0.00    +0.239 C 
ATOM      2  O   UNL     1      51.475  21.507  18.592  0.00  0.00    -0.308 OA
ENDBRANCH   3   2
BRANCH  11  12
ATOM     12  O   UNL     1      51.843  21.943  15.897  0.00  0.00    -0.487 OA
ATOM     13  H   UNL     1      52.058  22.605  16.568  0.00  0.00    +0.387 HD
ENDBRANCH  11  12
BRANCH   5   6
ATOM      6  C   UNL     1      51.502  16.678  17.881  0.00  0.00    +0.108 C 
BRANCH   6   7
ATOM      7  C   UNL     1      50.343  15.971  17.225  0.00  0.00    -0.042 C 
ATOM      8  C   UNL     1      49.117  16.366  17.460  0.00  0.00    +0.010 C 
ENDBRANCH   6   7
ENDBRANCH   5   6
TORSDOF 4
ENDMDL
MODEL 9
REMARK VINA RESULT:      -3.9     21.656     23.637
REMARK  Name = ZINC00001411
REMARK  5 active torsions:
REMARK  status: ('A' for Active; 'I' for Inactive)
REMARK    1  A    between atoms: C1_1  and  O1_2
REMARK    2  A    between atoms: O1_2  and  C2_3
REMARK    3  A    between atoms: C4_5  and  C8_10
REMARK    4  A    between atoms: C7_8  and  O2_9
REMARK    5  A    between atoms: C8_10  and  C9_11
REMARK                            x       y       z     vdW  Elec       q    Type
REMARK                         _______ _______ _______ _____ _____    ______ ____
ROOT
ATOM      3  C   UNL     1      40.291  34.164  -0.341  0.00  0.00    +0.105 A 
ATOM      4  C   UNL     1      41.435  33.703   0.292  0.00  0.00    -0.060 A 
ATOM      5  C   UNL     1      41.396  33.373   1.635  0.00  0.00    -0.047 A 
ATOM      9  C   UNL     1      40.219  33.503   2.348  0.00  0.00    -0.007 A 
ATOM     10  C   UNL     1      39.075  33.962   1.723  0.00  0.00    +0.034 A 
ATOM     11  C   UNL     1      39.108  34.299   0.379  0.00  0.00    +0.069 A 
ENDROOT
BRANCH   3   2
ATOM      1  C   UNL     1      40.869  33.513  -2.554  0.00  0.00    +0.239 C 
ATOM      2  O   UNL     1      40.327  34.488  -1.661  0.00  0.00    -0.308 OA
ENDBRANCH   3   2
BRANCH  11  12
ATOM     12  O   UNL     1      37.985  34.756  -0.237  0.00  0.00    -0.487 OA
ATOM     13  H   UNL     1      37.169  34.587   0.255  0.00  0.00    +0.387 HD
ENDBRANCH  11  12
BRANCH   5   6
ATOM      6  C   UNL     1      42.641  32.872   2.321  0.00  0.00    +0.108 C 
BRANCH   6   7
ATOM      7  C   UNL     1      42.459  31.422   2.693  0.00  0.00    -0.042 C 
ATOM      8  C   UNL     1      42.343  30.515   1.756  0.00  0.00    +0.010 C 
ENDBRANCH   6   7
ENDBRANCH   5   6
TORSDOF 4
ENDMDL
