MODEL 1
REMARK VINA RESULT:      -6.8      0.000      0.000
REMARK  Name = ZINC95485911
REMARK  18 active torsions:
REMARK  status: ('A' for Active; 'I' for Inactive)
REMARK    1  A    between atoms: C1_1  and  C2_2
REMARK    2  A    between atoms: C4_4  and  O9_42
REMARK    3  A    between atoms: C9_12  and  O4_23
REMARK    4  A    between atoms: C10_13  and  C15_22
REMARK    5  A    between atoms: C12_15  and  O3_21
REMARK    6  A    between atoms: C13_17  and  O2_20
REMARK    7  A    between atoms: C16_24  and  O8_41
REMARK    8  A    between atoms: C19_27  and  C20_29
REMARK    9  A    between atoms: C20_29  and  C21_30
REMARK   10  A    between atoms: C20_29  and  C22_31
REMARK   11  A    between atoms: C20_29  and  O7_40
REMARK   12  A    between atoms: C22_31  and  C23_33
REMARK   13  A    between atoms: C22_31  and  O6_39
REMARK   14  A    between atoms: C23_33  and  C24_34
REMARK   15  A    between atoms: C24_34  and  C25_35
REMARK   16  A    between atoms: C25_35  and  C26_36
REMARK   17  A    between atoms: C25_35  and  C27_37
REMARK   18  A    between atoms: C25_35  and  O5_38
REMARK                            x       y       z     vdW  Elec       q    Type
REMARK                         _______ _______ _______ _____ _____    ______ ____
ROOT
ATOM      1  C   UNL     1      46.537  19.059  21.154  0.00  0.00    +0.053 C 
ATOM      2  C   UNL     1      45.776  18.574  19.917  0.00  0.00    -0.034 C 
ATOM      3  C   UNL     1      45.787  17.066  19.893  0.00  0.00    +0.013 C 
ATOM      4  C   UNL     1      47.245  16.601  20.067  0.00  0.00    +0.200 C 
ATOM      7  C   UNL     1      48.135  17.176  18.973  0.00  0.00    +0.053 C 
ATOM      8  C   UNL     1      47.937  18.660  18.823  0.00  0.00    -0.029 C 
ATOM      9  C   UNL     1      48.915  19.554  18.879  0.00  0.00    -0.088 C 
ATOM     10  C   UNL     1      50.287  19.094  19.153  0.00  0.00    +0.362 C 
ATOM     11  C   UNL     1      50.400  17.772  19.883  0.00  0.00    +0.118 C 
ATOM     14  C   UNL     1      51.859  17.347  19.980  0.00  0.00    +0.048 C 
ATOM     15  C   UNL     1      52.444  17.183  18.602  0.00  0.00    +0.150 C 
ATOM     18  C   UNL     1      51.651  16.090  17.881  0.00  0.00    +0.131 C 
ATOM     21  C   UNL     1      50.196  16.535  17.741  0.00  0.00    +0.050 C 
ATOM     22  O   UNL     1      51.262  19.733  18.816  0.00  0.00    -0.435 OA
ATOM     23  C   UNL     1      49.580  16.756  19.125  0.00  0.00    -0.029 C 
ATOM     24  C   UNL     1      49.634  15.432  19.891  0.00  0.00    +0.082 C 
ATOM     25  C   UNL     1      44.431  19.278  19.857  0.00  0.00    -0.000 C 
ATOM     40  C   UNL     1      44.714  20.624  19.138  0.00  0.00    +0.022 C 
ATOM     41  C   UNL     1      46.212  20.590  18.721  0.00  0.00    +0.016 C 
ATOM     42  C   UNL     1      46.507  19.090  18.643  0.00  0.00    +0.149 C 
ENDROOT
BRANCH   4   5
ATOM      5  O   UNL     1      47.294  15.173  20.008  0.00  0.00    -0.554 OA
ATOM      6  H   UNL     1      46.860  14.797  19.231  0.00  0.00    +0.372 HD
ENDBRANCH   4   5
BRANCH  11  12
ATOM     12  O   UNL     1      49.860  17.911  21.199  0.00  0.00    -0.526 OA
ATOM     13  H   UNL     1      50.519  17.853  21.903  0.00  0.00    +0.379 HD
ENDBRANCH  11  12
BRANCH  15  16
ATOM     16  O   UNL     1      53.812  16.786  18.716  0.00  0.00    -0.561 OA
ATOM     17  H   UNL     1      54.329  17.327  19.329  0.00  0.00    +0.379 HD
ENDBRANCH  15  16
BRANCH  18  19
ATOM     19  O   UNL     1      51.708  14.879  18.639  0.00  0.00    -0.539 OA
ATOM     20  H   UNL     1      51.387  14.967  19.547  0.00  0.00    +0.373 HD
ENDBRANCH  18  19
BRANCH  25  26
ATOM     26  C   UNL     1      43.899  19.532  21.269  0.00  0.00    +0.114 C 
ATOM     39  C   UNL     1      44.907  19.008  22.295  0.00  0.00    +0.058 C 
BRANCH  26  27
ATOM     27  O   UNL     1      43.710  20.935  21.461  0.00  0.00    -0.542 OA
ATOM     28  H   UNL     1      43.075  21.154  22.157  0.00  0.00    +0.369 HD
ENDBRANCH  26  27
BRANCH  26  29
ATOM     29  C   UNL     1      42.565  18.807  21.449  0.00  0.00    +0.179 C 
BRANCH  29  30
ATOM     30  O   UNL     1      41.820  19.431  22.496  0.00  0.00    -0.553 OA
ATOM     31  H   UNL     1      41.810  18.931  23.324  0.00  0.00    +0.373 HD
ENDBRANCH  29  30
BRANCH  29  32
ATOM     32  C   UNL     1      41.767  18.876  20.145  0.00  0.00    +0.010 C 
BRANCH  32  33
ATOM     33  C   UNL     1      40.704  19.970  20.255  0.00  0.00    -0.003 C 
BRANCH  33  34
ATOM     34  C   UNL     1      40.790  20.889  19.034  0.00  0.00    +0.126 C 
ATOM     37  C   UNL     1      39.395  21.422  18.697  0.00  0.00    +0.006 C 
ATOM     38  C   UNL     1      41.338  20.103  17.841  0.00  0.00    +0.053 C 
BRANCH  34  35
ATOM     35  O   UNL     1      41.661  21.985  19.323  0.00  0.00    -0.559 OA
ATOM     36  H   UNL     1      41.648  22.264  20.249  0.00  0.00    +0.374 HD
ENDBRANCH  34  35
ENDBRANCH  33  34
ENDBRANCH  32  33
ENDBRANCH  29  32
ENDBRANCH  26  29
ENDBRANCH  25  26
BRANCH  42  43
ATOM     43  O   UNL     1      45.958  18.506  17.459  0.00  0.00    -0.536 OA
ATOM     44  H   UNL     1      44.992  18.492  17.440  0.00  0.00    +0.378 HD
ENDBRANCH  42  43
TORSDOF 13
ENDMDL
MODEL 2
REMARK VINA RESULT:      -6.6      3.036      4.746
REMARK  Name = ZINC95485911
REMARK  18 active torsions:
REMARK  status: ('A' for Active; 'I' for Inactive)
REMARK    1  A    between atoms: C1_1  and  C2_2
REMARK    2  A    between atoms: C4_4  and  O9_42
REMARK    3  A    between atoms: C9_12  and  O4_23
REMARK    4  A    between atoms: C10_13  and  C15_22
REMARK    5  A    between atoms: C12_15  and  O3_21
REMARK    6  A    between atoms: C13_17  and  O2_20
REMARK    7  A    between atoms: C16_24  and  O8_41
REMARK    8  A    between atoms: C19_27  and  C20_29
REMARK    9  A    between atoms: C20_29  and  C21_30
REMARK   10  A    between atoms: C20_29  and  C22_31
REMARK   11  A    between atoms: C20_29  and  O7_40
REMARK   12  A    between atoms: C22_31  and  C23_33
REMARK   13  A    between atoms: C22_31  and  O6_39
REMARK   14  A    between atoms: C23_33  and  C24_34
REMARK   15  A    between atoms: C24_34  and  C25_35
REMARK   16  A    between atoms: C25_35  and  C26_36
REMARK   17  A    between atoms: C25_35  and  C27_37
REMARK   18  A    between atoms: C25_35  and  O5_38
REMARK                            x       y       z     vdW  Elec       q    Type
REMARK                         _______ _______ _______ _____ _____    ______ ____
ROOT
ATOM      1  C   UNL     1      45.919  17.145  18.193  0.00  0.00    +0.053 C 
ATOM      2  C   UNL     1      46.659  16.939  19.517  0.00  0.00    -0.034 C 
ATOM      3  C   UNL     1      48.142  17.069  19.277  0.00  0.00    +0.013 C 
ATOM      4  C   UNL     1      48.512  16.151  18.096  0.00  0.00    +0.200 C 
ATOM      7  C   UNL     1      48.126  14.707  18.387  0.00  0.00    +0.053 C 
ATOM      8  C   UNL     1      46.707  14.602  18.876  0.00  0.00    -0.029 C 
ATOM      9  C   UNL     1      45.784  13.823  18.328  0.00  0.00    -0.088 C 
ATOM     10  C   UNL     1      46.132  13.034  17.135  0.00  0.00    +0.362 C 
ATOM     11  C   UNL     1      47.285  13.570  16.311  0.00  0.00    +0.118 C 
ATOM     14  C   UNL     1      47.631  12.595  15.192  0.00  0.00    +0.048 C 
ATOM     15  C   UNL     1      48.035  11.265  15.771  0.00  0.00    +0.150 C 
ATOM     18  C   UNL     1      49.274  11.487  16.641  0.00  0.00    +0.131 C 
ATOM     21  C   UNL     1      48.916  12.427  17.792  0.00  0.00    +0.050 C 
ATOM     22  O   UNL     1      45.535  12.022  16.832  0.00  0.00    -0.435 OA
ATOM     23  C   UNL     1      48.456  13.779  17.239  0.00  0.00    -0.029 C 
ATOM     24  C   UNL     1      49.606  14.383  16.430  0.00  0.00    +0.082 C 
ATOM     25  C   UNL     1      46.028  17.824  20.579  0.00  0.00    -0.000 C 
ATOM     40  C   UNL     1      44.836  17.000  21.133  0.00  0.00    +0.022 C 
ATOM     41  C   UNL     1      44.896  15.616  20.426  0.00  0.00    +0.016 C 
ATOM     42  C   UNL     1      46.371  15.500  20.035  0.00  0.00    +0.149 C 
ENDROOT
BRANCH   4   5
ATOM      5  O   UNL     1      49.922  16.222  17.869  0.00  0.00    -0.554 OA
ATOM      6  H   UNL     1      50.179  16.093  16.946  0.00  0.00    +0.372 HD
ENDBRANCH   4   5
BRANCH  11  12
ATOM     12  O   UNL     1      46.916  14.828  15.744  0.00  0.00    -0.526 OA
ATOM     13  H   UNL     1      46.350  14.758  14.963  0.00  0.00    +0.379 HD
ENDBRANCH  11  12
BRANCH  15  16
ATOM     16  O   UNL     1      48.353  10.367  14.706  0.00  0.00    -0.561 OA
ATOM     17  H   UNL     1      47.612   9.811  14.426  0.00  0.00    +0.379 HD
ENDBRANCH  15  16
BRANCH  18  19
ATOM     19  O   UNL     1      50.314  12.071  15.854  0.00  0.00    -0.539 OA
ATOM     20  H   UNL     1      51.037  12.448  16.374  0.00  0.00    +0.373 HD
ENDBRANCH  18  19
BRANCH  25  26
ATOM     26  C   UNL     1      45.528  19.129  19.956  0.00  0.00    +0.114 C 
ATOM     39  C   UNL     1      46.210  20.316  20.641  0.00  0.00    +0.058 C 
BRANCH  26  27
ATOM     27  O   UNL     1      45.840  19.141  18.562  0.00  0.00    -0.542 OA
ATOM     28  H   UNL     1      45.072  19.272  17.988  0.00  0.00    +0.369 HD
ENDBRANCH  26  27
BRANCH  26  29
ATOM     29  C   UNL     1      44.013  19.234  20.142  0.00  0.00    +0.179 C 
BRANCH  29  30
ATOM     30  O   UNL     1      43.723  20.182  21.171  0.00  0.00    -0.553 OA
ATOM     31  H   UNL     1      43.588  19.785  22.043  0.00  0.00    +0.373 HD
ENDBRANCH  29  30
BRANCH  29  32
ATOM     32  C   UNL     1      43.370  19.692  18.830  0.00  0.00    +0.010 C 
BRANCH  32  33
ATOM     33  C   UNL     1      42.587  20.985  19.072  0.00  0.00    -0.003 C 
BRANCH  33  34
ATOM     34  C   UNL     1      41.087  20.695  18.986  0.00  0.00    +0.126 C 
ATOM     37  C   UNL     1      40.844  19.543  18.008  0.00  0.00    +0.006 C 
ATOM     38  C   UNL     1      40.353  21.944  18.493  0.00  0.00    +0.053 C 
BRANCH  34  35
ATOM     35  O   UNL     1      40.597  20.333  20.279  0.00  0.00    -0.559 OA
ATOM     36  H   UNL     1      41.212  20.522  20.999  0.00  0.00    +0.374 HD
ENDBRANCH  34  35
ENDBRANCH  33  34
ENDBRANCH  32  33
ENDBRANCH  29  32
ENDBRANCH  26  29
ENDBRANCH  25  26
BRANCH  42  43
ATOM     43  O   UNL     1      47.190  15.181  21.162  0.00  0.00    -0.536 OA
ATOM     44  H   UNL     1      47.940  14.607  20.953  0.00  0.00    +0.378 HD
ENDBRANCH  42  43
TORSDOF 13
ENDMDL
MODEL 3
REMARK VINA RESULT:      -6.5      1.819      8.117
REMARK  Name = ZINC95485911
REMARK  18 active torsions:
REMARK  status: ('A' for Active; 'I' for Inactive)
REMARK    1  A    between atoms: C1_1  and  C2_2
REMARK    2  A    between atoms: C4_4  and  O9_42
REMARK    3  A    between atoms: C9_12  and  O4_23
REMARK    4  A    between atoms: C10_13  and  C15_22
REMARK    5  A    between atoms: C12_15  and  O3_21
REMARK    6  A    between atoms: C13_17  and  O2_20
REMARK    7  A    between atoms: C16_24  and  O8_41
REMARK    8  A    between atoms: C19_27  and  C20_29
REMARK    9  A    between atoms: C20_29  and  C21_30
REMARK   10  A    between atoms: C20_29  and  C22_31
REMARK   11  A    between atoms: C20_29  and  O7_40
REMARK   12  A    between atoms: C22_31  and  C23_33
REMARK   13  A    between atoms: C22_31  and  O6_39
REMARK   14  A    between atoms: C23_33  and  C24_34
REMARK   15  A    between atoms: C24_34  and  C25_35
REMARK   16  A    between atoms: C25_35  and  C26_36
REMARK   17  A    between atoms: C25_35  and  C27_37
REMARK   18  A    between atoms: C25_35  and  O5_38
REMARK                            x       y       z     vdW  Elec       q    Type
REMARK                         _______ _______ _______ _____ _____    ______ ____
ROOT
ATOM      1  C   UNL     1      48.316  18.872  21.531  0.00  0.00    +0.053 C 
ATOM      2  C   UNL     1      48.436  18.682  20.017  0.00  0.00    -0.034 C 
ATOM      3  C   UNL     1      48.016  19.955  19.326  0.00  0.00    +0.013 C 
ATOM      4  C   UNL     1      46.644  20.369  19.892  0.00  0.00    +0.200 C 
ATOM      7  C   UNL     1      45.615  19.266  19.687  0.00  0.00    +0.053 C 
ATOM      8  C   UNL     1      46.136  17.931  20.149  0.00  0.00    -0.029 C 
ATOM      9  C   UNL     1      45.515  17.150  21.023  0.00  0.00    -0.088 C 
ATOM     10  C   UNL     1      44.257  17.615  21.630  0.00  0.00    +0.362 C 
ATOM     11  C   UNL     1      44.060  19.117  21.655  0.00  0.00    +0.118 C 
ATOM     14  C   UNL     1      42.671  19.456  22.178  0.00  0.00    +0.048 C 
ATOM     15  C   UNL     1      41.618  18.851  21.287  0.00  0.00    +0.150 C 
ATOM     18  C   UNL     1      41.786  19.449  19.888  0.00  0.00    +0.131 C 
ATOM     21  C   UNL     1      43.162  19.069  19.341  0.00  0.00    +0.050 C 
ATOM     22  O   UNL     1      43.434  16.846  22.081  0.00  0.00    -0.435 OA
ATOM     23  C   UNL     1      44.259  19.630  20.250  0.00  0.00    -0.029 C 
ATOM     24  C   UNL     1      44.127  21.154  20.275  0.00  0.00    +0.082 C 
ATOM     25  C   UNL     1      49.810  18.117  19.698  0.00  0.00    -0.000 C 
ATOM     40  C   UNL     1      49.662  16.581  19.865  0.00  0.00    +0.022 C 
ATOM     41  C   UNL     1      48.162  16.319  20.181  0.00  0.00    +0.016 C 
ATOM     42  C   UNL     1      47.471  17.543  19.576  0.00  0.00    +0.149 C 
ENDROOT
BRANCH   4   5
ATOM      5  O   UNL     1      46.199  21.554  19.226  0.00  0.00    -0.554 OA
ATOM      6  H   UNL     1      45.821  21.394  18.351  0.00  0.00    +0.372 HD
ENDBRANCH   4   5
BRANCH  11  12
ATOM     12  O   UNL     1      45.043  19.709  22.505  0.00  0.00    -0.526 OA
ATOM     13  H   UNL     1      45.298  20.605  22.249  0.00  0.00    +0.379 HD
ENDBRANCH  11  12
BRANCH  15  16
ATOM     16  O   UNL     1      40.325  19.180  21.796  0.00  0.00    -0.561 OA
ATOM     17  H   UNL     1      39.711  19.511  21.126  0.00  0.00    +0.379 HD
ENDBRANCH  15  16
BRANCH  18  19
ATOM     19  O   UNL     1      41.678  20.873  19.959  0.00  0.00    -0.539 OA
ATOM     20  H   UNL     1      42.525  21.326  20.073  0.00  0.00    +0.373 HD
ENDBRANCH  18  19
BRANCH  25  26
ATOM     26  C   UNL     1      50.851  18.660  20.679  0.00  0.00    +0.114 C 
ATOM     39  C   UNL     1      50.546  20.130  20.983  0.00  0.00    +0.058 C 
BRANCH  26  27
ATOM     27  O   UNL     1      50.803  17.905  21.890  0.00  0.00    -0.542 OA
ATOM     28  H   UNL     1      50.125  17.215  21.897  0.00  0.00    +0.369 HD
ENDBRANCH  26  27
BRANCH  26  29
ATOM     29  C   UNL     1      52.244  18.547  20.059  0.00  0.00    +0.179 C 
BRANCH  29  30
ATOM     30  O   UNL     1      52.851  17.320  20.470  0.00  0.00    -0.553 OA
ATOM     31  H   UNL     1      52.570  17.016  21.344  0.00  0.00    +0.373 HD
ENDBRANCH  29  30
BRANCH  29  32
ATOM     32  C   UNL     1      52.127  18.572  18.533  0.00  0.00    +0.010 C 
BRANCH  32  33
ATOM     33  C   UNL     1      52.730  19.873  17.998  0.00  0.00    -0.003 C 
BRANCH  33  34
ATOM     34  C   UNL     1      51.856  20.410  16.863  0.00  0.00    +0.126 C 
ATOM     37  C   UNL     1      50.719  21.252  17.449  0.00  0.00    +0.006 C 
ATOM     38  C   UNL     1      51.267  19.239  16.073  0.00  0.00    +0.053 C 
BRANCH  34  35
ATOM     35  O   UNL     1      52.649  21.221  15.994  0.00  0.00    -0.559 OA
ATOM     36  H   UNL     1      52.267  21.344  15.114  0.00  0.00    +0.374 HD
ENDBRANCH  34  35
ENDBRANCH  33  34
ENDBRANCH  32  33
ENDBRANCH  29  32
ENDBRANCH  26  29
ENDBRANCH  25  26
BRANCH  42  43
ATOM     43  O   UNL     1      47.392  17.453  18.152  0.00  0.00    -0.536 OA
ATOM     44  H   UNL     1      47.561  16.567  17.805  0.00  0.00    +0.378 HD
ENDBRANCH  42  43
TORSDOF 13
ENDMDL
MODEL 4
REMARK VINA RESULT:      -6.5      1.728      8.081
REMARK  Name = ZINC95485911
REMARK  18 active torsions:
REMARK  status: ('A' for Active; 'I' for Inactive)
REMARK    1  A    between atoms: C1_1  and  C2_2
REMARK    2  A    between atoms: C4_4  and  O9_42
REMARK    3  A    between atoms: C9_12  and  O4_23
REMARK    4  A    between atoms: C10_13  and  C15_22
REMARK    5  A    between atoms: C12_15  and  O3_21
REMARK    6  A    between atoms: C13_17  and  O2_20
REMARK    7  A    between atoms: C16_24  and  O8_41
REMARK    8  A    between atoms: C19_27  and  C20_29
REMARK    9  A    between atoms: C20_29  and  C21_30
REMARK   10  A    between atoms: C20_29  and  C22_31
REMARK   11  A    between atoms: C20_29  and  O7_40
REMARK   12  A    between atoms: C22_31  and  C23_33
REMARK   13  A    between atoms: C22_31  and  O6_39
REMARK   14  A    between atoms: C23_33  and  C24_34
REMARK   15  A    between atoms: C24_34  and  C25_35
REMARK   16  A    between atoms: C25_35  and  C26_36
REMARK   17  A    between atoms: C25_35  and  C27_37
REMARK   18  A    between atoms: C25_35  and  O5_38
REMARK                            x       y       z     vdW  Elec       q    Type
REMARK                         _______ _______ _______ _____ _____    ______ ____
ROOT
ATOM      1  C   UNL     1      48.045  17.496  20.546  0.00  0.00    +0.053 C 
ATOM      2  C   UNL     1      47.838  17.228  19.054  0.00  0.00    -0.034 C 
ATOM      3  C   UNL     1      47.577  18.536  18.351  0.00  0.00    +0.013 C 
ATOM      4  C   UNL     1      46.456  19.268  19.112  0.00  0.00    +0.200 C 
ATOM      7  C   UNL     1      45.195  18.416  19.175  0.00  0.00    +0.053 C 
ATOM      8  C   UNL     1      45.496  17.017  19.640  0.00  0.00    -0.029 C 
ATOM      9  C   UNL     1      44.897  16.426  20.666  0.00  0.00    -0.088 C 
ATOM     10  C   UNL     1      43.903  17.183  21.444  0.00  0.00    +0.362 C 
ATOM     11  C   UNL     1      44.039  18.690  21.388  0.00  0.00    +0.118 C 
ATOM     14  C   UNL     1      42.876  19.351  22.117  0.00  0.00    +0.048 C 
ATOM     15  C   UNL     1      41.571  18.964  21.471  0.00  0.00    +0.150 C 
ATOM     18  C   UNL     1      41.599  19.458  20.023  0.00  0.00    +0.131 C 
ATOM     21  C   UNL     1      42.736  18.760  19.276  0.00  0.00    +0.050 C 
ATOM     22  O   UNL     1      43.033  16.635  22.089  0.00  0.00    -0.435 OA
ATOM     23  C   UNL     1      44.077  19.095  19.935  0.00  0.00    -0.029 C 
ATOM     24  C   UNL     1      44.280  20.610  19.865  0.00  0.00    +0.082 C 
ATOM     25  C   UNL     1      48.976  16.359  18.545  0.00  0.00    -0.000 C 
ATOM     40  C   UNL     1      48.537  14.902  18.853  0.00  0.00    +0.022 C 
ATOM     41  C   UNL     1      47.101  14.994  19.443  0.00  0.00    +0.016 C 
ATOM     42  C   UNL     1      46.587  16.319  18.876  0.00  0.00    +0.149 C 
ENDROOT
BRANCH   4   5
ATOM      5  O   UNL     1      46.157  20.497  18.445  0.00  0.00    -0.554 OA
ATOM      6  H   UNL     1      45.649  21.121  18.980  0.00  0.00    +0.372 HD
ENDBRANCH   4   5
BRANCH  11  12
ATOM     12  O   UNL     1      45.266  19.078  22.007  0.00  0.00    -0.526 OA
ATOM     13  H   UNL     1      46.055  18.737  21.565  0.00  0.00    +0.379 HD
ENDBRANCH  11  12
BRANCH  15  16
ATOM     16  O   UNL     1      40.496  19.593  22.170  0.00  0.00    -0.561 OA
ATOM     17  H   UNL     1      40.424  19.332  23.099  0.00  0.00    +0.379 HD
ENDBRANCH  15  16
BRANCH  18  19
ATOM     19  O   UNL     1      41.813  20.872  20.002  0.00  0.00    -0.539 OA
ATOM     20  H   UNL     1      42.343  21.178  19.253  0.00  0.00    +0.373 HD
ENDBRANCH  18  19
BRANCH  25  26
ATOM     26  C   UNL     1      50.272  16.691  19.285  0.00  0.00    +0.114 C 
ATOM     39  C   UNL     1      50.053  17.923  20.167  0.00  0.00    +0.058 C 
BRANCH  26  27
ATOM     27  O   UNL     1      50.651  15.583  20.103  0.00  0.00    -0.542 OA
ATOM     28  H   UNL     1      50.285  14.736  19.812  0.00  0.00    +0.369 HD
ENDBRANCH  26  27
BRANCH  26  29
ATOM     29  C   UNL     1      51.379  16.981  18.271  0.00  0.00    +0.179 C 
BRANCH  29  30
ATOM     30  O   UNL     1      50.871  16.810  16.947  0.00  0.00    -0.553 OA
ATOM     31  H   UNL     1      51.515  16.998  16.251  0.00  0.00    +0.373 HD
ENDBRANCH  29  30
BRANCH  29  32
ATOM     32  C   UNL     1      51.868  18.420  18.448  0.00  0.00    +0.010 C 
BRANCH  32  33
ATOM     33  C   UNL     1      51.742  19.168  17.119  0.00  0.00    -0.003 C 
BRANCH  33  34
ATOM     34  C   UNL     1      51.650  20.672  17.387  0.00  0.00    +0.126 C 
ATOM     37  C   UNL     1      50.385  20.970  18.196  0.00  0.00    +0.006 C 
ATOM     38  C   UNL     1      51.593  21.425  16.056  0.00  0.00    +0.053 C 
BRANCH  34  35
ATOM     35  O   UNL     1      52.798  21.095  18.126  0.00  0.00    -0.559 OA
ATOM     36  H   UNL     1      52.900  22.055  18.177  0.00  0.00    +0.374 HD
ENDBRANCH  34  35
ENDBRANCH  33  34
ENDBRANCH  32  33
ENDBRANCH  29  32
ENDBRANCH  26  29
ENDBRANCH  25  26
BRANCH  42  43
ATOM     43  O   UNL     1      46.227  16.197  17.498  0.00  0.00    -0.536 OA
ATOM     44  H   UNL     1      45.489  16.764  17.233  0.00  0.00    +0.378 HD
ENDBRANCH  42  43
TORSDOF 13
ENDMDL
MODEL 5
REMARK VINA RESULT:      -6.4      1.616      3.385
REMARK  Name = ZINC95485911
REMARK  18 active torsions:
REMARK  status: ('A' for Active; 'I' for Inactive)
REMARK    1  A    between atoms: C1_1  and  C2_2
REMARK    2  A    between atoms: C4_4  and  O9_42
REMARK    3  A    between atoms: C9_12  and  O4_23
REMARK    4  A    between atoms: C10_13  and  C15_22
REMARK    5  A    between atoms: C12_15  and  O3_21
REMARK    6  A    between atoms: C13_17  and  O2_20
REMARK    7  A    between atoms: C16_24  and  O8_41
REMARK    8  A    between atoms: C19_27  and  C20_29
REMARK    9  A    between atoms: C20_29  and  C21_30
REMARK   10  A    between atoms: C20_29  and  C22_31
REMARK   11  A    between atoms: C20_29  and  O7_40
REMARK   12  A    between atoms: C22_31  and  C23_33
REMARK   13  A    between atoms: C22_31  and  O6_39
REMARK   14  A    between atoms: C23_33  and  C24_34
REMARK   15  A    between atoms: C24_34  and  C25_35
REMARK   16  A    between atoms: C25_35  and  C26_36
REMARK   17  A    between atoms: C25_35  and  C27_37
REMARK   18  A    between atoms: C25_35  and  O5_38
REMARK                            x       y       z     vdW  Elec       q    Type
REMARK                         _______ _______ _______ _____ _____    ______ ____
ROOT
ATOM      1  C   UNL     1      46.524  19.882  18.752  0.00  0.00    +0.053 C 
ATOM      2  C   UNL     1      47.176  20.373  20.047  0.00  0.00    -0.034 C 
ATOM      3  C   UNL     1      48.513  20.990  19.722  0.00  0.00    +0.013 C 
ATOM      4  C   UNL     1      49.299  19.987  18.857  0.00  0.00    +0.200 C 
ATOM      7  C   UNL     1      49.468  18.657  19.581  0.00  0.00    +0.053 C 
ATOM      8  C   UNL     1      48.160  18.159  20.133  0.00  0.00    -0.029 C 
ATOM      9  C   UNL     1      47.650  16.961  19.880  0.00  0.00    -0.088 C 
ATOM     10  C   UNL     1      48.369  16.059  18.964  0.00  0.00    +0.362 C 
ATOM     11  C   UNL     1      49.295  16.735  17.974  0.00  0.00    +0.118 C 
ATOM     14  C   UNL     1      50.075  15.690  17.186  0.00  0.00    +0.048 C 
ATOM     15  C   UNL     1      50.905  14.849  18.120  0.00  0.00    +0.150 C 
ATOM     18  C   UNL     1      51.892  15.776  18.836  0.00  0.00    +0.131 C 
ATOM     21  C   UNL     1      51.111  16.795  19.666  0.00  0.00    +0.050 C 
ATOM     22  O   UNL     1      48.228  14.854  19.001  0.00  0.00    -0.435 OA
ATOM     23  C   UNL     1      50.219  17.640  18.752  0.00  0.00    -0.029 C 
ATOM     24  C   UNL     1      51.115  18.377  17.755  0.00  0.00    +0.082 C 
ATOM     25  C   UNL     1      46.172  21.212  20.819  0.00  0.00    -0.000 C 
ATOM     40  C   UNL     1      45.341  20.190  21.640  0.00  0.00    +0.022 C 
ATOM     41  C   UNL     1      45.979  18.797  21.377  0.00  0.00    +0.016 C 
ATOM     42  C   UNL     1      47.414  19.152  20.983  0.00  0.00    +0.149 C 
ENDROOT
BRANCH   4   5
ATOM      5  O   UNL     1      50.590  20.528  18.565  0.00  0.00    -0.554 OA
ATOM      6  H   UNL     1      50.758  20.657  17.622  0.00  0.00    +0.372 HD
ENDBRANCH   4   5
BRANCH  11  12
ATOM     12  O   UNL     1      48.524  17.529  17.071  0.00  0.00    -0.526 OA
ATOM     13  H   UNL     1      48.891  17.580  16.179  0.00  0.00    +0.379 HD
ENDBRANCH  11  12
BRANCH  15  16
ATOM     16  O   UNL     1      51.627  13.877  17.362  0.00  0.00    -0.561 OA
ATOM     17  H   UNL     1      51.101  13.445  16.675  0.00  0.00    +0.379 HD
ENDBRANCH  15  16
BRANCH  18  19
ATOM     19  O   UNL     1      52.693  16.461  17.870  0.00  0.00    -0.539 OA
ATOM     20  H   UNL     1      53.335  15.896  17.419  0.00  0.00    +0.373 HD
ENDBRANCH  18  19
BRANCH  25  26
ATOM     26  C   UNL     1      45.266  21.979  19.854  0.00  0.00    +0.114 C 
ATOM     39  C   UNL     1      45.622  23.468  19.895  0.00  0.00    +0.058 C 
BRANCH  26  27
ATOM     27  O   UNL     1      45.453  21.482  18.528  0.00  0.00    -0.542 OA
ATOM     28  H   UNL     1      46.281  21.765  18.115  0.00  0.00    +0.369 HD
ENDBRANCH  26  27
BRANCH  26  29
ATOM     29  C   UNL     1      43.806  21.793  20.268  0.00  0.00    +0.179 C 
BRANCH  29  30
ATOM     30  O   UNL     1      43.199  23.072  20.466  0.00  0.00    -0.553 OA
ATOM     31  H   UNL     1      43.830  23.786  20.630  0.00  0.00    +0.373 HD
ENDBRANCH  29  30
BRANCH  29  32
ATOM     32  C   UNL     1      43.056  21.037  19.168  0.00  0.00    +0.010 C 
BRANCH  32  33
ATOM     33  C   UNL     1      41.765  21.783  18.827  0.00  0.00    -0.003 C 
BRANCH  33  34
ATOM     34  C   UNL     1      40.575  20.830  18.960  0.00  0.00    +0.126 C 
ATOM     37  C   UNL     1      40.739  19.668  17.977  0.00  0.00    +0.006 C 
ATOM     38  C   UNL     1      39.280  21.583  18.648  0.00  0.00    +0.053 C 
BRANCH  34  35
ATOM     35  O   UNL     1      40.521  20.320  20.294  0.00  0.00    -0.559 OA
ATOM     36  H   UNL     1      39.624  20.172  20.622  0.00  0.00    +0.374 HD
ENDBRANCH  34  35
ENDBRANCH  33  34
ENDBRANCH  32  33
ENDBRANCH  29  32
ENDBRANCH  26  29
ENDBRANCH  25  26
BRANCH  42  43
ATOM     43  O   UNL     1      48.198  19.516  22.121  0.00  0.00    -0.536 OA
ATOM     44  H   UNL     1      48.124  18.900  22.863  0.00  0.00    +0.378 HD
ENDBRANCH  42  43
TORSDOF 13
ENDMDL
MODEL 6
REMARK VINA RESULT:      -6.4      3.210      8.367
REMARK  Name = ZINC95485911
REMARK  18 active torsions:
REMARK  status: ('A' for Active; 'I' for Inactive)
REMARK    1  A    between atoms: C1_1  and  C2_2
REMARK    2  A    between atoms: C4_4  and  O9_42
REMARK    3  A    between atoms: C9_12  and  O4_23
REMARK    4  A    between atoms: C10_13  and  C15_22
REMARK    5  A    between atoms: C12_15  and  O3_21
REMARK    6  A    between atoms: C13_17  and  O2_20
REMARK    7  A    between atoms: C16_24  and  O8_41
REMARK    8  A    between atoms: C19_27  and  C20_29
REMARK    9  A    between atoms: C20_29  and  C21_30
REMARK   10  A    between atoms: C20_29  and  C22_31
REMARK   11  A    between atoms: C20_29  and  O7_40
REMARK   12  A    between atoms: C22_31  and  C23_33
REMARK   13  A    between atoms: C22_31  and  O6_39
REMARK   14  A    between atoms: C23_33  and  C24_34
REMARK   15  A    between atoms: C24_34  and  C25_35
REMARK   16  A    between atoms: C25_35  and  C26_36
REMARK   17  A    between atoms: C25_35  and  C27_37
REMARK   18  A    between atoms: C25_35  and  O5_38
REMARK                            x       y       z     vdW  Elec       q    Type
REMARK                         _______ _______ _______ _____ _____    ______ ____
ROOT
ATOM      1  C   UNL     1      46.255  16.195  17.256  0.00  0.00    +0.053 C 
ATOM      2  C   UNL     1      47.116  15.695  18.418  0.00  0.00    -0.034 C 
ATOM      3  C   UNL     1      46.216  15.298  19.561  0.00  0.00    +0.013 C 
ATOM      4  C   UNL     1      45.251  16.468  19.832  0.00  0.00    +0.200 C 
ATOM      7  C   UNL     1      46.018  17.744  20.154  0.00  0.00    +0.053 C 
ATOM      8  C   UNL     1      47.098  18.009  19.140  0.00  0.00    -0.029 C 
ATOM      9  C   UNL     1      47.223  19.142  18.462  0.00  0.00    -0.088 C 
ATOM     10  C   UNL     1      46.226  20.207  18.661  0.00  0.00    +0.362 C 
ATOM     11  C   UNL     1      44.873  19.749  19.166  0.00  0.00    +0.118 C 
ATOM     14  C   UNL     1      43.986  20.953  19.460  0.00  0.00    +0.048 C 
ATOM     15  C   UNL     1      44.622  21.821  20.514  0.00  0.00    +0.150 C 
ATOM     18  C   UNL     1      44.767  20.984  21.787  0.00  0.00    +0.131 C 
ATOM     21  C   UNL     1      45.696  19.802  21.508  0.00  0.00    +0.050 C 
ATOM     22  O   UNL     1      46.472  21.373  18.434  0.00  0.00    -0.435 OA
ATOM     23  C   UNL     1      45.102  18.920  20.406  0.00  0.00    -0.029 C 
ATOM     24  C   UNL     1      43.747  18.398  20.888  0.00  0.00    +0.082 C 
ATOM     25  C   UNL     1      48.102  14.665  17.896  0.00  0.00    -0.000 C 
ATOM     40  C   UNL     1      49.309  15.491  17.376  0.00  0.00    +0.022 C 
ATOM     41  C   UNL     1      49.002  16.976  17.719  0.00  0.00    +0.016 C 
ATOM     42  C   UNL     1      48.034  16.857  18.899  0.00  0.00    +0.149 C 
ENDROOT
BRANCH   4   5
ATOM      5  O   UNL     1      44.409  16.136  20.940  0.00  0.00    -0.554 OA
ATOM      6  H   UNL     1      44.875  16.081  21.785  0.00  0.00    +0.372 HD
ENDBRANCH   4   5
BRANCH  11  12
ATOM     12  O   UNL     1      44.249  18.933  18.174  0.00  0.00    -0.526 OA
ATOM     13  H   UNL     1      43.934  18.081  18.506  0.00  0.00    +0.379 HD
ENDBRANCH  11  12
BRANCH  15  16
ATOM     16  O   UNL     1      43.776  22.942  20.772  0.00  0.00    -0.561 OA
ATOM     17  H   UNL     1      42.974  22.724  21.267  0.00  0.00    +0.379 HD
ENDBRANCH  15  16
BRANCH  18  19
ATOM     19  O   UNL     1      43.484  20.498  22.190  0.00  0.00    -0.539 OA
ATOM     20  H   UNL     1      42.756  21.105  22.001  0.00  0.00    +0.373 HD
ENDBRANCH  18  19
BRANCH  25  26
ATOM     26  C   UNL     1      47.478  13.861  16.753  0.00  0.00    +0.114 C 
ATOM     39  C   UNL     1      46.193  13.190  17.246  0.00  0.00    +0.058 C 
BRANCH  26  27
ATOM     27  O   UNL     1      47.170  14.737  15.668  0.00  0.00    -0.542 OA
ATOM     28  H   UNL     1      47.444  15.654  15.812  0.00  0.00    +0.369 HD
ENDBRANCH  26  27
BRANCH  26  29
ATOM     29  C   UNL     1      48.464  12.791  16.284  0.00  0.00    +0.179 C 
BRANCH  29  30
ATOM     30  O   UNL     1      47.928  11.495  16.557  0.00  0.00    -0.553 OA
ATOM     31  H   UNL     1      47.030  11.362  16.222  0.00  0.00    +0.373 HD
ENDBRANCH  29  30
BRANCH  29  32
ATOM     32  C   UNL     1      48.698  12.940  14.778  0.00  0.00    +0.010 C 
BRANCH  32  33
ATOM     33  C   UNL     1      49.623  11.821  14.294  0.00  0.00    -0.003 C 
BRANCH  33  34
ATOM     34  C   UNL     1      50.736  12.418  13.431  0.00  0.00    +0.126 C 
ATOM     37  C   UNL     1      51.587  13.367  14.279  0.00  0.00    +0.006 C 
ATOM     38  C   UNL     1      50.119  13.192  12.264  0.00  0.00    +0.053 C 
BRANCH  34  35
ATOM     35  O   UNL     1      51.560  11.367  12.922  0.00  0.00    -0.559 OA
ATOM     36  H   UNL     1      51.077  10.558  12.708  0.00  0.00    +0.374 HD
ENDBRANCH  34  35
ENDBRANCH  33  34
ENDBRANCH  32  33
ENDBRANCH  29  32
ENDBRANCH  26  29
ENDBRANCH  25  26
BRANCH  42  43
ATOM     43  O   UNL     1      48.717  16.512  20.107  0.00  0.00    -0.536 OA
ATOM     44  H   UNL     1      48.812  15.559  20.246  0.00  0.00    +0.378 HD
ENDBRANCH  42  43
TORSDOF 13
ENDMDL
MODEL 7
REMARK VINA RESULT:      -6.3      2.103      3.925
REMARK  Name = ZINC95485911
REMARK  18 active torsions:
REMARK  status: ('A' for Active; 'I' for Inactive)
REMARK    1  A    between atoms: C1_1  and  C2_2
REMARK    2  A    between atoms: C4_4  and  O9_42
REMARK    3  A    between atoms: C9_12  and  O4_23
REMARK    4  A    between atoms: C10_13  and  C15_22
REMARK    5  A    between atoms: C12_15  and  O3_21
REMARK    6  A    between atoms: C13_17  and  O2_20
REMARK    7  A    between atoms: C16_24  and  O8_41
REMARK    8  A    between atoms: C19_27  and  C20_29
REMARK    9  A    between atoms: C20_29  and  C21_30
REMARK   10  A    between atoms: C20_29  and  C22_31
REMARK   11  A    between atoms: C20_29  and  O7_40
REMARK   12  A    between atoms: C22_31  and  C23_33
REMARK   13  A    between atoms: C22_31  and  O6_39
REMARK   14  A    between atoms: C23_33  and  C24_34
REMARK   15  A    between atoms: C24_34  and  C25_35
REMARK   16  A    between atoms: C25_35  and  C26_36
REMARK   17  A    between atoms: C25_35  and  C27_37
REMARK   18  A    between atoms: C25_35  and  O5_38
REMARK                            x       y       z     vdW  Elec       q    Type
REMARK                         _______ _______ _______ _____ _____    ______ ____
ROOT
ATOM      1  C   UNL     1      45.939  19.393  18.933  0.00  0.00    +0.053 C 
ATOM      2  C   UNL     1      46.853  19.404  20.160  0.00  0.00    -0.034 C 
ATOM      3  C   UNL     1      48.286  19.517  19.706  0.00  0.00    +0.013 C 
ATOM      4  C   UNL     1      48.530  18.434  18.638  0.00  0.00    +0.200 C 
ATOM      7  C   UNL     1      48.236  17.046  19.193  0.00  0.00    +0.053 C 
ATOM      8  C   UNL     1      46.898  16.997  19.879  0.00  0.00    -0.029 C 
ATOM      9  C   UNL     1      45.939  16.129  19.584  0.00  0.00    -0.088 C 
ATOM     10  C   UNL     1      46.156  15.171  18.487  0.00  0.00    +0.362 C 
ATOM     11  C   UNL     1      47.171  15.590  17.444  0.00  0.00    +0.118 C 
ATOM     14  C   UNL     1      47.402  14.460  16.450  0.00  0.00    +0.048 C 
ATOM     15  C   UNL     1      47.924  13.240  17.162  0.00  0.00    +0.150 C 
ATOM     18  C   UNL     1      49.258  13.612  17.815  0.00  0.00    +0.131 C 
ATOM     21  C   UNL     1      49.022  14.714  18.848  0.00  0.00    +0.050 C 
ATOM     22  O   UNL     1      45.560  14.116  18.424  0.00  0.00    -0.435 OA
ATOM     23  C   UNL     1      48.446  15.957  18.164  0.00  0.00    -0.029 C 
ATOM     24  C   UNL     1      49.458  16.445  17.126  0.00  0.00    +0.082 C 
ATOM     25  C   UNL     1      46.336  20.433  21.152  0.00  0.00    -0.000 C 
ATOM     40  C   UNL     1      45.256  19.687  21.979  0.00  0.00    +0.022 C 
ATOM     41  C   UNL     1      45.271  18.212  21.487  0.00  0.00    +0.016 C 
ATOM     42  C   UNL     1      46.685  18.058  20.924  0.00  0.00    +0.149 C 
ENDROOT
BRANCH   4   5
ATOM      5  O   UNL     1      49.895  18.489  18.215  0.00  0.00    -0.554 OA
ATOM      6  H   UNL     1      50.172  19.357  17.894  0.00  0.00    +0.372 HD
ENDBRANCH   4   5
BRANCH  11  12
ATOM     12  O   UNL     1      46.688  16.741  16.749  0.00  0.00    -0.526 OA
ATOM     13  H   UNL     1      47.380  17.265  16.325  0.00  0.00    +0.379 HD
ENDBRANCH  11  12
BRANCH  15  16
ATOM     16  O   UNL     1      48.132  12.194  16.212  0.00  0.00    -0.561 OA
ATOM     17  H   UNL     1      47.856  12.419  15.313  0.00  0.00    +0.379 HD
ENDBRANCH  15  16
BRANCH  18  19
ATOM     19  O   UNL     1      50.166  14.083  16.815  0.00  0.00    -0.539 OA
ATOM     20  H   UNL     1      50.217  15.047  16.753  0.00  0.00    +0.373 HD
ENDBRANCH  18  19
BRANCH  25  26
ATOM     26  C   UNL     1      45.712  21.619  20.412  0.00  0.00    +0.114 C 
ATOM     39  C   UNL     1      46.354  22.919  20.902  0.00  0.00    +0.058 C 
BRANCH  26  27
ATOM     27  O   UNL     1      45.939  21.476  19.008  0.00  0.00    -0.542 OA
ATOM     28  H   UNL     1      46.871  21.520  18.754  0.00  0.00    +0.369 HD
ENDBRANCH  26  27
BRANCH  26  29
ATOM     29  C   UNL     1      44.208  21.657  20.686  0.00  0.00    +0.179 C 
BRANCH  29  30
ATOM     30  O   UNL     1      43.878  22.868  21.368  0.00  0.00    -0.553 OA
ATOM     31  H   UNL     1      44.497  23.104  22.073  0.00  0.00    +0.373 HD
ENDBRANCH  29  30
BRANCH  29  32
ATOM     32  C   UNL     1      43.447  21.594  19.360  0.00  0.00    +0.010 C 
BRANCH  32  33
ATOM     33  C   UNL     1      42.616  20.310  19.311  0.00  0.00    -0.003 C 
BRANCH  33  34
ATOM     34  C   UNL     1      41.152  20.661  19.035  0.00  0.00    +0.126 C 
ATOM     37  C   UNL     1      40.596  19.722  17.961  0.00  0.00    +0.006 C 
ATOM     38  C   UNL     1      41.057  22.107  18.546  0.00  0.00    +0.053 C 
BRANCH  34  35
ATOM     35  O   UNL     1      40.392  20.513  20.236  0.00  0.00    -0.559 OA
ATOM     36  H   UNL     1      40.929  20.350  21.023  0.00  0.00    +0.374 HD
ENDBRANCH  34  35
ENDBRANCH  33  34
ENDBRANCH  32  33
ENDBRANCH  29  32
ENDBRANCH  26  29
ENDBRANCH  25  26
BRANCH  42  43
ATOM     43  O   UNL     1      47.656  17.929  21.965  0.00  0.00    -0.536 OA
ATOM     44  H   UNL     1      47.403  18.360  22.793  0.00  0.00    +0.378 HD
ENDBRANCH  42  43
TORSDOF 13
ENDMDL
MODEL 8
REMARK VINA RESULT:      -6.3      1.615      8.776
REMARK  Name = ZINC95485911
REMARK  18 active torsions:
REMARK  status: ('A' for Active; 'I' for Inactive)
REMARK    1  A    between atoms: C1_1  and  C2_2
REMARK    2  A    between atoms: C4_4  and  O9_42
REMARK    3  A    between atoms: C9_12  and  O4_23
REMARK    4  A    between atoms: C10_13  and  C15_22
REMARK    5  A    between atoms: C12_15  and  O3_21
REMARK    6  A    between atoms: C13_17  and  O2_20
REMARK    7  A    between atoms: C16_24  and  O8_41
REMARK    8  A    between atoms: C19_27  and  C20_29
REMARK    9  A    between atoms: C20_29  and  C21_30
REMARK   10  A    between atoms: C20_29  and  C22_31
REMARK   11  A    between atoms: C20_29  and  O7_40
REMARK   12  A    between atoms: C22_31  and  C23_33
REMARK   13  A    between atoms: C22_31  and  O6_39
REMARK   14  A    between atoms: C23_33  and  C24_34
REMARK   15  A    between atoms: C24_34  and  C25_35
REMARK   16  A    between atoms: C25_35  and  C26_36
REMARK   17  A    between atoms: C25_35  and  C27_37
REMARK   18  A    between atoms: C25_35  and  O5_38
REMARK                            x       y       z     vdW  Elec       q    Type
REMARK                         _______ _______ _______ _____ _____    ______ ____
ROOT
ATOM      1  C   UNL     1      48.080  19.110  20.242  0.00  0.00    +0.053 C 
ATOM      2  C   UNL     1      47.937  18.981  18.724  0.00  0.00    -0.034 C 
ATOM      3  C   UNL     1      47.377  20.268  18.171  0.00  0.00    +0.013 C 
ATOM      4  C   UNL     1      46.118  20.624  18.985  0.00  0.00    +0.200 C 
ATOM      7  C   UNL     1      45.090  19.502  18.916  0.00  0.00    +0.053 C 
ATOM      8  C   UNL     1      45.710  18.165  19.222  0.00  0.00    -0.029 C 
ATOM      9  C   UNL     1      45.267  17.334  20.157  0.00  0.00    -0.088 C 
ATOM     10  C   UNL     1      44.127  17.742  20.993  0.00  0.00    +0.362 C 
ATOM     11  C   UNL     1      43.907  19.236  21.116  0.00  0.00    +0.118 C 
ATOM     14  C   UNL     1      42.624  19.518  21.887  0.00  0.00    +0.048 C 
ATOM     15  C   UNL     1      41.444  18.919  21.168  0.00  0.00    +0.150 C 
ATOM     18  C   UNL     1      41.353  19.575  19.788  0.00  0.00    +0.131 C 
ATOM     21  C   UNL     1      42.619  19.253  18.994  0.00  0.00    +0.050 C 
ATOM     22  O   UNL     1      43.410  16.935  21.548  0.00  0.00    -0.435 OA
ATOM     23  C   UNL     1      43.847  19.808  19.721  0.00  0.00    -0.029 C 
ATOM     24  C   UNL     1      43.692  21.326  19.834  0.00  0.00    +0.082 C 
ATOM     25  C   UNL     1      49.244  18.466  18.146  0.00  0.00    -0.000 C 
ATOM     40  C   UNL     1      49.158  16.921  18.272  0.00  0.00    +0.022 C 
ATOM     41  C   UNL     1      47.742  16.607  18.832  0.00  0.00    +0.016 C 
ATOM     42  C   UNL     1      46.931  17.835  18.410  0.00  0.00    +0.149 C 
ENDROOT
BRANCH   4   5
ATOM      5  O   UNL     1      45.540  21.821  18.457  0.00  0.00    -0.554 OA
ATOM      6  H   UNL     1      46.188  22.466  18.147  0.00  0.00    +0.372 HD
ENDBRANCH   4   5
BRANCH  11  12
ATOM     12  O   UNL     1      45.013  19.821  21.807  0.00  0.00    -0.526 OA
ATOM     13  H   UNL     1      45.560  19.184  22.285  0.00  0.00    +0.379 HD
ENDBRANCH  11  12
BRANCH  15  16
ATOM     16  O   UNL     1      40.254  19.194  21.909  0.00  0.00    -0.561 OA
ATOM     17  H   UNL     1      39.498  18.646  21.656  0.00  0.00    +0.379 HD
ENDBRANCH  15  16
BRANCH  18  19
ATOM     19  O   UNL     1      41.231  20.991  19.937  0.00  0.00    -0.539 OA
ATOM     20  H   UNL     1      40.872  21.440  19.159  0.00  0.00    +0.373 HD
ENDBRANCH  18  19
BRANCH  25  26
ATOM     26  C   UNL     1      50.429  18.999  18.953  0.00  0.00    +0.114 C 
ATOM     39  C   UNL     1      50.754  20.425  18.501  0.00  0.00    +0.058 C 
BRANCH  26  27
ATOM     27  O   UNL     1      50.095  19.005  20.342  0.00  0.00    -0.542 OA
ATOM     28  H   UNL     1      50.378  19.802  20.811  0.00  0.00    +0.369 HD
ENDBRANCH  26  27
BRANCH  26  29
ATOM     29  C   UNL     1      51.647  18.102  18.724  0.00  0.00    +0.179 C 
BRANCH  29  30
ATOM     30  O   UNL     1      52.607  18.795  17.925  0.00  0.00    -0.553 OA
ATOM     31  H   UNL     1      53.355  19.147  18.426  0.00  0.00    +0.373 HD
ENDBRANCH  29  30
BRANCH  29  32
ATOM     32  C   UNL     1      52.273  17.738  20.073  0.00  0.00    +0.010 C 
BRANCH  32  33
ATOM     33  C   UNL     1      52.353  16.216  20.203  0.00  0.00    -0.003 C 
BRANCH  33  34
ATOM     34  C   UNL     1      53.811  15.770  20.070  0.00  0.00    +0.126 C 
ATOM     37  C   UNL     1      53.864  14.254  19.863  0.00  0.00    +0.006 C 
ATOM     38  C   UNL     1      54.575  16.136  21.344  0.00  0.00    +0.053 C 
BRANCH  34  35
ATOM     35  O   UNL     1      54.410  16.424  18.949  0.00  0.00    -0.559 OA
ATOM     36  H   UNL     1      54.796  17.285  19.158  0.00  0.00    +0.374 HD
ENDBRANCH  34  35
ENDBRANCH  33  34
ENDBRANCH  32  33
ENDBRANCH  29  32
ENDBRANCH  26  29
ENDBRANCH  25  26
BRANCH  42  43
ATOM     43  O   UNL     1      46.606  17.797  17.019  0.00  0.00    -0.536 OA
ATOM     44  H   UNL     1      46.614  16.909  16.637  0.00  0.00    +0.378 HD
ENDBRANCH  42  43
TORSDOF 13
ENDMDL
MODEL 9
REMARK VINA RESULT:      -6.3      3.975      8.659
REMARK  Name = ZINC95485911
REMARK  18 active torsions:
REMARK  status: ('A' for Active; 'I' for Inactive)
REMARK    1  A    between atoms: C1_1  and  C2_2
REMARK    2  A    between atoms: C4_4  and  O9_42
REMARK    3  A    between atoms: C9_12  and  O4_23
REMARK    4  A    between atoms: C10_13  and  C15_22
REMARK    5  A    between atoms: C12_15  and  O3_21
REMARK    6  A    between atoms: C13_17  and  O2_20
REMARK    7  A    between atoms: C16_24  and  O8_41
REMARK    8  A    between atoms: C19_27  and  C20_29
REMARK    9  A    between atoms: C20_29  and  C21_30
REMARK   10  A    between atoms: C20_29  and  C22_31
REMARK   11  A    between atoms: C20_29  and  O7_40
REMARK   12  A    between atoms: C22_31  and  C23_33
REMARK   13  A    between atoms: C22_31  and  O6_39
REMARK   14  A    between atoms: C23_33  and  C24_34
REMARK   15  A    between atoms: C24_34  and  C25_35
REMARK   16  A    between atoms: C25_35  and  C26_36
REMARK   17  A    between atoms: C25_35  and  C27_37
REMARK   18  A    between atoms: C25_35  and  O5_38
REMARK                            x       y       z     vdW  Elec       q    Type
REMARK                         _______ _______ _______ _____ _____    ______ ____
ROOT
ATOM      1  C   UNL     1      47.307  14.946  16.430  0.00  0.00    +0.053 C 
ATOM      2  C   UNL     1      47.779  14.061  17.585  0.00  0.00    -0.034 C 
ATOM      3  C   UNL     1      46.604  13.747  18.477  0.00  0.00    +0.013 C 
ATOM      4  C   UNL     1      45.909  15.076  18.829  0.00  0.00    +0.200 C 
ATOM      7  C   UNL     1      46.878  16.034  19.510  0.00  0.00    +0.053 C 
ATOM      8  C   UNL     1      48.168  16.154  18.744  0.00  0.00    -0.029 C 
ATOM      9  C   UNL     1      48.687  17.302  18.332  0.00  0.00    -0.088 C 
ATOM     10  C   UNL     1      47.951  18.551  18.587  0.00  0.00    +0.362 C 
ATOM     11  C   UNL     1      46.456  18.401  18.782  0.00  0.00    +0.118 C 
ATOM     14  C   UNL     1      45.839  19.738  19.173  0.00  0.00    +0.048 C 
ATOM     15  C   UNL     1      46.443  20.230  20.463  0.00  0.00    +0.150 C 
ATOM     18  C   UNL     1      46.133  19.199  21.551  0.00  0.00    +0.131 C 
ATOM     21  C   UNL     1      46.792  17.869  21.184  0.00  0.00    +0.050 C 
ATOM     22  O   UNL     1      48.506  19.630  18.638  0.00  0.00    -0.435 OA
ATOM     23  C   UNL     1      46.235  17.359  19.851  0.00  0.00    -0.029 C 
ATOM     24  C   UNL     1      44.727  17.152  20.010  0.00  0.00    +0.082 C 
ATOM     25  C   UNL     1      48.577  12.897  17.021  0.00  0.00    -0.000 C 
ATOM     40  C   UNL     1      50.022  13.439  16.864  0.00  0.00    +0.022 C 
ATOM     41  C   UNL     1      50.014  14.881  17.447  0.00  0.00    +0.016 C 
ATOM     42  C   UNL     1      48.833  14.844  18.420  0.00  0.00    +0.149 C 
ENDROOT
BRANCH   4   5
ATOM      5  O   UNL     1      44.813  14.816  19.708  0.00  0.00    -0.554 OA
ATOM      6  H   UNL     1      44.350  15.611  20.006  0.00  0.00    +0.372 HD
ENDBRANCH   4   5
BRANCH  11  12
ATOM     12  O   UNL     1      45.864  17.945  17.565  0.00  0.00    -0.526 OA
ATOM     13  H   UNL     1      44.999  18.333  17.378  0.00  0.00    +0.379 HD
ENDBRANCH  11  12
BRANCH  15  16
ATOM     16  O   UNL     1      45.852  21.483  20.810  0.00  0.00    -0.561 OA
ATOM     17  H   UNL     1      45.744  21.618  21.762  0.00  0.00    +0.379 HD
ENDBRANCH  15  16
BRANCH  18  19
ATOM     19  O   UNL     1      44.718  19.018  21.651  0.00  0.00    -0.539 OA
ATOM     20  H   UNL     1      44.442  18.489  22.413  0.00  0.00    +0.373 HD
ENDBRANCH  18  19
BRANCH  25  26
ATOM     26  C   UNL     1      48.017  12.477  15.661  0.00  0.00    +0.114 C 
ATOM     39  C   UNL     1      46.829  11.533  15.869  0.00  0.00    +0.058 C 
BRANCH  26  27
ATOM     27  O   UNL     1      47.584  13.635  14.946  0.00  0.00    -0.542 OA
ATOM     28  H   UNL     1      46.696  13.556  14.571  0.00  0.00    +0.369 HD
ENDBRANCH  26  27
BRANCH  26  29
ATOM     29  C   UNL     1      49.105  11.759  14.861  0.00  0.00    +0.179 C 
BRANCH  29  30
ATOM     30  O   UNL     1      48.640  10.464  14.478  0.00  0.00    -0.553 OA
ATOM     31  H   UNL     1      47.757  10.249  14.809  0.00  0.00    +0.373 HD
ENDBRANCH  29  30
BRANCH  29  32
ATOM     32  C   UNL     1      49.436  12.574  13.608  0.00  0.00    +0.010 C 
BRANCH  32  33
ATOM     33  C   UNL     1      50.854  12.237  13.142  0.00  0.00    -0.003 C 
BRANCH  33  34
ATOM     34  C   UNL     1      51.092  12.839  11.756  0.00  0.00    +0.126 C 
ATOM     37  C   UNL     1      49.836  13.587  11.302  0.00  0.00    +0.006 C 
ATOM     38  C   UNL     1      51.406  11.720  10.760  0.00  0.00    +0.053 C 
BRANCH  34  35
ATOM     35  O   UNL     1      52.193  13.749  11.814  0.00  0.00    -0.559 OA
ATOM     36  H   UNL     1      52.020  14.601  11.393  0.00  0.00    +0.374 HD
ENDBRANCH  34  35
ENDBRANCH  33  34
ENDBRANCH  32  33
ENDBRANCH  29  32
ENDBRANCH  26  29
ENDBRANCH  25  26
BRANCH  42  43
ATOM     43  O   UNL     1      49.164  14.147  19.623  0.00  0.00    -0.536 OA
ATOM     44  H   UNL     1      50.093  13.883  19.681  0.00  0.00    +0.378 HD
ENDBRANCH  42  43
TORSDOF 13
ENDMDL
