MODEL 1
REMARK VINA RESULT:      -5.7      0.000      0.000
REMARK  Name = ZINC95486065
REMARK  6 active torsions:
REMARK  status: ('A' for Active; 'I' for Inactive)
REMARK    1  A    between atoms: C1_1  and  C2_2
REMARK    2  A    between atoms: C2_2  and  C19_25
REMARK    3  A    between atoms: C5_5  and  C18_24
REMARK    4  A    between atoms: C14_18  and  O2_23
REMARK    5  A    between atoms: C15_20  and  C16_21
REMARK    6  A    between atoms: C15_20  and  C17_22
REMARK                            x       y       z     vdW  Elec       q    Type
REMARK                         _______ _______ _______ _____ _____    ______ ____
ROOT
ATOM      1  C   UNL     1      52.003  21.221  19.408  0.00  0.00    +0.027 C 
ATOM      2  C   UNL     1      51.314  20.479  18.263  0.00  0.00    -0.027 C 
ATOM      5  C   UNL     1      51.460  18.972  18.453  0.00  0.00    +0.021 C 
ATOM      6  C   UNL     1      50.636  18.460  19.627  0.00  0.00    +0.014 C 
ATOM      7  C   UNL     1      49.151  18.822  19.449  0.00  0.00    -0.039 C 
ATOM      8  C   UNL     1      48.652  18.179  18.159  0.00  0.00    +0.023 C 
ATOM      9  C   UNL     1      49.058  20.346  19.373  0.00  0.00    -0.001 C 
ATOM     10  C   UNL     1      47.594  20.772  19.280  0.00  0.00    +0.009 C 
ATOM     11  C   UNL     1      46.863  20.349  20.550  0.00  0.00    +0.026 C 
ATOM     12  C   UNL     1      46.973  18.851  20.822  0.00  0.00    -0.006 C 
ATOM     13  C   UNL     1      45.810  18.067  20.260  0.00  0.00    -0.031 C 
ATOM     14  C   UNL     1      44.540  18.456  21.061  0.00  0.00    +0.032 C 
ATOM     15  C   UNL     1      45.519  18.385  18.793  0.00  0.00    +0.043 C 
ATOM     16  C   UNL     1      45.960  16.552  20.422  0.00  0.00    +0.153 C 
ATOM     19  C   UNL     1      47.368  16.138  20.077  0.00  0.00    +0.338 C 
ATOM     20  O   UNL     1      47.591  15.295  19.244  0.00  0.00    -0.442 OA
ATOM     21  C   UNL     1      48.491  16.816  20.825  0.00  0.00    +0.023 C 
ATOM     22  C   UNL     1      48.377  18.329  20.661  0.00  0.00    +0.015 C 
ATOM     23  C   UNL     1      49.843  20.884  18.185  0.00  0.00    +0.028 C 
ENDROOT
BRANCH   2   3
ATOM      3  C   UNL     1      51.989  20.869  16.965  0.00  0.00    -0.042 C 
ATOM      4  C   UNL     1      51.872  20.101  15.910  0.00  0.00    -0.002 C 
ENDBRANCH   2   3
BRANCH  16  17
ATOM     17  O   UNL     1      45.039  15.886  19.553  0.00  0.00    -0.543 OA
ATOM     18  H   UNL     1      45.262  14.962  19.378  0.00  0.00    +0.382 HD
ENDBRANCH  16  17
TORSDOF 2
ENDMDL
MODEL 2
REMARK VINA RESULT:      -5.5      1.368      3.126
REMARK  Name = ZINC95486065
REMARK  6 active torsions:
REMARK  status: ('A' for Active; 'I' for Inactive)
REMARK    1  A    between atoms: C1_1  and  C2_2
REMARK    2  A    between atoms: C2_2  and  C19_25
REMARK    3  A    between atoms: C5_5  and  C18_24
REMARK    4  A    between atoms: C14_18  and  O2_23
REMARK    5  A    between atoms: C15_20  and  C16_21
REMARK    6  A    between atoms: C15_20  and  C17_22
REMARK                            x       y       z     vdW  Elec       q    Type
REMARK                         _______ _______ _______ _____ _____    ______ ____
ROOT
ATOM      1  C   UNL     1      51.277  21.082  17.146  0.00  0.00    +0.027 C 
ATOM      2  C   UNL     1      51.286  20.475  18.550  0.00  0.00    -0.027 C 
ATOM      5  C   UNL     1      50.125  21.032  19.369  0.00  0.00    +0.021 C 
ATOM      6  C   UNL     1      48.778  20.521  18.874  0.00  0.00    +0.014 C 
ATOM      7  C   UNL     1      48.739  18.984  18.893  0.00  0.00    -0.039 C 
ATOM      8  C   UNL     1      48.965  18.516  20.327  0.00  0.00    +0.023 C 
ATOM      9  C   UNL     1      49.854  18.487  17.973  0.00  0.00    -0.001 C 
ATOM     10  C   UNL     1      49.812  16.962  17.883  0.00  0.00    +0.009 C 
ATOM     11  C   UNL     1      48.492  16.529  17.252  0.00  0.00    +0.026 C 
ATOM     12  C   UNL     1      47.276  17.059  18.006  0.00  0.00    -0.006 C 
ATOM     13  C   UNL     1      46.751  16.082  19.031  0.00  0.00    -0.031 C 
ATOM     14  C   UNL     1      46.164  14.863  18.273  0.00  0.00    +0.032 C 
ATOM     15  C   UNL     1      47.837  15.540  19.961  0.00  0.00    +0.043 C 
ATOM     16  C   UNL     1      45.603  16.642  19.877  0.00  0.00    +0.153 C 
ATOM     19  C   UNL     1      45.919  18.056  20.294  0.00  0.00    +0.338 C 
ATOM     20  O   UNL     1      45.910  18.387  21.454  0.00  0.00    -0.442 OA
ATOM     21  C   UNL     1      46.238  19.046  19.199  0.00  0.00    +0.023 C 
ATOM     22  C   UNL     1      47.395  18.520  18.354  0.00  0.00    +0.015 C 
ATOM     23  C   UNL     1      51.218  18.952  18.463  0.00  0.00    +0.028 C 
ENDROOT
BRANCH   2   3
ATOM      3  C   UNL     1      52.583  20.860  19.229  0.00  0.00    -0.042 C 
ATOM      4  C   UNL     1      52.587  21.782  20.159  0.00  0.00    -0.002 C 
ENDBRANCH   2   3
BRANCH  16  17
ATOM     17  O   UNL     1      45.427  15.827  21.039  0.00  0.00    -0.543 OA
ATOM     18  H   UNL     1      44.658  16.067  21.574  0.00  0.00    +0.382 HD
ENDBRANCH  16  17
TORSDOF 2
ENDMDL
MODEL 3
REMARK VINA RESULT:      -5.3      1.852      2.413
REMARK  Name = ZINC95486065
REMARK  6 active torsions:
REMARK  status: ('A' for Active; 'I' for Inactive)
REMARK    1  A    between atoms: C1_1  and  C2_2
REMARK    2  A    between atoms: C2_2  and  C19_25
REMARK    3  A    between atoms: C5_5  and  C18_24
REMARK    4  A    between atoms: C14_18  and  O2_23
REMARK    5  A    between atoms: C15_20  and  C16_21
REMARK    6  A    between atoms: C15_20  and  C17_22
REMARK                            x       y       z     vdW  Elec       q    Type
REMARK                         _______ _______ _______ _____ _____    ______ ____
ROOT
ATOM      1  C   UNL     1      52.029  20.144  19.704  0.00  0.00    +0.027 C 
ATOM      2  C   UNL     1      51.386  19.945  18.331  0.00  0.00    -0.027 C 
ATOM      5  C   UNL     1      51.868  18.635  17.712  0.00  0.00    +0.021 C 
ATOM      6  C   UNL     1      51.309  17.419  18.439  0.00  0.00    +0.014 C 
ATOM      7  C   UNL     1      49.771  17.454  18.455  0.00  0.00    -0.039 C 
ATOM      8  C   UNL     1      49.276  17.456  17.013  0.00  0.00    +0.023 C 
ATOM      9  C   UNL     1      49.351  18.732  19.181  0.00  0.00    -0.001 C 
ATOM     10  C   UNL     1      47.829  18.781  19.304  0.00  0.00    +0.009 C 
ATOM     11  C   UNL     1      47.352  17.611  20.160  0.00  0.00    +0.026 C 
ATOM     12  C   UNL     1      47.806  16.260  19.615  0.00  0.00    -0.006 C 
ATOM     13  C   UNL     1      46.779  15.618  18.712  0.00  0.00    -0.031 C 
ATOM     14  C   UNL     1      45.555  15.229  19.582  0.00  0.00    +0.032 C 
ATOM     15  C   UNL     1      46.263  16.555  17.621  0.00  0.00    +0.043 C 
ATOM     16  C   UNL     1      47.263  14.317  18.065  0.00  0.00    +0.153 C 
ATOM     19  C   UNL     1      48.679  14.486  17.574  0.00  0.00    +0.338 C 
ATOM     20  O   UNL     1      48.978  14.264  16.427  0.00  0.00    -0.442 OA
ATOM     21  C   UNL     1      49.711  14.937  18.580  0.00  0.00    +0.023 C 
ATOM     22  C   UNL     1      49.261  16.246  19.224  0.00  0.00    +0.015 C 
ATOM     23  C   UNL     1      49.865  19.968  18.456  0.00  0.00    +0.028 C 
ENDROOT
BRANCH   2   3
ATOM      3  C   UNL     1      51.812  21.087  17.433  0.00  0.00    -0.042 C 
ATOM      4  C   UNL     1      51.556  21.041  16.150  0.00  0.00    -0.002 C 
ENDBRANCH   2   3
BRANCH  16  17
ATOM     17  O   UNL     1      46.411  13.986  16.966  0.00  0.00    -0.543 OA
ATOM     18  H   UNL     1      46.765  13.297  16.387  0.00  0.00    +0.382 HD
ENDBRANCH  16  17
TORSDOF 2
ENDMDL
MODEL 4
REMARK VINA RESULT:      -5.3      3.165      5.449
REMARK  Name = ZINC95486065
REMARK  6 active torsions:
REMARK  status: ('A' for Active; 'I' for Inactive)
REMARK    1  A    between atoms: C1_1  and  C2_2
REMARK    2  A    between atoms: C2_2  and  C19_25
REMARK    3  A    between atoms: C5_5  and  C18_24
REMARK    4  A    between atoms: C14_18  and  O2_23
REMARK    5  A    between atoms: C15_20  and  C16_21
REMARK    6  A    between atoms: C15_20  and  C17_22
REMARK                            x       y       z     vdW  Elec       q    Type
REMARK                         _______ _______ _______ _____ _____    ______ ____
ROOT
ATOM      1  C   UNL     1      42.463  20.570  18.756  0.00  0.00    +0.027 C 
ATOM      2  C   UNL     1      43.736  20.785  19.576  0.00  0.00    -0.027 C 
ATOM      5  C   UNL     1      43.663  19.986  20.874  0.00  0.00    +0.021 C 
ATOM      6  C   UNL     1      43.763  18.486  20.630  0.00  0.00    +0.014 C 
ATOM      7  C   UNL     1      45.060  18.143  19.878  0.00  0.00    -0.039 C 
ATOM      8  C   UNL     1      46.242  18.598  20.727  0.00  0.00    +0.023 C 
ATOM      9  C   UNL     1      45.025  18.886  18.542  0.00  0.00    -0.001 C 
ATOM     10  C   UNL     1      46.252  18.517  17.710  0.00  0.00    +0.009 C 
ATOM     11  C   UNL     1      46.214  17.027  17.386  0.00  0.00    +0.026 C 
ATOM     12  C   UNL     1      46.126  16.154  18.635  0.00  0.00    -0.006 C 
ATOM     13  C   UNL     1      47.479  15.698  19.127  0.00  0.00    -0.031 C 
ATOM     14  C   UNL     1      48.062  14.715  18.078  0.00  0.00    +0.032 C 
ATOM     15  C   UNL     1      48.487  16.838  19.269  0.00  0.00    +0.043 C 
ATOM     16  C   UNL     1      47.419  14.918  20.444  0.00  0.00    +0.153 C 
ATOM     19  C   UNL     1      46.475  15.601  21.400  0.00  0.00    +0.338 C 
ATOM     20  O   UNL     1      46.827  15.932  22.505  0.00  0.00    -0.442 OA
ATOM     21  C   UNL     1      45.064  15.848  20.921  0.00  0.00    +0.023 C 
ATOM     22  C   UNL     1      45.096  16.645  19.620  0.00  0.00    +0.015 C 
ATOM     23  C   UNL     1      44.962  20.392  18.756  0.00  0.00    +0.028 C 
ENDROOT
BRANCH   2   3
ATOM      3  C   UNL     1      43.840  22.256  19.921  0.00  0.00    -0.042 C 
ATOM      4  C   UNL     1      45.012  22.794  20.146  0.00  0.00    -0.002 C 
ENDBRANCH   2   3
BRANCH  16  17
ATOM     17  O   UNL     1      48.726  14.857  21.022  0.00  0.00    -0.543 OA
ATOM     18  H   UNL     1      48.904  15.558  21.664  0.00  0.00    +0.382 HD
ENDBRANCH  16  17
TORSDOF 2
ENDMDL
MODEL 5
REMARK VINA RESULT:      -5.3      3.096      5.072
REMARK  Name = ZINC95486065
REMARK  6 active torsions:
REMARK  status: ('A' for Active; 'I' for Inactive)
REMARK    1  A    between atoms: C1_1  and  C2_2
REMARK    2  A    between atoms: C2_2  and  C19_25
REMARK    3  A    between atoms: C5_5  and  C18_24
REMARK    4  A    between atoms: C14_18  and  O2_23
REMARK    5  A    between atoms: C15_20  and  C16_21
REMARK    6  A    between atoms: C15_20  and  C17_22
REMARK                            x       y       z     vdW  Elec       q    Type
REMARK                         _______ _______ _______ _____ _____    ______ ____
ROOT
ATOM      1  C   UNL     1      47.859  14.913  20.057  0.00  0.00    +0.027 C 
ATOM      2  C   UNL     1      47.414  15.622  18.777  0.00  0.00    -0.027 C 
ATOM      5  C   UNL     1      45.891  15.661  18.703  0.00  0.00    +0.021 C 
ATOM      6  C   UNL     1      45.290  16.599  19.741  0.00  0.00    +0.014 C 
ATOM      7  C   UNL     1      45.856  18.021  19.582  0.00  0.00    -0.039 C 
ATOM      8  C   UNL     1      45.510  18.521  18.184  0.00  0.00    +0.023 C 
ATOM      9  C   UNL     1      47.370  17.933  19.774  0.00  0.00    -0.001 C 
ATOM     10  C   UNL     1      47.983  19.332  19.711  0.00  0.00    +0.009 C 
ATOM     11  C   UNL     1      47.440  20.173  20.863  0.00  0.00    +0.026 C 
ATOM     12  C   UNL     1      45.916  20.251  20.868  0.00  0.00    -0.006 C 
ATOM     13  C   UNL     1      45.389  21.464  20.140  0.00  0.00    -0.031 C 
ATOM     14  C   UNL     1      45.787  22.722  20.957  0.00  0.00    +0.032 C 
ATOM     15  C   UNL     1      45.987  21.639  18.744  0.00  0.00    +0.043 C 
ATOM     16  C   UNL     1      43.861  21.499  20.036  0.00  0.00    +0.153 C 
ATOM     19  C   UNL     1      43.344  20.131  19.670  0.00  0.00    +0.338 C 
ATOM     20  O   UNL     1      42.635  19.963  18.708  0.00  0.00    -0.442 OA
ATOM     21  C   UNL     1      43.740  18.979  20.561  0.00  0.00    +0.023 C 
ATOM     22  C   UNL     1      45.262  18.910  20.662  0.00  0.00    +0.015 C 
ATOM     23  C   UNL     1      48.004  17.030  18.726  0.00  0.00    +0.028 C 
ENDROOT
BRANCH   2   3
ATOM      3  C   UNL     1      47.935  14.839  17.591  0.00  0.00    -0.042 C 
ATOM      4  C   UNL     1      47.130  14.534  16.604  0.00  0.00    -0.002 C 
ENDBRANCH   2   3
BRANCH  16  17
ATOM     17  O   UNL     1      43.473  22.443  19.035  0.00  0.00    -0.543 OA
ATOM     18  H   UNL     1      42.567  22.768  19.131  0.00  0.00    +0.382 HD
ENDBRANCH  16  17
TORSDOF 2
ENDMDL
MODEL 6
REMARK VINA RESULT:      -5.2      2.435      3.817
REMARK  Name = ZINC95486065
REMARK  6 active torsions:
REMARK  status: ('A' for Active; 'I' for Inactive)
REMARK    1  A    between atoms: C1_1  and  C2_2
REMARK    2  A    between atoms: C2_2  and  C19_25
REMARK    3  A    between atoms: C5_5  and  C18_24
REMARK    4  A    between atoms: C14_18  and  O2_23
REMARK    5  A    between atoms: C15_20  and  C16_21
REMARK    6  A    between atoms: C15_20  and  C17_22
REMARK                            x       y       z     vdW  Elec       q    Type
REMARK                         _______ _______ _______ _____ _____    ______ ____
ROOT
ATOM      1  C   UNL     1      50.795  18.882  17.011  0.00  0.00    +0.027 C 
ATOM      2  C   UNL     1      50.733  19.143  18.516  0.00  0.00    -0.027 C 
ATOM      5  C   UNL     1      50.364  20.600  18.779  0.00  0.00    +0.021 C 
ATOM      6  C   UNL     1      48.919  20.902  18.405  0.00  0.00    +0.014 C 
ATOM      7  C   UNL     1      47.955  19.974  19.164  0.00  0.00    -0.039 C 
ATOM      8  C   UNL     1      48.149  20.199  20.659  0.00  0.00    +0.023 C 
ATOM      9  C   UNL     1      48.304  18.537  18.776  0.00  0.00    -0.001 C 
ATOM     10  C   UNL     1      47.322  17.569  19.434  0.00  0.00    +0.009 C 
ATOM     11  C   UNL     1      45.916  17.838  18.908  0.00  0.00    +0.026 C 
ATOM     12  C   UNL     1      45.474  19.284  19.121  0.00  0.00    -0.006 C 
ATOM     13  C   UNL     1      44.698  19.476  20.402  0.00  0.00    -0.031 C 
ATOM     14  C   UNL     1      43.343  18.734  20.255  0.00  0.00    +0.032 C 
ATOM     15  C   UNL     1      45.394  18.881  21.626  0.00  0.00    +0.043 C 
ATOM     16  C   UNL     1      44.346  20.938  20.689  0.00  0.00    +0.153 C 
ATOM     19  C   UNL     1      45.539  21.816  20.407  0.00  0.00    +0.338 C 
ATOM     20  O   UNL     1      45.983  22.563  21.243  0.00  0.00    -0.442 OA
ATOM     21  C   UNL     1      46.151  21.729  19.029  0.00  0.00    +0.023 C 
ATOM     22  C   UNL     1      46.532  20.282  18.728  0.00  0.00    +0.015 C 
ATOM     23  C   UNL     1      49.733  18.194  19.172  0.00  0.00    +0.028 C 
ENDROOT
BRANCH   2   3
ATOM      3  C   UNL     1      52.103  18.879  19.104  0.00  0.00    -0.042 C 
ATOM      4  C   UNL     1      52.213  18.421  20.326  0.00  0.00    -0.002 C 
ENDBRANCH   2   3
BRANCH  16  17
ATOM     17  O   UNL     1      43.964  21.076  22.060  0.00  0.00    -0.543 OA
ATOM     18  H   UNL     1      43.678  21.967  22.301  0.00  0.00    +0.382 HD
ENDBRANCH  16  17
TORSDOF 2
ENDMDL
MODEL 7
REMARK VINA RESULT:      -5.2     20.632     22.288
REMARK  Name = ZINC95486065
REMARK  6 active torsions:
REMARK  status: ('A' for Active; 'I' for Inactive)
REMARK    1  A    between atoms: C1_1  and  C2_2
REMARK    2  A    between atoms: C2_2  and  C19_25
REMARK    3  A    between atoms: C5_5  and  C18_24
REMARK    4  A    between atoms: C14_18  and  O2_23
REMARK    5  A    between atoms: C15_20  and  C16_21
REMARK    6  A    between atoms: C15_20  and  C17_22
REMARK                            x       y       z     vdW  Elec       q    Type
REMARK                         _______ _______ _______ _____ _____    ______ ____
ROOT
ATOM      1  C   UNL     1      58.189  34.911   4.353  0.00  0.00    +0.027 C 
ATOM      2  C   UNL     1      57.573  33.511   4.360  0.00  0.00    -0.027 C 
ATOM      5  C   UNL     1      56.740  33.312   5.623  0.00  0.00    +0.021 C 
ATOM      6  C   UNL     1      55.470  34.154   5.610  0.00  0.00    +0.014 C 
ATOM      7  C   UNL     1      54.620  33.837   4.369  0.00  0.00    -0.039 C 
ATOM      8  C   UNL     1      54.248  32.359   4.407  0.00  0.00    +0.023 C 
ATOM      9  C   UNL     1      55.469  34.158   3.139  0.00  0.00    -0.001 C 
ATOM     10  C   UNL     1      54.646  33.943   1.870  0.00  0.00    +0.009 C 
ATOM     11  C   UNL     1      53.470  34.915   1.859  0.00  0.00    +0.026 C 
ATOM     12  C   UNL     1      52.591  34.790   3.100  0.00  0.00    -0.006 C 
ATOM     13  C   UNL     1      51.422  33.855   2.898  0.00  0.00    -0.031 C 
ATOM     14  C   UNL     1      50.457  34.511   1.875  0.00  0.00    +0.032 C 
ATOM     15  C   UNL     1      51.824  32.500   2.316  0.00  0.00    +0.043 C 
ATOM     16  C   UNL     1      50.595  33.628   4.167  0.00  0.00    +0.153 C 
ATOM     19  C   UNL     1      51.513  33.422   5.345  0.00  0.00    +0.338 C 
ATOM     20  O   UNL     1      51.431  32.442   6.044  0.00  0.00    -0.442 OA
ATOM     21  C   UNL     1      52.535  34.499   5.622  0.00  0.00    +0.023 C 
ATOM     22  C   UNL     1      53.388  34.728   4.377  0.00  0.00    +0.015 C 
ATOM     23  C   UNL     1      56.728  33.304   3.105  0.00  0.00    +0.028 C 
ENDROOT
BRANCH   2   3
ATOM      3  C   UNL     1      58.695  32.494   4.358  0.00  0.00    -0.042 C 
ATOM      4  C   UNL     1      58.429  31.227   4.158  0.00  0.00    -0.002 C 
ENDBRANCH   2   3
BRANCH  16  17
ATOM     17  O   UNL     1      49.768  32.474   3.997  0.00  0.00    -0.543 OA
ATOM     18  H   UNL     1      50.245  31.635   4.059  0.00  0.00    +0.382 HD
ENDBRANCH  16  17
TORSDOF 2
ENDMDL
MODEL 8
REMARK VINA RESULT:      -5.1      2.016      3.234
REMARK  Name = ZINC95486065
REMARK  6 active torsions:
REMARK  status: ('A' for Active; 'I' for Inactive)
REMARK    1  A    between atoms: C1_1  and  C2_2
REMARK    2  A    between atoms: C2_2  and  C19_25
REMARK    3  A    between atoms: C5_5  and  C18_24
REMARK    4  A    between atoms: C14_18  and  O2_23
REMARK    5  A    between atoms: C15_20  and  C16_21
REMARK    6  A    between atoms: C15_20  and  C17_22
REMARK                            x       y       z     vdW  Elec       q    Type
REMARK                         _______ _______ _______ _____ _____    ______ ____
ROOT
ATOM      1  C   UNL     1      50.924  17.510  19.415  0.00  0.00    +0.027 C 
ATOM      2  C   UNL     1      49.905  17.866  18.331  0.00  0.00    -0.027 C 
ATOM      5  C   UNL     1      48.660  16.996  18.478  0.00  0.00    +0.021 C 
ATOM      6  C   UNL     1      47.853  17.356  19.719  0.00  0.00    +0.014 C 
ATOM      7  C   UNL     1      47.453  18.841  19.697  0.00  0.00    -0.039 C 
ATOM      8  C   UNL     1      46.608  19.092  18.452  0.00  0.00    +0.023 C 
ATOM      9  C   UNL     1      48.743  19.661  19.659  0.00  0.00    -0.001 C 
ATOM     10  C   UNL     1      48.412  21.151  19.721  0.00  0.00    +0.009 C 
ATOM     11  C   UNL     1      47.730  21.463  21.050  0.00  0.00    +0.026 C 
ATOM     12  C   UNL     1      46.478  20.622  21.281  0.00  0.00    -0.006 C 
ATOM     13  C   UNL     1      45.216  21.313  20.824  0.00  0.00    -0.031 C 
ATOM     14  C   UNL     1      44.974  22.530  21.756  0.00  0.00    +0.032 C 
ATOM     15  C   UNL     1      45.308  21.862  19.401  0.00  0.00    +0.043 C 
ATOM     16  C   UNL     1      43.964  20.439  20.943  0.00  0.00    +0.153 C 
ATOM     19  C   UNL     1      44.265  19.046  20.452  0.00  0.00    +0.338 C 
ATOM     20  O   UNL     1      43.605  18.527  19.585  0.00  0.00    -0.442 OA
ATOM     21  C   UNL     1      45.422  18.320  21.096  0.00  0.00    +0.023 C 
ATOM     22  C   UNL     1      46.689  19.162  20.971  0.00  0.00    +0.015 C 
ATOM     23  C   UNL     1      49.553  19.349  18.408  0.00  0.00    +0.028 C 
ENDROOT
BRANCH   2   3
ATOM      3  C   UNL     1      50.529  17.590  16.979  0.00  0.00    -0.042 C 
ATOM      4  C   UNL     1      51.212  18.527  16.370  0.00  0.00    -0.002 C 
ENDBRANCH   2   3
BRANCH  16  17
ATOM     17  O   UNL     1      42.911  21.007  20.159  0.00  0.00    -0.543 OA
ATOM     18  H   UNL     1      42.318  21.587  20.657  0.00  0.00    +0.382 HD
ENDBRANCH  16  17
TORSDOF 2
ENDMDL
MODEL 9
REMARK VINA RESULT:      -5.1      3.017      4.902
REMARK  Name = ZINC95486065
REMARK  6 active torsions:
REMARK  status: ('A' for Active; 'I' for Inactive)
REMARK    1  A    between atoms: C1_1  and  C2_2
REMARK    2  A    between atoms: C2_2  and  C19_25
REMARK    3  A    between atoms: C5_5  and  C18_24
REMARK    4  A    between atoms: C14_18  and  O2_23
REMARK    5  A    between atoms: C15_20  and  C16_21
REMARK    6  A    between atoms: C15_20  and  C17_22
REMARK                            x       y       z     vdW  Elec       q    Type
REMARK                         _______ _______ _______ _____ _____    ______ ____
ROOT
ATOM      1  C   UNL     1      44.735  23.003  19.527  0.00  0.00    +0.027 C 
ATOM      2  C   UNL     1      45.593  22.332  20.600  0.00  0.00    -0.027 C 
ATOM      5  C   UNL     1      44.706  21.554  21.567  0.00  0.00    +0.021 C 
ATOM      6  C   UNL     1      44.093  20.320  20.917  0.00  0.00    +0.014 C 
ATOM      7  C   UNL     1      45.190  19.399  20.358  0.00  0.00    -0.039 C 
ATOM      8  C   UNL     1      46.090  18.970  21.511  0.00  0.00    +0.023 C 
ATOM      9  C   UNL     1      45.975  20.200  19.319  0.00  0.00    -0.001 C 
ATOM     10  C   UNL     1      47.029  19.308  18.664  0.00  0.00    +0.009 C 
ATOM     11  C   UNL     1      46.337  18.173  17.915  0.00  0.00    +0.026 C 
ATOM     12  C   UNL     1      45.416  17.351  18.812  0.00  0.00    -0.006 C 
ATOM     13  C   UNL     1      46.099  16.137  19.396  0.00  0.00    -0.031 C 
ATOM     14  C   UNL     1      46.395  15.151  18.235  0.00  0.00    +0.032 C 
ATOM     15  C   UNL     1      47.440  16.456  20.055  0.00  0.00    +0.043 C 
ATOM     16  C   UNL     1      45.226  15.363  20.388  0.00  0.00    +0.153 C 
ATOM     19  C   UNL     1      44.518  16.328  21.306  0.00  0.00    +0.338 C 
ATOM     20  O   UNL     1      44.612  16.241  22.505  0.00  0.00    -0.442 OA
ATOM     21  C   UNL     1      43.678  17.405  20.662  0.00  0.00    +0.023 C 
ATOM     22  C   UNL     1      44.532  18.206  19.683  0.00  0.00    +0.015 C 
ATOM     23  C   UNL     1      46.630  21.421  19.949  0.00  0.00    +0.028 C 
ENDROOT
BRANCH   2   3
ATOM      3  C   UNL     1      46.320  23.411  21.375  0.00  0.00    -0.042 C 
ATOM      4  C   UNL     1      47.340  23.096  22.134  0.00  0.00    -0.002 C 
ENDBRANCH   2   3
BRANCH  16  17
ATOM     17  O   UNL     1      46.047  14.483  21.160  0.00  0.00    -0.543 OA
ATOM     18  H   UNL     1      46.308  13.678  20.693  0.00  0.00    +0.382 HD
ENDBRANCH  16  17
TORSDOF 2
ENDMDL
