MODEL 1
REMARK VINA RESULT:      -5.8      0.000      0.000
REMARK  Name = ZINC95486370
REMARK  10 active torsions:
REMARK  status: ('A' for Active; 'I' for Inactive)
REMARK    1  A    between atoms: C1_1  and  C2_2
REMARK    2  A    between atoms: C5_5  and  O5_30
REMARK    3  A    between atoms: C6_7  and  C20_28
REMARK    4  A    between atoms: C6_7  and  C21_29
REMARK    5  A    between atoms: C11_13  and  C12_15
REMARK    6  A    between atoms: C12_15  and  C13_16
REMARK    7  A    between atoms: C14_17  and  C15_18
REMARK    8  A    between atoms: C14_17  and  C17_22
REMARK    9  A    between atoms: C17_22  and  O3_24
REMARK   10  A    between atoms: O3_24  and  C18_25
REMARK                            x       y       z     vdW  Elec       q    Type
REMARK                         _______ _______ _______ _____ _____    ______ ____
ROOT
ATOM      1  C   UNL     1      49.737  21.000  18.685  0.00  0.00    +0.027 C 
ATOM      2  C   UNL     1      49.726  19.466  18.602  0.00  0.00    -0.033 C 
ATOM      3  C   UNL     1      50.622  18.898  19.700  0.00  0.00    +0.026 C 
ATOM      4  C   UNL     1      52.061  19.366  19.481  0.00  0.00    -0.016 C 
ATOM      5  C   UNL     1      52.581  18.901  18.131  0.00  0.00    +0.165 C 
ATOM      8  C   UNL     1      51.671  19.282  16.971  0.00  0.00    -0.043 C 
ATOM      9  C   UNL     1      52.154  18.483  15.737  0.00  0.00    +0.027 C 
ATOM     10  C   UNL     1      51.887  20.756  16.601  0.00  0.00    +0.031 C 
ATOM     11  C   UNL     1      48.262  19.068  18.845  0.00  0.00    +0.035 C 
ATOM     22  C   UNL     1      48.110  17.560  18.717  0.00  0.00    +0.020 C 
ATOM     23  C   UNL     1      48.329  16.659  19.924  0.00  0.00    +0.184 C 
ATOM     24  O   UNL     1      47.029  16.915  19.382  0.00  0.00    -0.337 OA
ATOM     25  C   UNL     1      48.536  17.043  17.339  0.00  0.00    +0.044 C 
ATOM     26  C   UNL     1      49.994  17.454  17.110  0.00  0.00    +0.039 C 
ATOM     27  C   UNL     1      50.202  18.966  17.241  0.00  0.00    +0.022 C 
ENDROOT
BRANCH   5   6
ATOM      6  O   UNL     1      52.786  17.485  18.148  0.00  0.00    -0.561 OA
ATOM      7  H   UNL     1      52.564  17.045  17.316  0.00  0.00    +0.374 HD
ENDBRANCH   5   6
BRANCH  11  12
ATOM     12  C   UNL     1      47.778  19.567  20.200  0.00  0.00    +0.068 C 
BRANCH  12  13
ATOM     13  C   UNL     1      47.060  20.880  20.025  0.00  0.00    +0.087 C 
ATOM     14  C   UNL     1      45.748  20.898  19.803  0.00  0.00    -0.140 C 
BRANCH  14  19
ATOM     19  C   UNL     1      45.053  22.199  19.494  0.00  0.00    +0.194 C 
ATOM     20  C   UNL     1      44.419  22.964  20.658  0.00  0.00    +0.199 C 
ATOM     21  O   UNL     1      43.638  22.261  19.687  0.00  0.00    -0.343 OA
ENDBRANCH  14  19
BRANCH  14  15
ATOM     15  C   UNL     1      44.976  19.648  19.860  0.00  0.00    +0.509 C 
ATOM     18  O   UNL     1      44.663  19.080  18.832  0.00  0.00    -0.484 OA
BRANCH  15  16
ATOM     16  O   UNL     1      44.616  19.132  21.051  0.00  0.00    -0.352 OA
ATOM     17  C   UNL     1      43.222  19.139  21.368  0.00  0.00    +0.257 C 
ENDBRANCH  15  16
ENDBRANCH  14  15
ENDBRANCH  12  13
ENDBRANCH  11  12
TORSDOF 6
ENDMDL
MODEL 2
REMARK VINA RESULT:      -5.7      1.534      2.242
REMARK  Name = ZINC95486370
REMARK  10 active torsions:
REMARK  status: ('A' for Active; 'I' for Inactive)
REMARK    1  A    between atoms: C1_1  and  C2_2
REMARK    2  A    between atoms: C5_5  and  O5_30
REMARK    3  A    between atoms: C6_7  and  C20_28
REMARK    4  A    between atoms: C6_7  and  C21_29
REMARK    5  A    between atoms: C11_13  and  C12_15
REMARK    6  A    between atoms: C12_15  and  C13_16
REMARK    7  A    between atoms: C14_17  and  C15_18
REMARK    8  A    between atoms: C14_17  and  C17_22
REMARK    9  A    between atoms: C17_22  and  O3_24
REMARK   10  A    between atoms: O3_24  and  C18_25
REMARK                            x       y       z     vdW  Elec       q    Type
REMARK                         _______ _______ _______ _____ _____    ______ ____
ROOT
ATOM      1  C   UNL     1      48.274  20.763  19.516  0.00  0.00    +0.027 C 
ATOM      2  C   UNL     1      48.518  19.294  19.140  0.00  0.00    -0.033 C 
ATOM      3  C   UNL     1      48.918  18.516  20.390  0.00  0.00    +0.026 C 
ATOM      4  C   UNL     1      50.227  19.077  20.947  0.00  0.00    -0.016 C 
ATOM      5  C   UNL     1      51.342  18.967  19.920  0.00  0.00    +0.165 C 
ATOM      8  C   UNL     1      50.982  19.579  18.572  0.00  0.00    -0.043 C 
ATOM      9  C   UNL     1      52.061  19.115  17.564  0.00  0.00    +0.027 C 
ATOM     10  C   UNL     1      51.126  21.105  18.636  0.00  0.00    +0.031 C 
ATOM     11  C   UNL     1      47.166  18.794  18.606  0.00  0.00    +0.035 C 
ATOM     22  C   UNL     1      47.300  17.354  18.132  0.00  0.00    +0.020 C 
ATOM     23  C   UNL     1      47.099  16.201  19.105  0.00  0.00    +0.184 C 
ATOM     24  O   UNL     1      46.141  16.529  18.092  0.00  0.00    -0.337 OA
ATOM     25  C   UNL     1      48.351  17.196  17.028  0.00  0.00    +0.044 C 
ATOM     26  C   UNL     1      49.689  17.706  17.573  0.00  0.00    +0.039 C 
ATOM     27  C   UNL     1      49.603  19.151  18.076  0.00  0.00    +0.022 C 
ENDROOT
BRANCH   5   6
ATOM      6  O   UNL     1      51.717  17.596  19.752  0.00  0.00    -0.561 OA
ATOM      7  H   UNL     1      51.258  17.148  19.028  0.00  0.00    +0.374 HD
ENDBRANCH   5   6
BRANCH  11  12
ATOM     12  C   UNL     1      46.076  18.936  19.660  0.00  0.00    +0.068 C 
BRANCH  12  13
ATOM     13  C   UNL     1      44.864  19.588  19.045  0.00  0.00    +0.087 C 
ATOM     14  C   UNL     1      44.068  20.351  19.790  0.00  0.00    -0.140 C 
BRANCH  14  19
ATOM     19  C   UNL     1      42.786  20.892  19.210  0.00  0.00    +0.194 C 
ATOM     20  C   UNL     1      41.505  20.086  19.436  0.00  0.00    +0.199 C 
ATOM     21  O   UNL     1      42.160  20.143  18.166  0.00  0.00    -0.343 OA
ENDBRANCH  14  19
BRANCH  14  15
ATOM     15  C   UNL     1      44.439  20.667  21.176  0.00  0.00    +0.509 C 
ATOM     18  O   UNL     1      43.950  20.038  22.094  0.00  0.00    -0.484 OA
BRANCH  15  16
ATOM     16  O   UNL     1      45.322  21.653  21.430  0.00  0.00    -0.352 OA
ATOM     17  C   UNL     1      44.811  22.987  21.476  0.00  0.00    +0.257 C 
ENDBRANCH  15  16
ENDBRANCH  14  15
ENDBRANCH  12  13
ENDBRANCH  11  12
TORSDOF 6
ENDMDL
MODEL 3
REMARK VINA RESULT:      -5.6      2.010      6.743
REMARK  Name = ZINC95486370
REMARK  10 active torsions:
REMARK  status: ('A' for Active; 'I' for Inactive)
REMARK    1  A    between atoms: C1_1  and  C2_2
REMARK    2  A    between atoms: C5_5  and  O5_30
REMARK    3  A    between atoms: C6_7  and  C20_28
REMARK    4  A    between atoms: C6_7  and  C21_29
REMARK    5  A    between atoms: C11_13  and  C12_15
REMARK    6  A    between atoms: C12_15  and  C13_16
REMARK    7  A    between atoms: C14_17  and  C15_18
REMARK    8  A    between atoms: C14_17  and  C17_22
REMARK    9  A    between atoms: C17_22  and  O3_24
REMARK   10  A    between atoms: O3_24  and  C18_25
REMARK                            x       y       z     vdW  Elec       q    Type
REMARK                         _______ _______ _______ _____ _____    ______ ____
ROOT
ATOM      1  C   UNL     1      47.049  21.714  20.812  0.00  0.00    +0.027 C 
ATOM      2  C   UNL     1      46.698  20.334  20.236  0.00  0.00    -0.033 C 
ATOM      3  C   UNL     1      45.894  20.516  18.951  0.00  0.00    +0.026 C 
ATOM      4  C   UNL     1      44.582  21.236  19.265  0.00  0.00    -0.016 C 
ATOM      5  C   UNL     1      43.752  20.440  20.258  0.00  0.00    +0.165 C 
ATOM      8  C   UNL     1      44.518  20.065  21.520  0.00  0.00    -0.043 C 
ATOM      9  C   UNL     1      43.667  19.010  22.268  0.00  0.00    +0.027 C 
ATOM     10  C   UNL     1      44.582  21.270  22.469  0.00  0.00    +0.031 C 
ATOM     11  C   UNL     1      48.053  19.677  19.931  0.00  0.00    +0.035 C 
ATOM     22  C   UNL     1      47.837  18.262  19.414  0.00  0.00    +0.020 C 
ATOM     23  C   UNL     1      47.624  18.010  17.929  0.00  0.00    +0.184 C 
ATOM     24  O   UNL     1      48.839  17.662  18.601  0.00  0.00    -0.337 OA
ATOM     25  C   UNL     1      47.080  17.383  20.415  0.00  0.00    +0.044 C 
ATOM     26  C   UNL     1      45.736  18.055  20.713  0.00  0.00    +0.039 C 
ATOM     27  C   UNL     1      45.901  19.489  21.226  0.00  0.00    +0.022 C 
ENDROOT
BRANCH   5   6
ATOM      6  O   UNL     1      43.237  19.261  19.629  0.00  0.00    -0.561 OA
ATOM      7  H   UNL     1      42.706  19.437  18.840  0.00  0.00    +0.374 HD
ENDBRANCH   5   6
BRANCH  11  12
ATOM     12  C   UNL     1      48.858  20.515  18.946  0.00  0.00    +0.068 C 
BRANCH  12  13
ATOM     13  C   UNL     1      50.166  20.916  19.579  0.00  0.00    +0.087 C 
ATOM     14  C   UNL     1      51.291  20.866  18.870  0.00  0.00    -0.140 C 
BRANCH  14  19
ATOM     19  C   UNL     1      52.615  21.137  19.539  0.00  0.00    +0.194 C 
ATOM     20  C   UNL     1      52.663  21.097  21.068  0.00  0.00    +0.199 C 
ATOM     21  O   UNL     1      52.731  22.321  20.330  0.00  0.00    -0.343 OA
ENDBRANCH  14  19
BRANCH  14  15
ATOM     15  C   UNL     1      51.243  20.550  17.436  0.00  0.00    +0.509 C 
ATOM     18  O   UNL     1      51.202  21.447  16.617  0.00  0.00    -0.484 OA
BRANCH  15  16
ATOM     16  O   UNL     1      51.247  19.265  17.028  0.00  0.00    -0.352 OA
ATOM     17  C   UNL     1      51.921  18.975  15.802  0.00  0.00    +0.257 C 
ENDBRANCH  15  16
ENDBRANCH  14  15
ENDBRANCH  12  13
ENDBRANCH  11  12
TORSDOF 6
ENDMDL
MODEL 4
REMARK VINA RESULT:      -5.6      1.960      7.147
REMARK  Name = ZINC95486370
REMARK  10 active torsions:
REMARK  status: ('A' for Active; 'I' for Inactive)
REMARK    1  A    between atoms: C1_1  and  C2_2
REMARK    2  A    between atoms: C5_5  and  O5_30
REMARK    3  A    between atoms: C6_7  and  C20_28
REMARK    4  A    between atoms: C6_7  and  C21_29
REMARK    5  A    between atoms: C11_13  and  C12_15
REMARK    6  A    between atoms: C12_15  and  C13_16
REMARK    7  A    between atoms: C14_17  and  C15_18
REMARK    8  A    between atoms: C14_17  and  C17_22
REMARK    9  A    between atoms: C17_22  and  O3_24
REMARK   10  A    between atoms: O3_24  and  C18_25
REMARK                            x       y       z     vdW  Elec       q    Type
REMARK                         _______ _______ _______ _____ _____    ______ ____
ROOT
ATOM      1  C   UNL     1      45.804  19.477  18.396  0.00  0.00    +0.027 C 
ATOM      2  C   UNL     1      45.483  20.291  19.658  0.00  0.00    -0.033 C 
ATOM      3  C   UNL     1      45.305  19.339  20.837  0.00  0.00    +0.026 C 
ATOM      4  C   UNL     1      44.121  18.409  20.571  0.00  0.00    -0.016 C 
ATOM      5  C   UNL     1      42.840  19.205  20.382  0.00  0.00    +0.165 C 
ATOM      8  C   UNL     1      42.960  20.298  19.328  0.00  0.00    -0.043 C 
ATOM      9  C   UNL     1      41.716  21.206  19.475  0.00  0.00    +0.027 C 
ATOM     10  C   UNL     1      42.844  19.686  17.925  0.00  0.00    +0.031 C 
ATOM     11  C   UNL     1      46.714  21.186  19.873  0.00  0.00    +0.035 C 
ATOM     22  C   UNL     1      46.485  22.099  21.068  0.00  0.00    +0.020 C 
ATOM     23  C   UNL     1      46.846  21.635  22.472  0.00  0.00    +0.184 C 
ATOM     24  O   UNL     1      47.611  22.618  21.767  0.00  0.00    -0.337 OA
ATOM     25  C   UNL     1      45.253  22.994  20.894  0.00  0.00    +0.044 C 
ATOM     26  C   UNL     1      44.038  22.087  20.673  0.00  0.00    +0.039 C 
ATOM     27  C   UNL     1      44.225  21.138  19.486  0.00  0.00    +0.022 C 
ENDROOT
BRANCH   5   6
ATOM      6  O   UNL     1      42.428  19.771  21.630  0.00  0.00    -0.561 OA
ATOM      7  H   UNL     1      41.984  19.145  22.219  0.00  0.00    +0.374 HD
ENDBRANCH   5   6
BRANCH  11  12
ATOM     12  C   UNL     1      47.975  20.349  20.042  0.00  0.00    +0.068 C 
BRANCH  12  13
ATOM     13  C   UNL     1      49.120  21.014  19.321  0.00  0.00    +0.087 C 
ATOM     14  C   UNL     1      50.143  20.286  18.881  0.00  0.00    -0.140 C 
BRANCH  14  19
ATOM     19  C   UNL     1      51.348  20.965  18.282  0.00  0.00    +0.194 C 
ATOM     20  C   UNL     1      51.518  20.905  16.762  0.00  0.00    +0.199 C 
ATOM     21  O   UNL     1      52.333  20.140  17.655  0.00  0.00    -0.343 OA
ENDBRANCH  14  19
BRANCH  14  15
ATOM     15  C   UNL     1      50.098  18.820  18.979  0.00  0.00    +0.509 C 
ATOM     18  O   UNL     1      50.687  18.253  19.879  0.00  0.00    -0.484 OA
BRANCH  15  16
ATOM     16  O   UNL     1      49.403  18.105  18.072  0.00  0.00    -0.352 OA
ATOM     17  C   UNL     1      50.156  17.423  17.068  0.00  0.00    +0.257 C 
ENDBRANCH  15  16
ENDBRANCH  14  15
ENDBRANCH  12  13
ENDBRANCH  11  12
TORSDOF 6
ENDMDL
MODEL 5
REMARK VINA RESULT:      -5.4      1.816      6.965
REMARK  Name = ZINC95486370
REMARK  10 active torsions:
REMARK  status: ('A' for Active; 'I' for Inactive)
REMARK    1  A    between atoms: C1_1  and  C2_2
REMARK    2  A    between atoms: C5_5  and  O5_30
REMARK    3  A    between atoms: C6_7  and  C20_28
REMARK    4  A    between atoms: C6_7  and  C21_29
REMARK    5  A    between atoms: C11_13  and  C12_15
REMARK    6  A    between atoms: C12_15  and  C13_16
REMARK    7  A    between atoms: C14_17  and  C15_18
REMARK    8  A    between atoms: C14_17  and  C17_22
REMARK    9  A    between atoms: C17_22  and  O3_24
REMARK   10  A    between atoms: O3_24  and  C18_25
REMARK                            x       y       z     vdW  Elec       q    Type
REMARK                         _______ _______ _______ _____ _____    ______ ____
ROOT
ATOM      1  C   UNL     1      47.247  20.244  20.617  0.00  0.00    +0.027 C 
ATOM      2  C   UNL     1      46.389  19.222  19.855  0.00  0.00    -0.033 C 
ATOM      3  C   UNL     1      45.859  19.866  18.577  0.00  0.00    +0.026 C 
ATOM      4  C   UNL     1      44.962  21.052  18.934  0.00  0.00    -0.016 C 
ATOM      5  C   UNL     1      43.785  20.603  19.785  0.00  0.00    +0.165 C 
ATOM      8  C   UNL     1      44.200  19.806  21.015  0.00  0.00    -0.043 C 
ATOM      9  C   UNL     1      42.917  19.161  21.589  0.00  0.00    +0.027 C 
ATOM     10  C   UNL     1      44.692  20.759  22.113  0.00  0.00    +0.031 C 
ATOM     11  C   UNL     1      47.352  18.073  19.518  0.00  0.00    +0.035 C 
ATOM     22  C   UNL     1      46.595  16.956  18.814  0.00  0.00    +0.020 C 
ATOM     23  C   UNL     1      46.427  16.973  17.302  0.00  0.00    +0.184 C 
ATOM     24  O   UNL     1      47.309  16.063  17.967  0.00  0.00    -0.337 OA
ATOM     25  C   UNL     1      45.448  16.400  19.665  0.00  0.00    +0.044 C 
ATOM     26  C   UNL     1      44.503  17.559  19.999  0.00  0.00    +0.039 C 
ATOM     27  C   UNL     1      45.222  18.716  20.699  0.00  0.00    +0.022 C 
ENDROOT
BRANCH   5   6
ATOM      6  O   UNL     1      42.873  19.839  18.991  0.00  0.00    -0.561 OA
ATOM      7  H   UNL     1      42.617  18.994  19.388  0.00  0.00    +0.374 HD
ENDBRANCH   5   6
BRANCH  11  12
ATOM     12  C   UNL     1      48.522  18.569  18.679  0.00  0.00    +0.068 C 
BRANCH  12  13
ATOM     13  C   UNL     1      49.817  18.230  19.372  0.00  0.00    +0.087 C 
ATOM     14  C   UNL     1      50.965  18.730  18.922  0.00  0.00    -0.140 C 
BRANCH  14  19
ATOM     19  C   UNL     1      52.270  18.285  19.529  0.00  0.00    +0.194 C 
ATOM     20  C   UNL     1      52.939  17.037  18.948  0.00  0.00    +0.199 C 
ATOM     21  O   UNL     1      52.289  17.035  20.222  0.00  0.00    -0.343 OA
ENDBRANCH  14  19
BRANCH  14  15
ATOM     15  C   UNL     1      50.960  19.717  17.833  0.00  0.00    +0.509 C 
ATOM     18  O   UNL     1      50.861  20.902  18.088  0.00  0.00    -0.484 OA
BRANCH  15  16
ATOM     16  O   UNL     1      51.066  19.310  16.553  0.00  0.00    -0.352 OA
ATOM     17  C   UNL     1      52.245  19.695  15.844  0.00  0.00    +0.257 C 
ENDBRANCH  15  16
ENDBRANCH  14  15
ENDBRANCH  12  13
ENDBRANCH  11  12
TORSDOF 6
ENDMDL
MODEL 6
REMARK VINA RESULT:      -5.4      1.696      2.028
REMARK  Name = ZINC95486370
REMARK  10 active torsions:
REMARK  status: ('A' for Active; 'I' for Inactive)
REMARK    1  A    between atoms: C1_1  and  C2_2
REMARK    2  A    between atoms: C5_5  and  O5_30
REMARK    3  A    between atoms: C6_7  and  C20_28
REMARK    4  A    between atoms: C6_7  and  C21_29
REMARK    5  A    between atoms: C11_13  and  C12_15
REMARK    6  A    between atoms: C12_15  and  C13_16
REMARK    7  A    between atoms: C14_17  and  C15_18
REMARK    8  A    between atoms: C14_17  and  C17_22
REMARK    9  A    between atoms: C17_22  and  O3_24
REMARK   10  A    between atoms: O3_24  and  C18_25
REMARK                            x       y       z     vdW  Elec       q    Type
REMARK                         _______ _______ _______ _____ _____    ______ ____
ROOT
ATOM      1  C   UNL     1      48.988  20.359  19.035  0.00  0.00    +0.027 C 
ATOM      2  C   UNL     1      49.531  18.950  18.756  0.00  0.00    -0.033 C 
ATOM      3  C   UNL     1      50.521  18.567  19.852  0.00  0.00    +0.026 C 
ATOM      4  C   UNL     1      51.706  19.534  19.833  0.00  0.00    -0.016 C 
ATOM      5  C   UNL     1      52.417  19.493  18.491  0.00  0.00    +0.165 C 
ATOM      8  C   UNL     1      51.482  19.707  17.308  0.00  0.00    -0.043 C 
ATOM      9  C   UNL     1      52.272  19.326  16.033  0.00  0.00    +0.027 C 
ATOM     10  C   UNL     1      51.172  21.202  17.151  0.00  0.00    +0.031 C 
ATOM     11  C   UNL     1      48.297  18.036  18.804  0.00  0.00    +0.035 C 
ATOM     22  C   UNL     1      48.701  16.607  18.470  0.00  0.00    +0.020 C 
ATOM     23  C   UNL     1      49.175  15.665  19.567  0.00  0.00    +0.184 C 
ATOM     24  O   UNL     1      47.895  15.533  18.941  0.00  0.00    -0.337 OA
ATOM     25  C   UNL     1      49.344  16.489  17.085  0.00  0.00    +0.044 C 
ATOM     26  C   UNL     1      50.566  17.412  17.051  0.00  0.00    +0.039 C 
ATOM     27  C   UNL     1      50.213  18.862  17.393  0.00  0.00    +0.022 C 
ENDROOT
BRANCH   5   6
ATOM      6  O   UNL     1      53.114  18.251  18.346  0.00  0.00    -0.561 OA
ATOM      7  H   UNL     1      52.605  17.479  18.629  0.00  0.00    +0.374 HD
ENDBRANCH   5   6
BRANCH  11  12
ATOM     12  C   UNL     1      47.608  18.120  20.160  0.00  0.00    +0.068 C 
BRANCH  12  13
ATOM     13  C   UNL     1      46.312  18.877  20.018  0.00  0.00    +0.087 C 
ATOM     14  C   UNL     1      45.151  18.244  20.169  0.00  0.00    -0.140 C 
BRANCH  14  19
ATOM     19  C   UNL     1      43.858  18.969  19.895  0.00  0.00    +0.194 C 
ATOM     20  C   UNL     1      43.289  19.857  21.003  0.00  0.00    +0.199 C 
ATOM     21  O   UNL     1      42.711  18.594  20.660  0.00  0.00    -0.343 OA
ENDBRANCH  14  19
BRANCH  14  15
ATOM     15  C   UNL     1      45.130  16.841  20.603  0.00  0.00    +0.509 C 
ATOM     18  O   UNL     1      45.003  15.953  19.782  0.00  0.00    -0.484 OA
BRANCH  15  16
ATOM     16  O   UNL     1      45.251  16.537  21.910  0.00  0.00    -0.352 OA
ATOM     17  C   UNL     1      44.198  15.772  22.500  0.00  0.00    +0.257 C 
ENDBRANCH  15  16
ENDBRANCH  14  15
ENDBRANCH  12  13
ENDBRANCH  11  12
TORSDOF 6
ENDMDL
MODEL 7
REMARK VINA RESULT:      -5.3      3.109      4.635
REMARK  Name = ZINC95486370
REMARK  10 active torsions:
REMARK  status: ('A' for Active; 'I' for Inactive)
REMARK    1  A    between atoms: C1_1  and  C2_2
REMARK    2  A    between atoms: C5_5  and  O5_30
REMARK    3  A    between atoms: C6_7  and  C20_28
REMARK    4  A    between atoms: C6_7  and  C21_29
REMARK    5  A    between atoms: C11_13  and  C12_15
REMARK    6  A    between atoms: C12_15  and  C13_16
REMARK    7  A    between atoms: C14_17  and  C15_18
REMARK    8  A    between atoms: C14_17  and  C17_22
REMARK    9  A    between atoms: C17_22  and  O3_24
REMARK   10  A    between atoms: O3_24  and  C18_25
REMARK                            x       y       z     vdW  Elec       q    Type
REMARK                         _______ _______ _______ _____ _____    ______ ____
ROOT
ATOM      1  C   UNL     1      46.218  17.162  17.222  0.00  0.00    +0.027 C 
ATOM      2  C   UNL     1      46.267  16.778  18.708  0.00  0.00    -0.033 C 
ATOM      3  C   UNL     1      47.585  17.259  19.307  0.00  0.00    +0.026 C 
ATOM      4  C   UNL     1      48.752  16.561  18.608  0.00  0.00    -0.016 C 
ATOM      5  C   UNL     1      48.657  15.053  18.773  0.00  0.00    +0.165 C 
ATOM      8  C   UNL     1      47.310  14.484  18.348  0.00  0.00    -0.043 C 
ATOM      9  C   UNL     1      47.252  13.026  18.863  0.00  0.00    +0.027 C 
ATOM     10  C   UNL     1      47.250  14.369  16.819  0.00  0.00    +0.031 C 
ATOM     11  C   UNL     1      45.084  17.522  19.346  0.00  0.00    +0.035 C 
ATOM     22  C   UNL     1      44.985  17.163  20.822  0.00  0.00    +0.020 C 
ATOM     23  C   UNL     1      45.765  17.954  21.861  0.00  0.00    +0.184 C 
ATOM     24  O   UNL     1      44.346  18.070  21.713  0.00  0.00    -0.337 OA
ATOM     25  C   UNL     1      44.796  15.659  21.047  0.00  0.00    +0.044 C 
ATOM     26  C   UNL     1      45.979  14.932  20.398  0.00  0.00    +0.039 C 
ATOM     27  C   UNL     1      46.129  15.271  18.912  0.00  0.00    +0.022 C 
ENDROOT
BRANCH   5   6
ATOM      6  O   UNL     1      48.936  14.692  20.129  0.00  0.00    -0.561 OA
ATOM      7  H   UNL     1      48.303  15.047  20.769  0.00  0.00    +0.374 HD
ENDBRANCH   5   6
BRANCH  11  12
ATOM     12  C   UNL     1      45.212  19.026  19.144  0.00  0.00    +0.068 C 
BRANCH  12  13
ATOM     13  C   UNL     1      43.883  19.588  18.706  0.00  0.00    +0.087 C 
ATOM     14  C   UNL     1      43.439  20.729  19.228  0.00  0.00    -0.140 C 
BRANCH  14  19
ATOM     19  C   UNL     1      42.054  21.221  18.892  0.00  0.00    +0.194 C 
ATOM     20  C   UNL     1      40.864  20.471  19.495  0.00  0.00    +0.199 C 
ATOM     21  O   UNL     1      41.215  20.366  18.112  0.00  0.00    -0.343 OA
ENDBRANCH  14  19
BRANCH  14  15
ATOM     15  C   UNL     1      44.297  21.509  20.129  0.00  0.00    +0.509 C 
ATOM     18  O   UNL     1      45.011  22.386  19.681  0.00  0.00    -0.484 OA
BRANCH  15  16
ATOM     16  O   UNL     1      44.293  21.255  21.453  0.00  0.00    -0.352 OA
ATOM     17  C   UNL     1      45.396  21.753  22.213  0.00  0.00    +0.257 C 
ENDBRANCH  15  16
ENDBRANCH  14  15
ENDBRANCH  12  13
ENDBRANCH  11  12
TORSDOF 6
ENDMDL
MODEL 8
REMARK VINA RESULT:      -5.0      2.932      6.587
REMARK  Name = ZINC95486370
REMARK  10 active torsions:
REMARK  status: ('A' for Active; 'I' for Inactive)
REMARK    1  A    between atoms: C1_1  and  C2_2
REMARK    2  A    between atoms: C5_5  and  O5_30
REMARK    3  A    between atoms: C6_7  and  C20_28
REMARK    4  A    between atoms: C6_7  and  C21_29
REMARK    5  A    between atoms: C11_13  and  C12_15
REMARK    6  A    between atoms: C12_15  and  C13_16
REMARK    7  A    between atoms: C14_17  and  C15_18
REMARK    8  A    between atoms: C14_17  and  C17_22
REMARK    9  A    between atoms: C17_22  and  O3_24
REMARK   10  A    between atoms: O3_24  and  C18_25
REMARK                            x       y       z     vdW  Elec       q    Type
REMARK                         _______ _______ _______ _____ _____    ______ ____
ROOT
ATOM      1  C   UNL     1      49.874  14.513  16.865  0.00  0.00    +0.027 C 
ATOM      2  C   UNL     1      48.751  15.127  17.713  0.00  0.00    -0.033 C 
ATOM      3  C   UNL     1      48.980  14.774  19.180  0.00  0.00    +0.026 C 
ATOM      4  C   UNL     1      48.919  13.257  19.357  0.00  0.00    -0.016 C 
ATOM      5  C   UNL     1      47.567  12.715  18.925  0.00  0.00    +0.165 C 
ATOM      8  C   UNL     1      47.167  13.145  17.519  0.00  0.00    -0.043 C 
ATOM      9  C   UNL     1      45.670  12.795  17.349  0.00  0.00    +0.027 C 
ATOM     10  C   UNL     1      47.898  12.282  16.481  0.00  0.00    +0.031 C 
ATOM     11  C   UNL     1      48.881  16.644  17.500  0.00  0.00    +0.035 C 
ATOM     22  C   UNL     1      47.766  17.366  18.243  0.00  0.00    +0.020 C 
ATOM     23  C   UNL     1      47.949  17.772  19.698  0.00  0.00    +0.184 C 
ATOM     24  O   UNL     1      47.958  18.722  18.628  0.00  0.00    -0.337 OA
ATOM     25  C   UNL     1      46.373  16.924  17.783  0.00  0.00    +0.044 C 
ATOM     26  C   UNL     1      46.264  15.410  17.995  0.00  0.00    +0.039 C 
ATOM     27  C   UNL     1      47.373  14.638  17.275  0.00  0.00    +0.022 C 
ENDROOT
BRANCH   5   6
ATOM      6  O   UNL     1      46.561  13.109  19.863  0.00  0.00    -0.561 OA
ATOM      7  H   UNL     1      46.133  12.369  20.316  0.00  0.00    +0.374 HD
ENDBRANCH   5   6
BRANCH  11  12
ATOM     12  C   UNL     1      50.254  17.141  17.931  0.00  0.00    +0.068 C 
BRANCH  12  13
ATOM     13  C   UNL     1      50.802  18.075  16.882  0.00  0.00    +0.087 C 
ATOM     14  C   UNL     1      51.801  18.901  17.183  0.00  0.00    -0.140 C 
BRANCH  14  19
ATOM     19  C   UNL     1      52.258  19.927  16.178  0.00  0.00    +0.194 C 
ATOM     20  C   UNL     1      51.559  21.288  16.180  0.00  0.00    +0.199 C 
ATOM     21  O   UNL     1      51.336  20.314  15.156  0.00  0.00    -0.343 OA
ENDBRANCH  14  19
BRANCH  14  15
ATOM     15  C   UNL     1      52.458  18.813  18.494  0.00  0.00    +0.509 C 
ATOM     18  O   UNL     1      53.063  17.805  18.804  0.00  0.00    -0.484 OA
BRANCH  15  16
ATOM     16  O   UNL     1      52.392  19.850  19.353  0.00  0.00    -0.352 OA
ATOM     17  C   UNL     1      51.102  20.188  19.865  0.00  0.00    +0.257 C 
ENDBRANCH  15  16
ENDBRANCH  14  15
ENDBRANCH  12  13
ENDBRANCH  11  12
TORSDOF 6
ENDMDL
MODEL 9
REMARK VINA RESULT:      -4.9      3.409      6.771
REMARK  Name = ZINC95486370
REMARK  10 active torsions:
REMARK  status: ('A' for Active; 'I' for Inactive)
REMARK    1  A    between atoms: C1_1  and  C2_2
REMARK    2  A    between atoms: C5_5  and  O5_30
REMARK    3  A    between atoms: C6_7  and  C20_28
REMARK    4  A    between atoms: C6_7  and  C21_29
REMARK    5  A    between atoms: C11_13  and  C12_15
REMARK    6  A    between atoms: C12_15  and  C13_16
REMARK    7  A    between atoms: C14_17  and  C15_18
REMARK    8  A    between atoms: C14_17  and  C17_22
REMARK    9  A    between atoms: C17_22  and  O3_24
REMARK   10  A    between atoms: O3_24  and  C18_25
REMARK                            x       y       z     vdW  Elec       q    Type
REMARK                         _______ _______ _______ _____ _____    ______ ____
ROOT
ATOM      1  C   UNL     1      50.614  18.347  16.593  0.00  0.00    +0.027 C 
ATOM      2  C   UNL     1      50.842  18.093  18.090  0.00  0.00    -0.033 C 
ATOM      3  C   UNL     1      49.503  18.154  18.819  0.00  0.00    +0.026 C 
ATOM      4  C   UNL     1      48.901  19.551  18.671  0.00  0.00    -0.016 C 
ATOM      5  C   UNL     1      49.828  20.604  19.255  0.00  0.00    +0.165 C 
ATOM      8  C   UNL     1      51.247  20.529  18.706  0.00  0.00    -0.043 C 
ATOM      9  C   UNL     1      52.128  21.427  19.607  0.00  0.00    +0.027 C 
ATOM     10  C   UNL     1      51.305  21.180  17.317  0.00  0.00    +0.031 C 
ATOM     11  C   UNL     1      51.430  16.675  18.165  0.00  0.00    +0.035 C 
ATOM     22  C   UNL     1      51.767  16.332  19.608  0.00  0.00    +0.020 C 
ATOM     23  C   UNL     1      50.716  15.712  20.517  0.00  0.00    +0.184 C 
ATOM     24  O   UNL     1      51.822  14.965  19.999  0.00  0.00    -0.337 OA
ATOM     25  C   UNL     1      52.772  17.312  20.224  0.00  0.00    +0.044 C 
ATOM     26  C   UNL     1      52.174  18.720  20.135  0.00  0.00    +0.039 C 
ATOM     27  C   UNL     1      51.806  19.108  18.700  0.00  0.00    +0.022 C 
ENDROOT
BRANCH   5   6
ATOM      6  O   UNL     1      49.849  20.499  20.682  0.00  0.00    -0.561 OA
ATOM      7  H   UNL     1      49.273  21.133  21.132  0.00  0.00    +0.374 HD
ENDBRANCH   5   6
BRANCH  11  12
ATOM     12  C   UNL     1      50.477  15.656  17.555  0.00  0.00    +0.068 C 
BRANCH  12  13
ATOM     13  C   UNL     1      51.209  14.836  16.524  0.00  0.00    +0.087 C 
ATOM     14  C   UNL     1      50.694  13.686  16.099  0.00  0.00    -0.140 C 
BRANCH  14  19
ATOM     19  C   UNL     1      51.488  12.801  15.171  0.00  0.00    +0.194 C 
ATOM     20  C   UNL     1      51.347  13.037  13.666  0.00  0.00    +0.199 C 
ATOM     21  O   UNL     1      50.764  11.908  14.323  0.00  0.00    -0.343 OA
ENDBRANCH  14  19
BRANCH  14  15
ATOM     15  C   UNL     1      49.350  13.278  16.532  0.00  0.00    +0.509 C 
ATOM     18  O   UNL     1      49.213  12.608  17.536  0.00  0.00    -0.484 OA
BRANCH  15  16
ATOM     16  O   UNL     1      48.270  13.647  15.815  0.00  0.00    -0.352 OA
ATOM     17  C   UNL     1      47.173  14.211  16.537  0.00  0.00    +0.257 C 
ENDBRANCH  15  16
ENDBRANCH  14  15
ENDBRANCH  12  13
ENDBRANCH  11  12
TORSDOF 6
ENDMDL
