MODEL 1
REMARK VINA RESULT:      -5.7      0.000      0.000
REMARK  Name = ZINC14586037
REMARK  14 active torsions:
REMARK  status: ('A' for Active; 'I' for Inactive)
REMARK    1  A    between atoms: C1_1  and  C2_2
REMARK    2  A    between atoms: C2_2  and  C3_3
REMARK    3  A    between atoms: C3_3  and  C4_4
REMARK    4  A    between atoms: C9_11  and  O5_27
REMARK    5  A    between atoms: C10_12  and  C18_22
REMARK    6  A    between atoms: C11_13  and  O4_21
REMARK    7  A    between atoms: C12_14  and  C13_15
REMARK    8  A    between atoms: C13_15  and  C14_17
REMARK    9  A    between atoms: C14_17  and  C15_18
REMARK   10  A    between atoms: C15_18  and  C16_19
REMARK   11  A    between atoms: C15_18  and  C17_20
REMARK   12  A    between atoms: C18_22  and  C19_23
REMARK   13  A    between atoms: C20_24  and  C21_25
REMARK   14  A    between atoms: C20_24  and  C22_26
REMARK                            x       y       z     vdW  Elec       q    Type
REMARK                         _______ _______ _______ _____ _____    ______ ____
ROOT
ATOM      4  C   UNL     1      43.197  20.915  19.751  0.00  0.00    +0.041 A 
ATOM      5  C   UNL     1      43.342  22.239  19.488  0.00  0.00    -0.092 A 
ATOM      6  C   UNL     1      44.626  22.821  19.511  0.00  0.00    +0.504 A 
ATOM      7  O   UNL     1      45.714  22.084  19.789  0.00  0.00    -0.242 OA
ATOM      8  C   UNL     1      45.610  20.765  20.055  0.00  0.00    +0.228 A 
ATOM      9  C   UNL     1      46.755  20.003  20.343  0.00  0.00    -0.226 A 
ATOM     16  C   UNL     1      46.628  18.628  20.613  0.00  0.00    +0.237 A 
ATOM     19  C   UNL     1      45.378  18.026  20.605  0.00  0.00    -0.165 A 
ATOM     25  C   UNL     1      44.245  18.767  20.322  0.00  0.00    +0.226 A 
ATOM     28  O   UNL     1      44.750  24.009  19.274  0.00  0.00    -0.452 OA
ATOM     29  C   UNL     1      44.353  20.144  20.044  0.00  0.00    -0.197 A 
ENDROOT
BRANCH   9  10
ATOM     10  C   UNL     1      48.073  20.635  20.358  0.00  0.00    +0.390 C 
ATOM     15  O   UNL     1      48.564  20.990  21.410  0.00  0.00    -0.422 OA
BRANCH  10  11
ATOM     11  C   UNL     1      48.823  20.846  19.068  0.00  0.00    +0.055 C 
BRANCH  11  12
ATOM     12  C   UNL     1      50.227  20.252  19.191  0.00  0.00    -0.018 C 
ATOM     13  C   UNL     1      51.231  21.169  18.488  0.00  0.00    +0.018 C 
ATOM     14  C   UNL     1      50.255  18.870  18.537  0.00  0.00    +0.021 C 
ENDBRANCH  11  12
ENDBRANCH  10  11
ENDBRANCH   9  10
BRANCH  16  17
ATOM     17  O   UNL     1      47.730  17.890  20.886  0.00  0.00    -0.474 OA
ATOM     18  H   UNL     1      47.839  17.120  20.312  0.00  0.00    +0.404 HD
ENDBRANCH  16  17
BRANCH  25  26
ATOM     26  O   UNL     1      43.030  18.166  20.311  0.00  0.00    -0.472 OA
ATOM     27  H   UNL     1      42.655  18.022  21.191  0.00  0.00    +0.403 HD
ENDBRANCH  25  26
BRANCH   4   3
ATOM      3  C   UNL     1      41.833  20.273  19.732  0.00  0.00    +0.084 C 
BRANCH   3   2
ATOM      1  C   UNL     1      39.891  21.324  18.565  0.00  0.00    +0.017 C 
ATOM      2  C   UNL     1      41.175  20.514  18.372  0.00  0.00    +0.024 C 
ENDBRANCH   3   2
ENDBRANCH   4   3
BRANCH  19  20
ATOM     20  C   UNL     1      45.256  16.554  20.901  0.00  0.00    +0.136 C 
BRANCH  20  21
ATOM     21  C   UNL     1      45.399  15.771  19.621  0.00  0.00    -0.067 C 
ATOM     22  C   UNL     1      45.494  14.465  19.659  0.00  0.00    -0.113 C 
ATOM     23  C   UNL     1      45.761  13.691  18.394  0.00  0.00    +0.073 C 
ATOM     24  C   UNL     1      45.334  13.736  20.968  0.00  0.00    +0.076 C 
ENDBRANCH  20  21
ENDBRANCH  19  20
TORSDOF 9
ENDMDL
MODEL 2
REMARK VINA RESULT:      -5.6      2.004      5.767
REMARK  Name = ZINC14586037
REMARK  14 active torsions:
REMARK  status: ('A' for Active; 'I' for Inactive)
REMARK    1  A    between atoms: C1_1  and  C2_2
REMARK    2  A    between atoms: C2_2  and  C3_3
REMARK    3  A    between atoms: C3_3  and  C4_4
REMARK    4  A    between atoms: C9_11  and  O5_27
REMARK    5  A    between atoms: C10_12  and  C18_22
REMARK    6  A    between atoms: C11_13  and  O4_21
REMARK    7  A    between atoms: C12_14  and  C13_15
REMARK    8  A    between atoms: C13_15  and  C14_17
REMARK    9  A    between atoms: C14_17  and  C15_18
REMARK   10  A    between atoms: C15_18  and  C16_19
REMARK   11  A    between atoms: C15_18  and  C17_20
REMARK   12  A    between atoms: C18_22  and  C19_23
REMARK   13  A    between atoms: C20_24  and  C21_25
REMARK   14  A    between atoms: C20_24  and  C22_26
REMARK                            x       y       z     vdW  Elec       q    Type
REMARK                         _______ _______ _______ _____ _____    ______ ____
ROOT
ATOM      4  C   UNL     1      45.390  20.673  21.130  0.00  0.00    +0.041 A 
ATOM      5  C   UNL     1      44.124  20.185  21.202  0.00  0.00    -0.092 A 
ATOM      6  C   UNL     1      43.805  18.969  20.564  0.00  0.00    +0.504 A 
ATOM      7  O   UNL     1      44.738  18.279  19.885  0.00  0.00    -0.242 OA
ATOM      8  C   UNL     1      46.005  18.731  19.792  0.00  0.00    +0.228 A 
ATOM      9  C   UNL     1      46.972  18.002  19.080  0.00  0.00    -0.226 A 
ATOM     16  C   UNL     1      48.291  18.486  18.999  0.00  0.00    +0.237 A 
ATOM     19  C   UNL     1      48.635  19.683  19.608  0.00  0.00    -0.165 A 
ATOM     25  C   UNL     1      47.692  20.408  20.312  0.00  0.00    +0.226 A 
ATOM     28  O   UNL     1      42.669  18.536  20.632  0.00  0.00    -0.452 OA
ATOM     29  C   UNL     1      46.367  19.937  20.410  0.00  0.00    -0.197 A 
ENDROOT
BRANCH   9  10
ATOM     10  C   UNL     1      46.611  16.743  18.430  0.00  0.00    +0.390 C 
ATOM     15  O   UNL     1      46.184  16.746  17.295  0.00  0.00    -0.422 OA
BRANCH  10  11
ATOM     11  C   UNL     1      46.769  15.440  19.172  0.00  0.00    +0.055 C 
BRANCH  11  12
ATOM     12  C   UNL     1      45.390  14.904  19.561  0.00  0.00    -0.018 C 
ATOM     13  C   UNL     1      45.192  15.054  21.071  0.00  0.00    +0.018 C 
ATOM     14  C   UNL     1      45.291  13.427  19.179  0.00  0.00    +0.021 C 
ENDBRANCH  11  12
ENDBRANCH  10  11
ENDBRANCH   9  10
BRANCH  16  17
ATOM     17  O   UNL     1      49.226  17.783  18.317  0.00  0.00    -0.474 OA
ATOM     18  H   UNL     1      49.160  17.869  17.356  0.00  0.00    +0.404 HD
ENDBRANCH  16  17
BRANCH  25  26
ATOM     26  O   UNL     1      48.042  21.573  20.909  0.00  0.00    -0.472 OA
ATOM     27  H   UNL     1      47.461  21.833  21.637  0.00  0.00    +0.403 HD
ENDBRANCH  25  26
BRANCH   4   3
ATOM      3  C   UNL     1      45.751  21.971  21.804  0.00  0.00    +0.084 C 
BRANCH   3   2
ATOM      1  C   UNL     1      44.971  23.564  20.044  0.00  0.00    +0.017 C 
ATOM      2  C   UNL     1      44.707  23.034  21.456  0.00  0.00    +0.024 C 
ENDBRANCH   3   2
ENDBRANCH   4   3
BRANCH  19  20
ATOM     20  C   UNL     1      50.050  20.192  19.509  0.00  0.00    +0.136 C 
BRANCH  20  21
ATOM     21  C   UNL     1      50.243  20.881  18.182  0.00  0.00    -0.067 C 
ATOM     22  C   UNL     1      51.294  20.609  17.449  0.00  0.00    -0.113 C 
ATOM     23  C   UNL     1      51.553  21.385  16.184  0.00  0.00    +0.073 C 
ATOM     24  C   UNL     1      52.245  19.518  17.872  0.00  0.00    +0.076 C 
ENDBRANCH  20  21
ENDBRANCH  19  20
TORSDOF 9
ENDMDL
MODEL 3
REMARK VINA RESULT:      -5.6      1.875      2.530
REMARK  Name = ZINC14586037
REMARK  14 active torsions:
REMARK  status: ('A' for Active; 'I' for Inactive)
REMARK    1  A    between atoms: C1_1  and  C2_2
REMARK    2  A    between atoms: C2_2  and  C3_3
REMARK    3  A    between atoms: C3_3  and  C4_4
REMARK    4  A    between atoms: C9_11  and  O5_27
REMARK    5  A    between atoms: C10_12  and  C18_22
REMARK    6  A    between atoms: C11_13  and  O4_21
REMARK    7  A    between atoms: C12_14  and  C13_15
REMARK    8  A    between atoms: C13_15  and  C14_17
REMARK    9  A    between atoms: C14_17  and  C15_18
REMARK   10  A    between atoms: C15_18  and  C16_19
REMARK   11  A    between atoms: C15_18  and  C17_20
REMARK   12  A    between atoms: C18_22  and  C19_23
REMARK   13  A    between atoms: C20_24  and  C21_25
REMARK   14  A    between atoms: C20_24  and  C22_26
REMARK                            x       y       z     vdW  Elec       q    Type
REMARK                         _______ _______ _______ _____ _____    ______ ____
ROOT
ATOM      4  C   UNL     1      45.006  20.980  19.707  0.00  0.00    +0.041 A 
ATOM      5  C   UNL     1      45.297  22.041  20.503  0.00  0.00    -0.092 A 
ATOM      6  C   UNL     1      46.631  22.282  20.889  0.00  0.00    +0.504 A 
ATOM      7  O   UNL     1      47.625  21.474  20.481  0.00  0.00    -0.242 OA
ATOM      8  C   UNL     1      47.375  20.411  19.690  0.00  0.00    +0.228 A 
ATOM      9  C   UNL     1      48.422  19.574  19.269  0.00  0.00    -0.226 A 
ATOM     16  C   UNL     1      48.144  18.472  18.439  0.00  0.00    +0.237 A 
ATOM     19  C   UNL     1      46.841  18.204  18.046  0.00  0.00    -0.165 A 
ATOM     25  C   UNL     1      45.803  19.021  18.454  0.00  0.00    +0.226 A 
ATOM     28  O   UNL     1      46.886  23.235  21.603  0.00  0.00    -0.452 OA
ATOM     29  C   UNL     1      46.063  20.133  19.281  0.00  0.00    -0.197 A 
ENDROOT
BRANCH   9  10
ATOM     10  C   UNL     1      49.796  19.850  19.686  0.00  0.00    +0.390 C 
ATOM     15  O   UNL     1      50.273  19.260  20.633  0.00  0.00    -0.422 OA
BRANCH  10  11
ATOM     11  C   UNL     1      50.621  20.867  18.939  0.00  0.00    +0.055 C 
BRANCH  11  12
ATOM     12  C   UNL     1      51.270  20.203  17.723  0.00  0.00    -0.018 C 
ATOM     13  C   UNL     1      52.628  19.621  18.125  0.00  0.00    +0.018 C 
ATOM     14  C   UNL     1      51.468  21.243  16.620  0.00  0.00    +0.021 C 
ENDBRANCH  11  12
ENDBRANCH  10  11
ENDBRANCH   9  10
BRANCH  16  17
ATOM     17  O   UNL     1      49.152  17.667  18.027  0.00  0.00    -0.474 OA
ATOM     18  H   UNL     1      50.030  18.060  18.115  0.00  0.00    +0.404 HD
ENDBRANCH  16  17
BRANCH  25  26
ATOM     26  O   UNL     1      44.535  18.753  18.059  0.00  0.00    -0.472 OA
ATOM     27  H   UNL     1      44.403  17.847  17.747  0.00  0.00    +0.403 HD
ENDBRANCH  25  26
BRANCH   4   3
ATOM      3  C   UNL     1      43.586  20.705  19.282  0.00  0.00    +0.084 C 
BRANCH   3   2
ATOM      1  C   UNL     1      41.364  21.743  18.809  0.00  0.00    +0.017 C 
ATOM      2  C   UNL     1      42.781  22.006  19.322  0.00  0.00    +0.024 C 
ENDBRANCH   3   2
ENDBRANCH   4   3
BRANCH  19  20
ATOM     20  C   UNL     1      46.556  17.018  17.162  0.00  0.00    +0.136 C 
BRANCH  20  21
ATOM     21  C   UNL     1      46.165  15.838  18.015  0.00  0.00    -0.067 C 
ATOM     22  C   UNL     1      46.664  14.654  17.763  0.00  0.00    -0.113 C 
ATOM     23  C   UNL     1      46.180  13.452  18.534  0.00  0.00    +0.073 C 
ATOM     24  C   UNL     1      47.723  14.492  16.703  0.00  0.00    +0.076 C 
ENDBRANCH  20  21
ENDBRANCH  19  20
TORSDOF 9
ENDMDL
MODEL 4
REMARK VINA RESULT:      -5.4      2.314      7.352
REMARK  Name = ZINC14586037
REMARK  14 active torsions:
REMARK  status: ('A' for Active; 'I' for Inactive)
REMARK    1  A    between atoms: C1_1  and  C2_2
REMARK    2  A    between atoms: C2_2  and  C3_3
REMARK    3  A    between atoms: C3_3  and  C4_4
REMARK    4  A    between atoms: C9_11  and  O5_27
REMARK    5  A    between atoms: C10_12  and  C18_22
REMARK    6  A    between atoms: C11_13  and  O4_21
REMARK    7  A    between atoms: C12_14  and  C13_15
REMARK    8  A    between atoms: C13_15  and  C14_17
REMARK    9  A    between atoms: C14_17  and  C15_18
REMARK   10  A    between atoms: C15_18  and  C16_19
REMARK   11  A    between atoms: C15_18  and  C17_20
REMARK   12  A    between atoms: C18_22  and  C19_23
REMARK   13  A    between atoms: C20_24  and  C21_25
REMARK   14  A    between atoms: C20_24  and  C22_26
REMARK                            x       y       z     vdW  Elec       q    Type
REMARK                         _______ _______ _______ _____ _____    ______ ____
ROOT
ATOM      4  C   UNL     1      50.354  19.697  18.356  0.00  0.00    +0.041 A 
ATOM      5  C   UNL     1      51.206  18.964  17.594  0.00  0.00    -0.092 A 
ATOM      6  C   UNL     1      50.769  17.754  17.019  0.00  0.00    +0.504 A 
ATOM      7  O   UNL     1      49.515  17.310  17.213  0.00  0.00    -0.242 OA
ATOM      8  C   UNL     1      48.639  18.010  17.963  0.00  0.00    +0.228 A 
ATOM      9  C   UNL     1      47.330  17.538  18.159  0.00  0.00    -0.226 A 
ATOM     16  C   UNL     1      46.429  18.284  18.940  0.00  0.00    +0.237 A 
ATOM     19  C   UNL     1      46.830  19.476  19.525  0.00  0.00    -0.165 A 
ATOM     25  C   UNL     1      48.115  19.950  19.339  0.00  0.00    +0.226 A 
ATOM     28  O   UNL     1      51.537  17.101  16.337  0.00  0.00    -0.452 OA
ATOM     29  C   UNL     1      49.031  19.220  18.555  0.00  0.00    -0.197 A 
ENDROOT
BRANCH   9  10
ATOM     10  C   UNL     1      46.905  16.279  17.549  0.00  0.00    +0.390 C 
ATOM     15  O   UNL     1      46.378  16.282  16.456  0.00  0.00    -0.422 OA
BRANCH  10  11
ATOM     11  C   UNL     1      47.123  14.977  18.278  0.00  0.00    +0.055 C 
BRANCH  11  12
ATOM     12  C   UNL     1      45.769  14.368  18.647  0.00  0.00    -0.018 C 
ATOM     13  C   UNL     1      45.566  14.459  20.162  0.00  0.00    +0.018 C 
ATOM     14  C   UNL     1      45.735  12.901  18.216  0.00  0.00    +0.021 C 
ENDBRANCH  11  12
ENDBRANCH  10  11
ENDBRANCH   9  10
BRANCH  16  17
ATOM     17  O   UNL     1      45.165  17.834  19.127  0.00  0.00    -0.474 OA
ATOM     18  H   UNL     1      44.894  17.152  18.497  0.00  0.00    +0.404 HD
ENDBRANCH  16  17
BRANCH  25  26
ATOM     26  O   UNL     1      48.494  21.119  19.910  0.00  0.00    -0.472 OA
ATOM     27  H   UNL     1      48.142  21.905  19.470  0.00  0.00    +0.403 HD
ENDBRANCH  25  26
BRANCH   4   3
ATOM      3  C   UNL     1      50.802  20.993  18.979  0.00  0.00    +0.084 C 
BRANCH   3   2
ATOM      1  C   UNL     1      52.727  21.878  20.303  0.00  0.00    +0.017 C 
ATOM      2  C   UNL     1      52.325  20.990  19.123  0.00  0.00    +0.024 C 
ENDBRANCH   3   2
ENDBRANCH   4   3
BRANCH  19  20
ATOM     20  C   UNL     1      45.856  20.262  20.364  0.00  0.00    +0.136 C 
BRANCH  20  21
ATOM     21  C   UNL     1      45.246  21.359  19.529  0.00  0.00    -0.067 C 
ATOM     22  C   UNL     1      45.184  22.581  19.998  0.00  0.00    -0.113 C 
ATOM     23  C   UNL     1      44.465  23.652  19.219  0.00  0.00    +0.073 C 
ATOM     24  C   UNL     1      45.833  22.916  21.316  0.00  0.00    +0.076 C 
ENDBRANCH  20  21
ENDBRANCH  19  20
TORSDOF 9
ENDMDL
MODEL 5
REMARK VINA RESULT:      -5.3      2.204      7.277
REMARK  Name = ZINC14586037
REMARK  14 active torsions:
REMARK  status: ('A' for Active; 'I' for Inactive)
REMARK    1  A    between atoms: C1_1  and  C2_2
REMARK    2  A    between atoms: C2_2  and  C3_3
REMARK    3  A    between atoms: C3_3  and  C4_4
REMARK    4  A    between atoms: C9_11  and  O5_27
REMARK    5  A    between atoms: C10_12  and  C18_22
REMARK    6  A    between atoms: C11_13  and  O4_21
REMARK    7  A    between atoms: C12_14  and  C13_15
REMARK    8  A    between atoms: C13_15  and  C14_17
REMARK    9  A    between atoms: C14_17  and  C15_18
REMARK   10  A    between atoms: C15_18  and  C16_19
REMARK   11  A    between atoms: C15_18  and  C17_20
REMARK   12  A    between atoms: C18_22  and  C19_23
REMARK   13  A    between atoms: C20_24  and  C21_25
REMARK   14  A    between atoms: C20_24  and  C22_26
REMARK                            x       y       z     vdW  Elec       q    Type
REMARK                         _______ _______ _______ _____ _____    ______ ____
ROOT
ATOM      4  C   UNL     1      48.161  15.993  19.917  0.00  0.00    +0.041 A 
ATOM      5  C   UNL     1      47.184  15.052  19.988  0.00  0.00    -0.092 A 
ATOM      6  C   UNL     1      45.830  15.443  19.946  0.00  0.00    +0.504 A 
ATOM      7  O   UNL     1      45.488  16.737  19.837  0.00  0.00    -0.242 OA
ATOM      8  C   UNL     1      46.430  17.701  19.763  0.00  0.00    +0.228 A 
ATOM      9  C   UNL     1      46.060  19.052  19.647  0.00  0.00    -0.226 A 
ATOM     16  C   UNL     1      47.056  20.042  19.567  0.00  0.00    +0.237 A 
ATOM     19  C   UNL     1      48.397  19.691  19.611  0.00  0.00    -0.165 A 
ATOM     25  C   UNL     1      48.772  18.365  19.724  0.00  0.00    +0.226 A 
ATOM     28  O   UNL     1      44.959  14.594  20.010  0.00  0.00    -0.452 OA
ATOM     29  C   UNL     1      47.789  17.358  19.801  0.00  0.00    -0.197 A 
ENDROOT
BRANCH   9  10
ATOM     10  C   UNL     1      44.648  19.426  19.606  0.00  0.00    +0.390 C 
ATOM     15  O   UNL     1      44.115  19.667  18.543  0.00  0.00    -0.422 OA
BRANCH  10  11
ATOM     11  C   UNL     1      43.853  19.512  20.884  0.00  0.00    +0.055 C 
BRANCH  11  12
ATOM     12  C   UNL     1      42.778  18.423  20.890  0.00  0.00    -0.018 C 
ATOM     13  C   UNL     1      41.393  19.074  20.890  0.00  0.00    +0.018 C 
ATOM     14  C   UNL     1      42.935  17.559  22.142  0.00  0.00    +0.021 C 
ENDBRANCH  11  12
ENDBRANCH  10  11
ENDBRANCH   9  10
BRANCH  16  17
ATOM     17  O   UNL     1      46.704  21.345  19.450  0.00  0.00    -0.474 OA
ATOM     18  H   UNL     1      45.763  21.483  19.278  0.00  0.00    +0.404 HD
ENDBRANCH  16  17
BRANCH  25  26
ATOM     26  O   UNL     1      50.085  18.034  19.761  0.00  0.00    -0.472 OA
ATOM     27  H   UNL     1      50.265  17.112  19.531  0.00  0.00    +0.403 HD
ENDBRANCH  25  26
BRANCH   4   3
ATOM      3  C   UNL     1      49.614  15.596  19.960  0.00  0.00    +0.084 C 
BRANCH   3   2
ATOM      1  C   UNL     1      50.046  15.281  17.519  0.00  0.00    +0.017 C 
ATOM      2  C   UNL     1      49.894  14.565  18.864  0.00  0.00    +0.024 C 
ENDBRANCH   3   2
ENDBRANCH   4   3
BRANCH  19  20
ATOM     20  C   UNL     1      49.453  20.763  19.529  0.00  0.00    +0.136 C 
BRANCH  20  21
ATOM     21  C   UNL     1      49.881  20.938  18.095  0.00  0.00    -0.067 C 
ATOM     22  C   UNL     1      51.154  20.994  17.792  0.00  0.00    -0.113 C 
ATOM     23  C   UNL     1      51.581  21.293  16.378  0.00  0.00    +0.073 C 
ATOM     24  C   UNL     1      52.193  20.759  18.859  0.00  0.00    +0.076 C 
ENDBRANCH  20  21
ENDBRANCH  19  20
TORSDOF 9
ENDMDL
MODEL 6
REMARK VINA RESULT:      -5.2      1.890      5.635
REMARK  Name = ZINC14586037
REMARK  14 active torsions:
REMARK  status: ('A' for Active; 'I' for Inactive)
REMARK    1  A    between atoms: C1_1  and  C2_2
REMARK    2  A    between atoms: C2_2  and  C3_3
REMARK    3  A    between atoms: C3_3  and  C4_4
REMARK    4  A    between atoms: C9_11  and  O5_27
REMARK    5  A    between atoms: C10_12  and  C18_22
REMARK    6  A    between atoms: C11_13  and  O4_21
REMARK    7  A    between atoms: C12_14  and  C13_15
REMARK    8  A    between atoms: C13_15  and  C14_17
REMARK    9  A    between atoms: C14_17  and  C15_18
REMARK   10  A    between atoms: C15_18  and  C16_19
REMARK   11  A    between atoms: C15_18  and  C17_20
REMARK   12  A    between atoms: C18_22  and  C19_23
REMARK   13  A    between atoms: C20_24  and  C21_25
REMARK   14  A    between atoms: C20_24  and  C22_26
REMARK                            x       y       z     vdW  Elec       q    Type
REMARK                         _______ _______ _______ _____ _____    ______ ____
ROOT
ATOM      4  C   UNL     1      48.862  20.006  19.318  0.00  0.00    +0.041 A 
ATOM      5  C   UNL     1      48.814  21.085  20.141  0.00  0.00    -0.092 A 
ATOM      6  C   UNL     1      47.724  21.249  21.019  0.00  0.00    +0.504 A 
ATOM      7  O   UNL     1      46.725  20.350  21.055  0.00  0.00    -0.242 OA
ATOM      8  C   UNL     1      46.737  19.265  20.254  0.00  0.00    +0.228 A 
ATOM      9  C   UNL     1      45.688  18.332  20.301  0.00  0.00    -0.226 A 
ATOM     16  C   UNL     1      45.721  17.204  19.461  0.00  0.00    +0.237 A 
ATOM     19  C   UNL     1      46.776  17.016  18.581  0.00  0.00    -0.165 A 
ATOM     25  C   UNL     1      47.813  17.929  18.526  0.00  0.00    +0.226 A 
ATOM     28  O   UNL     1      47.687  22.218  21.755  0.00  0.00    -0.452 OA
ATOM     29  C   UNL     1      47.802  19.062  19.364  0.00  0.00    -0.197 A 
ENDROOT
BRANCH   9  10
ATOM     10  C   UNL     1      44.571  18.529  21.223  0.00  0.00    +0.390 C 
ATOM     15  O   UNL     1      44.418  17.774  22.161  0.00  0.00    -0.422 OA
BRANCH  10  11
ATOM     11  C   UNL     1      43.609  19.669  21.009  0.00  0.00    +0.055 C 
BRANCH  11  12
ATOM     12  C   UNL     1      42.449  19.199  20.128  0.00  0.00    -0.018 C 
ATOM     13  C   UNL     1      42.096  20.297  19.122  0.00  0.00    +0.018 C 
ATOM     14  C   UNL     1      41.232  18.902  21.005  0.00  0.00    +0.021 C 
ENDBRANCH  11  12
ENDBRANCH  10  11
ENDBRANCH   9  10
BRANCH  16  17
ATOM     17  O   UNL     1      44.713  16.299  19.508  0.00  0.00    -0.474 OA
ATOM     18  H   UNL     1      44.175  16.268  18.705  0.00  0.00    +0.404 HD
ENDBRANCH  16  17
BRANCH  25  26
ATOM     26  O   UNL     1      48.843  17.732  17.667  0.00  0.00    -0.472 OA
ATOM     27  H   UNL     1      49.103  18.524  17.177  0.00  0.00    +0.403 HD
ENDBRANCH  25  26
BRANCH   4   3
ATOM      3  C   UNL     1      50.019  19.812  18.372  0.00  0.00    +0.084 C 
BRANCH   3   2
ATOM      1  C   UNL     1      51.463  21.119  16.808  0.00  0.00    +0.017 C 
ATOM      2  C   UNL     1      50.723  21.152  18.147  0.00  0.00    +0.024 C 
ENDBRANCH   3   2
ENDBRANCH   4   3
BRANCH  19  20
ATOM     20  C   UNL     1      46.795  15.807  17.683  0.00  0.00    +0.136 C 
BRANCH  20  21
ATOM     21  C   UNL     1      47.618  14.719  18.323  0.00  0.00    -0.067 C 
ATOM     22  C   UNL     1      47.085  13.546  18.560  0.00  0.00    -0.113 C 
ATOM     23  C   UNL     1      47.867  12.499  19.311  0.00  0.00    +0.073 C 
ATOM     24  C   UNL     1      45.688  13.243  18.081  0.00  0.00    +0.076 C 
ENDBRANCH  20  21
ENDBRANCH  19  20
TORSDOF 9
ENDMDL
MODEL 7
REMARK VINA RESULT:      -5.1      1.691      6.873
REMARK  Name = ZINC14586037
REMARK  14 active torsions:
REMARK  status: ('A' for Active; 'I' for Inactive)
REMARK    1  A    between atoms: C1_1  and  C2_2
REMARK    2  A    between atoms: C2_2  and  C3_3
REMARK    3  A    between atoms: C3_3  and  C4_4
REMARK    4  A    between atoms: C9_11  and  O5_27
REMARK    5  A    between atoms: C10_12  and  C18_22
REMARK    6  A    between atoms: C11_13  and  O4_21
REMARK    7  A    between atoms: C12_14  and  C13_15
REMARK    8  A    between atoms: C13_15  and  C14_17
REMARK    9  A    between atoms: C14_17  and  C15_18
REMARK   10  A    between atoms: C15_18  and  C16_19
REMARK   11  A    between atoms: C15_18  and  C17_20
REMARK   12  A    between atoms: C18_22  and  C19_23
REMARK   13  A    between atoms: C20_24  and  C21_25
REMARK   14  A    between atoms: C20_24  and  C22_26
REMARK                            x       y       z     vdW  Elec       q    Type
REMARK                         _______ _______ _______ _____ _____    ______ ____
ROOT
ATOM      4  C   UNL     1      46.337  16.345  21.287  0.00  0.00    +0.041 A 
ATOM      5  C   UNL     1      45.180  16.004  21.912  0.00  0.00    -0.092 A 
ATOM      6  C   UNL     1      44.066  16.864  21.840  0.00  0.00    +0.504 A 
ATOM      7  O   UNL     1      44.128  18.021  21.160  0.00  0.00    -0.242 OA
ATOM      8  C   UNL     1      45.259  18.394  20.527  0.00  0.00    +0.228 A 
ATOM      9  C   UNL     1      45.313  19.607  19.819  0.00  0.00    -0.226 A 
ATOM     16  C   UNL     1      46.500  19.977  19.160  0.00  0.00    +0.237 A 
ATOM     19  C   UNL     1      47.617  19.157  19.217  0.00  0.00    -0.165 A 
ATOM     25  C   UNL     1      47.575  17.962  19.910  0.00  0.00    +0.226 A 
ATOM     28  O   UNL     1      43.031  16.552  22.401  0.00  0.00    -0.452 OA
ATOM     29  C   UNL     1      46.393  17.570  20.572  0.00  0.00    -0.197 A 
ENDROOT
BRANCH   9  10
ATOM     10  C   UNL     1      44.140  20.477  19.762  0.00  0.00    +0.390 C 
ATOM     15  O   UNL     1      44.062  21.439  20.498  0.00  0.00    -0.422 OA
BRANCH  10  11
ATOM     11  C   UNL     1      43.028  20.180  18.789  0.00  0.00    +0.055 C 
BRANCH  11  12
ATOM     12  C   UNL     1      41.683  20.528  19.430  0.00  0.00    -0.018 C 
ATOM     13  C   UNL     1      41.184  19.334  20.247  0.00  0.00    +0.018 C 
ATOM     14  C   UNL     1      40.667  20.857  18.336  0.00  0.00    +0.021 C 
ENDBRANCH  11  12
ENDBRANCH  10  11
ENDBRANCH   9  10
BRANCH  16  17
ATOM     17  O   UNL     1      46.554  21.143  18.472  0.00  0.00    -0.474 OA
ATOM     18  H   UNL     1      46.351  21.053  17.531  0.00  0.00    +0.404 HD
ENDBRANCH  16  17
BRANCH  25  26
ATOM     26  O   UNL     1      48.670  17.165  19.954  0.00  0.00    -0.472 OA
ATOM     27  H   UNL     1      48.507  16.292  20.335  0.00  0.00    +0.403 HD
ENDBRANCH  25  26
BRANCH   4   3
ATOM      3  C   UNL     1      47.540  15.441  21.352  0.00  0.00    +0.084 C 
BRANCH   3   2
ATOM      1  C   UNL     1      47.767  13.046  22.026  0.00  0.00    +0.017 C 
ATOM      2  C   UNL     1      47.118  14.006  21.027  0.00  0.00    +0.024 C 
ENDBRANCH   3   2
ENDBRANCH   4   3
BRANCH  19  20
ATOM     20  C   UNL     1      48.883  19.568  18.511  0.00  0.00    +0.136 C 
BRANCH  20  21
ATOM     21  C   UNL     1      49.809  20.241  19.492  0.00  0.00    -0.067 C 
ATOM     22  C   UNL     1      50.871  20.876  19.061  0.00  0.00    -0.113 C 
ATOM     23  C   UNL     1      51.862  21.442  20.046  0.00  0.00    +0.073 C 
ATOM     24  C   UNL     1      51.101  21.041  17.581  0.00  0.00    +0.076 C 
ENDBRANCH  20  21
ENDBRANCH  19  20
TORSDOF 9
ENDMDL
MODEL 8
REMARK VINA RESULT:      -5.1      2.565      4.090
REMARK  Name = ZINC14586037
REMARK  14 active torsions:
REMARK  status: ('A' for Active; 'I' for Inactive)
REMARK    1  A    between atoms: C1_1  and  C2_2
REMARK    2  A    between atoms: C2_2  and  C3_3
REMARK    3  A    between atoms: C3_3  and  C4_4
REMARK    4  A    between atoms: C9_11  and  O5_27
REMARK    5  A    between atoms: C10_12  and  C18_22
REMARK    6  A    between atoms: C11_13  and  O4_21
REMARK    7  A    between atoms: C12_14  and  C13_15
REMARK    8  A    between atoms: C13_15  and  C14_17
REMARK    9  A    between atoms: C14_17  and  C15_18
REMARK   10  A    between atoms: C15_18  and  C16_19
REMARK   11  A    between atoms: C15_18  and  C17_20
REMARK   12  A    between atoms: C18_22  and  C19_23
REMARK   13  A    between atoms: C20_24  and  C21_25
REMARK   14  A    between atoms: C20_24  and  C22_26
REMARK                            x       y       z     vdW  Elec       q    Type
REMARK                         _______ _______ _______ _____ _____    ______ ____
ROOT
ATOM      4  C   UNL     1      47.002  20.134  19.871  0.00  0.00    +0.041 A 
ATOM      5  C   UNL     1      47.719  20.960  20.677  0.00  0.00    -0.092 A 
ATOM      6  C   UNL     1      49.112  20.782  20.801  0.00  0.00    +0.504 A 
ATOM      7  O   UNL     1      49.746  19.805  20.132  0.00  0.00    -0.242 OA
ATOM      8  C   UNL     1      49.069  18.966  19.321  0.00  0.00    +0.228 A 
ATOM      9  C   UNL     1      49.743  17.948  18.625  0.00  0.00    -0.226 A 
ATOM     16  C   UNL     1      49.021  17.086  17.780  0.00  0.00    +0.237 A 
ATOM     19  C   UNL     1      47.649  17.229  17.641  0.00  0.00    -0.165 A 
ATOM     25  C   UNL     1      46.976  18.227  18.321  0.00  0.00    +0.226 A 
ATOM     28  O   UNL     1      49.748  21.526  21.525  0.00  0.00    -0.452 OA
ATOM     29  C   UNL     1      47.682  19.106  19.167  0.00  0.00    -0.197 A 
ENDROOT
BRANCH   9  10
ATOM     10  C   UNL     1      51.189  17.790  18.773  0.00  0.00    +0.390 C 
ATOM     15  O   UNL     1      51.635  16.860  19.413  0.00  0.00    -0.422 OA
BRANCH  10  11
ATOM     11  C   UNL     1      52.126  18.782  18.132  0.00  0.00    +0.055 C 
BRANCH  11  12
ATOM     12  C   UNL     1      51.406  19.494  16.985  0.00  0.00    -0.018 C 
ATOM     13  C   UNL     1      52.096  19.154  15.662  0.00  0.00    +0.018 C 
ATOM     14  C   UNL     1      51.457  21.006  17.212  0.00  0.00    +0.021 C 
ENDBRANCH  11  12
ENDBRANCH  10  11
ENDBRANCH   9  10
BRANCH  16  17
ATOM     17  O   UNL     1      49.668  16.107  17.103  0.00  0.00    -0.474 OA
ATOM     18  H   UNL     1      50.045  16.395  16.261  0.00  0.00    +0.404 HD
ENDBRANCH  16  17
BRANCH  25  26
ATOM     26  O   UNL     1      45.636  18.362  18.172  0.00  0.00    -0.472 OA
ATOM     27  H   UNL     1      45.182  18.681  18.964  0.00  0.00    +0.403 HD
ENDBRANCH  25  26
BRANCH   4   3
ATOM      3  C   UNL     1      45.513  20.307  19.724  0.00  0.00    +0.084 C 
BRANCH   3   2
ATOM      1  C   UNL     1      43.971  22.267  19.873  0.00  0.00    +0.017 C 
ATOM      2  C   UNL     1      45.212  21.704  19.177  0.00  0.00    +0.024 C 
ENDBRANCH   3   2
ENDBRANCH   4   3
BRANCH  19  20
ATOM     20  C   UNL     1      46.887  16.295  16.737  0.00  0.00    +0.136 C 
BRANCH  20  21
ATOM     21  C   UNL     1      46.389  15.118  17.535  0.00  0.00    -0.067 C 
ATOM     22  C   UNL     1      46.623  13.898  17.120  0.00  0.00    -0.113 C 
ATOM     23  C   UNL     1      46.021  12.724  17.849  0.00  0.00    +0.073 C 
ATOM     24  C   UNL     1      47.495  13.667  15.912  0.00  0.00    +0.076 C 
ENDBRANCH  20  21
ENDBRANCH  19  20
TORSDOF 9
ENDMDL
MODEL 9
REMARK VINA RESULT:      -4.9      2.660      6.229
REMARK  Name = ZINC14586037
REMARK  14 active torsions:
REMARK  status: ('A' for Active; 'I' for Inactive)
REMARK    1  A    between atoms: C1_1  and  C2_2
REMARK    2  A    between atoms: C2_2  and  C3_3
REMARK    3  A    between atoms: C3_3  and  C4_4
REMARK    4  A    between atoms: C9_11  and  O5_27
REMARK    5  A    between atoms: C10_12  and  C18_22
REMARK    6  A    between atoms: C11_13  and  O4_21
REMARK    7  A    between atoms: C12_14  and  C13_15
REMARK    8  A    between atoms: C13_15  and  C14_17
REMARK    9  A    between atoms: C14_17  and  C15_18
REMARK   10  A    between atoms: C15_18  and  C16_19
REMARK   11  A    between atoms: C15_18  and  C17_20
REMARK   12  A    between atoms: C18_22  and  C19_23
REMARK   13  A    between atoms: C20_24  and  C21_25
REMARK   14  A    between atoms: C20_24  and  C22_26
REMARK                            x       y       z     vdW  Elec       q    Type
REMARK                         _______ _______ _______ _____ _____    ______ ____
ROOT
ATOM      4  C   UNL     1      49.423  19.696  18.810  0.00  0.00    +0.041 A 
ATOM      5  C   UNL     1      49.028  20.759  19.559  0.00  0.00    -0.092 A 
ATOM      6  C   UNL     1      47.772  20.739  20.197  0.00  0.00    +0.504 A 
ATOM      7  O   UNL     1      46.953  19.680  20.078  0.00  0.00    -0.242 OA
ATOM      8  C   UNL     1      47.310  18.606  19.344  0.00  0.00    +0.228 A 
ATOM      9  C   UNL     1      46.446  17.503  19.227  0.00  0.00    -0.226 A 
ATOM     16  C   UNL     1      46.837  16.389  18.462  0.00  0.00    +0.237 A 
ATOM     19  C   UNL     1      48.064  16.380  17.816  0.00  0.00    -0.165 A 
ATOM     25  C   UNL     1      48.921  17.459  17.924  0.00  0.00    +0.226 A 
ATOM     28  O   UNL     1      47.425  21.695  20.867  0.00  0.00    -0.452 OA
ATOM     29  C   UNL     1      48.550  18.582  18.691  0.00  0.00    -0.197 A 
ENDROOT
BRANCH   9  10
ATOM     10  C   UNL     1      45.149  17.512  19.903  0.00  0.00    +0.390 C 
ATOM     15  O   UNL     1      44.899  16.677  20.747  0.00  0.00    -0.422 OA
BRANCH  10  11
ATOM     11  C   UNL     1      44.123  18.558  19.550  0.00  0.00    +0.055 C 
BRANCH  11  12
ATOM     12  C   UNL     1      43.221  18.815  20.759  0.00  0.00    -0.018 C 
ATOM     13  C   UNL     1      41.836  19.254  20.278  0.00  0.00    +0.018 C 
ATOM     14  C   UNL     1      43.833  19.918  21.625  0.00  0.00    +0.021 C 
ENDBRANCH  11  12
ENDBRANCH  10  11
ENDBRANCH   9  10
BRANCH  16  17
ATOM     17  O   UNL     1      46.009  15.323  18.352  0.00  0.00    -0.474 OA
ATOM     18  H   UNL     1      45.078  15.531  18.509  0.00  0.00    +0.404 HD
ENDBRANCH  16  17
BRANCH  25  26
ATOM     26  O   UNL     1      50.120  17.437  17.293  0.00  0.00    -0.472 OA
ATOM     27  H   UNL     1      50.873  17.299  17.884  0.00  0.00    +0.403 HD
ENDBRANCH  25  26
BRANCH   4   3
ATOM      3  C   UNL     1      50.761  19.698  18.119  0.00  0.00    +0.084 C 
BRANCH   3   2
ATOM      1  C   UNL     1      51.759  20.980  16.221  0.00  0.00    +0.017 C 
ATOM      2  C   UNL     1      51.052  21.097  17.574  0.00  0.00    +0.024 C 
ENDBRANCH   3   2
ENDBRANCH   4   3
BRANCH  19  20
ATOM     20  C   UNL     1      48.467  15.183  16.995  0.00  0.00    +0.136 C 
BRANCH  20  21
ATOM     21  C   UNL     1      49.160  14.178  17.879  0.00  0.00    -0.067 C 
ATOM     22  C   UNL     1      50.303  13.657  17.509  0.00  0.00    -0.113 C 
ATOM     23  C   UNL     1      50.934  12.562  18.330  0.00  0.00    +0.073 C 
ATOM     24  C   UNL     1      50.988  14.153  16.261  0.00  0.00    +0.076 C 
ENDBRANCH  20  21
ENDBRANCH  19  20
TORSDOF 9
ENDMDL
