MODEL 1
REMARK VINA RESULT:      -7.4      0.000      0.000
REMARK  Name = ZINC38939526
REMARK  10 active torsions:
REMARK  status: ('A' for Active; 'I' for Inactive)
REMARK    1  A    between atoms: C1_1  and  C2_2
REMARK    2  A    between atoms: C2_2  and  C3_3
REMARK    3  A    between atoms: C2_2  and  C4_4
REMARK    4  A    between atoms: C10_10  and  C27_32
REMARK    5  A    between atoms: C12_12  and  O2_15
REMARK    6  A    between atoms: C16_18  and  O3_23
REMARK    7  A    between atoms: C17_20  and  C18_21
REMARK    8  A    between atoms: C17_20  and  C19_22
REMARK    9  A    between atoms: O3_23  and  C20_24
REMARK   10  A    between atoms: C20_24  and  C21_26
REMARK                            x       y       z     vdW  Elec       q    Type
REMARK                         _______ _______ _______ _____ _____    ______ ____
ROOT
ATOM      3  C   UNL     1      46.673  12.654  16.974  0.00  0.00    -0.193 C 
ATOM      4  C   UNL     1      45.959  12.776  18.121  0.00  0.00    +0.109 C 
ATOM      5  C   UNL     1      45.858  14.035  18.761  0.00  0.00    -0.111 C 
ATOM      6  C   UNL     1      45.114  14.173  19.932  0.00  0.00    +0.145 C 
ATOM      7  C   UNL     1      44.953  15.400  20.588  0.00  0.00    -0.036 C 
ATOM      8  C   UNL     1      45.536  16.522  20.153  0.00  0.00    -0.016 C 
ATOM      9  C   UNL     1      46.425  16.475  18.927  0.00  0.00    +0.010 C 
ATOM     10  C   UNL     1      47.834  16.899  19.344  0.00  0.00    +0.061 C 
ATOM     11  C   UNL     1      45.868  17.512  17.951  0.00  0.00    +0.061 C 
ATOM     12  C   UNL     1      45.835  18.882  18.629  0.00  0.00    +0.016 C 
ATOM     13  C   UNL     1      44.856  18.865  19.805  0.00  0.00    +0.191 C 
ATOM     23  C   UNL     1      45.328  17.844  20.848  0.00  0.00    -0.021 C 
ATOM     24  C   UNL     1      44.267  17.692  21.939  0.00  0.00    +0.051 C 
ATOM     25  C   UNL     1      46.646  18.312  21.470  0.00  0.00    +0.061 C 
ATOM     26  C   UNL     1      46.525  15.155  18.202  0.00  0.00    -0.052 C 
ATOM     27  C   UNL     1      47.234  15.034  17.058  0.00  0.00    +0.019 C 
ATOM     30  C   UNL     1      47.323  13.772  16.417  0.00  0.00    +0.388 C 
ATOM     31  O   UNL     1      47.961  13.656  15.380  0.00  0.00    -0.471 OA
ENDROOT
BRANCH   3   2
ATOM      1  C   UNL     1      47.321  10.280  17.283  0.00  0.00    +0.027 C 
ATOM      2  C   UNL     1      46.775  11.312  16.295  0.00  0.00    +0.038 C 
ATOM     32  C   UNL     1      45.388  10.876  15.818  0.00  0.00    +0.027 C 
ENDBRANCH   3   2
BRANCH  27  28
ATOM     28  O   UNL     1      47.863  16.116  16.524  0.00  0.00    -0.460 OA
ATOM     29  H   UNL     1      48.821  16.117  16.651  0.00  0.00    +0.400 HD
ENDBRANCH  27  28
BRANCH  13  14
ATOM     14  O   UNL     1      44.803  20.163  20.399  0.00  0.00    -0.335 OA
BRANCH  14  15
ATOM     15  C   UNL     1      44.228  21.144  19.677  0.00  0.00    +0.508 C 
ATOM     22  O   UNL     1      44.873  22.126  19.365  0.00  0.00    -0.501 OA
BRANCH  15  16
ATOM     16  C   UNL     1      42.815  21.026  19.263  0.00  0.00    -0.128 A 
ATOM     17  C   UNL     1      42.188  19.779  19.256  0.00  0.00    +0.077 A 
ATOM     18  C   UNL     1      40.868  19.676  18.868  0.00  0.00    -0.001 A 
ATOM     19  C   UNL     1      40.166  20.806  18.487  0.00  0.00    +0.049 A 
ATOM     20  C   UNL     1      40.781  22.046  18.491  0.00  0.00    +0.003 A 
ATOM     21  C   UNL     1      42.098  22.163  18.883  0.00  0.00    +0.082 A 
ENDBRANCH  15  16
ENDBRANCH  14  15
ENDBRANCH  13  14
TORSDOF 5
ENDMDL
MODEL 2
REMARK VINA RESULT:      -7.4      4.127      8.071
REMARK  Name = ZINC38939526
REMARK  10 active torsions:
REMARK  status: ('A' for Active; 'I' for Inactive)
REMARK    1  A    between atoms: C1_1  and  C2_2
REMARK    2  A    between atoms: C2_2  and  C3_3
REMARK    3  A    between atoms: C2_2  and  C4_4
REMARK    4  A    between atoms: C10_10  and  C27_32
REMARK    5  A    between atoms: C12_12  and  O2_15
REMARK    6  A    between atoms: C16_18  and  O3_23
REMARK    7  A    between atoms: C17_20  and  C18_21
REMARK    8  A    between atoms: C17_20  and  C19_22
REMARK    9  A    between atoms: O3_23  and  C20_24
REMARK   10  A    between atoms: C20_24  and  C21_26
REMARK                            x       y       z     vdW  Elec       q    Type
REMARK                         _______ _______ _______ _____ _____    ______ ____
ROOT
ATOM      3  C   UNL     1      41.963  20.133  19.495  0.00  0.00    -0.193 C 
ATOM      4  C   UNL     1      42.976  20.848  18.945  0.00  0.00    +0.109 C 
ATOM      5  C   UNL     1      44.308  20.629  19.369  0.00  0.00    -0.111 C 
ATOM      6  C   UNL     1      45.357  21.349  18.797  0.00  0.00    +0.145 C 
ATOM      7  C   UNL     1      46.696  21.151  19.155  0.00  0.00    -0.036 C 
ATOM      8  C   UNL     1      47.059  20.278  20.101  0.00  0.00    -0.016 C 
ATOM      9  C   UNL     1      45.996  19.489  20.837  0.00  0.00    +0.010 C 
ATOM     10  C   UNL     1      46.076  19.853  22.321  0.00  0.00    +0.061 C 
ATOM     11  C   UNL     1      46.360  18.014  20.671  0.00  0.00    +0.061 C 
ATOM     12  C   UNL     1      47.774  17.777  21.203  0.00  0.00    +0.016 C 
ATOM     13  C   UNL     1      48.791  18.543  20.356  0.00  0.00    +0.191 C 
ATOM     23  C   UNL     1      48.507  20.048  20.453  0.00  0.00    -0.021 C 
ATOM     24  C   UNL     1      49.404  20.807  19.475  0.00  0.00    +0.051 C 
ATOM     25  C   UNL     1      48.773  20.533  21.881  0.00  0.00    +0.061 C 
ATOM     26  C   UNL     1      44.568  19.674  20.385  0.00  0.00    -0.052 C 
ATOM     27  C   UNL     1      43.559  18.959  20.932  0.00  0.00    +0.019 C 
ATOM     30  C   UNL     1      42.228  19.176  20.495  0.00  0.00    +0.388 C 
ATOM     31  O   UNL     1      41.311  18.531  20.984  0.00  0.00    -0.471 OA
ENDROOT
BRANCH   3   2
ATOM      1  C   UNL     1      40.367  21.838  18.662  0.00  0.00    +0.027 C 
ATOM      2  C   UNL     1      40.546  20.367  19.037  0.00  0.00    +0.038 C 
ATOM     32  C   UNL     1      40.254  19.490  17.818  0.00  0.00    +0.027 C 
ENDBRANCH   3   2
BRANCH  27  28
ATOM     28  O   UNL     1      43.819  18.038  21.899  0.00  0.00    -0.460 OA
ATOM     29  H   UNL     1      44.736  18.036  22.204  0.00  0.00    +0.400 HD
ENDBRANCH  27  28
BRANCH  13  14
ATOM     14  O   UNL     1      50.110  18.276  20.837  0.00  0.00    -0.335 OA
BRANCH  14  15
ATOM     15  C   UNL     1      50.939  17.610  20.010  0.00  0.00    +0.508 C 
ATOM     22  O   UNL     1      51.353  16.511  20.322  0.00  0.00    -0.501 OA
BRANCH  15  16
ATOM     16  C   UNL     1      51.345  18.216  18.725  0.00  0.00    -0.128 A 
ATOM     17  C   UNL     1      52.280  19.252  18.703  0.00  0.00    +0.077 A 
ATOM     18  C   UNL     1      52.653  19.814  17.500  0.00  0.00    -0.001 A 
ATOM     19  C   UNL     1      52.104  19.352  16.317  0.00  0.00    +0.049 A 
ATOM     20  C   UNL     1      51.175  18.326  16.332  0.00  0.00    +0.003 A 
ATOM     21  C   UNL     1      50.798  17.751  17.527  0.00  0.00    +0.082 A 
ENDBRANCH  15  16
ENDBRANCH  14  15
ENDBRANCH  13  14
TORSDOF 5
ENDMDL
MODEL 3
REMARK VINA RESULT:      -7.0      2.079      8.008
REMARK  Name = ZINC38939526
REMARK  10 active torsions:
REMARK  status: ('A' for Active; 'I' for Inactive)
REMARK    1  A    between atoms: C1_1  and  C2_2
REMARK    2  A    between atoms: C2_2  and  C3_3
REMARK    3  A    between atoms: C2_2  and  C4_4
REMARK    4  A    between atoms: C10_10  and  C27_32
REMARK    5  A    between atoms: C12_12  and  O2_15
REMARK    6  A    between atoms: C16_18  and  O3_23
REMARK    7  A    between atoms: C17_20  and  C18_21
REMARK    8  A    between atoms: C17_20  and  C19_22
REMARK    9  A    between atoms: O3_23  and  C20_24
REMARK   10  A    between atoms: C20_24  and  C21_26
REMARK                            x       y       z     vdW  Elec       q    Type
REMARK                         _______ _______ _______ _____ _____    ______ ____
ROOT
ATOM      3  C   UNL     1      41.980  19.992  19.510  0.00  0.00    -0.193 C 
ATOM      4  C   UNL     1      43.115  20.024  18.769  0.00  0.00    +0.109 C 
ATOM      5  C   UNL     1      44.203  19.183  19.104  0.00  0.00    -0.111 C 
ATOM      6  C   UNL     1      45.369  19.199  18.337  0.00  0.00    +0.145 C 
ATOM      7  C   UNL     1      46.462  18.365  18.603  0.00  0.00    -0.036 C 
ATOM      8  C   UNL     1      46.477  17.518  19.638  0.00  0.00    -0.016 C 
ATOM      9  C   UNL     1      45.291  17.466  20.578  0.00  0.00    +0.010 C 
ATOM     10  C   UNL     1      45.773  17.864  21.974  0.00  0.00    +0.061 C 
ATOM     11  C   UNL     1      44.830  16.009  20.613  0.00  0.00    +0.061 C 
ATOM     12  C   UNL     1      45.995  15.119  21.049  0.00  0.00    +0.016 C 
ATOM     13  C   UNL     1      47.114  15.166  20.008  0.00  0.00    +0.191 C 
ATOM     23  C   UNL     1      47.647  16.601  19.894  0.00  0.00    -0.021 C 
ATOM     24  C   UNL     1      48.639  16.693  18.734  0.00  0.00    +0.051 C 
ATOM     25  C   UNL     1      48.338  17.000  21.199  0.00  0.00    +0.061 C 
ATOM     26  C   UNL     1      44.101  18.326  20.229  0.00  0.00    -0.052 C 
ATOM     27  C   UNL     1      42.968  18.292  20.967  0.00  0.00    +0.019 C 
ATOM     30  C   UNL     1      41.879  19.130  20.620  0.00  0.00    +0.388 C 
ATOM     31  O   UNL     1      40.850  19.102  21.282  0.00  0.00    -0.471 OA
ENDROOT
BRANCH   3   2
ATOM      1  C   UNL     1      41.355  22.237  18.662  0.00  0.00    +0.027 C 
ATOM      2  C   UNL     1      40.823  20.888  19.148  0.00  0.00    +0.038 C 
ATOM     32  C   UNL     1      40.002  20.233  18.035  0.00  0.00    +0.027 C 
ENDBRANCH   3   2
BRANCH  27  28
ATOM     28  O   UNL     1      42.875  17.460  22.039  0.00  0.00    -0.460 OA
ATOM     29  H   UNL     1      42.836  16.522  21.807  0.00  0.00    +0.400 HD
ENDBRANCH  27  28
BRANCH  13  14
ATOM     14  O   UNL     1      48.174  14.295  20.407  0.00  0.00    -0.335 OA
BRANCH  14  15
ATOM     15  C   UNL     1      48.169  13.050  19.893  0.00  0.00    +0.508 C 
ATOM     22  O   UNL     1      48.386  12.096  20.613  0.00  0.00    -0.501 OA
BRANCH  15  16
ATOM     16  C   UNL     1      47.901  12.845  18.455  0.00  0.00    -0.128 A 
ATOM     17  C   UNL     1      46.679  12.313  18.039  0.00  0.00    +0.077 A 
ATOM     18  C   UNL     1      46.436  12.123  16.694  0.00  0.00    -0.001 A 
ATOM     19  C   UNL     1      47.399  12.460  15.759  0.00  0.00    +0.049 A 
ATOM     20  C   UNL     1      48.612  12.987  16.165  0.00  0.00    +0.003 A 
ATOM     21  C   UNL     1      48.866  13.188  17.506  0.00  0.00    +0.082 A 
ENDBRANCH  15  16
ENDBRANCH  14  15
ENDBRANCH  13  14
TORSDOF 5
ENDMDL
MODEL 4
REMARK VINA RESULT:      -6.8      1.983      8.241
REMARK  Name = ZINC38939526
REMARK  10 active torsions:
REMARK  status: ('A' for Active; 'I' for Inactive)
REMARK    1  A    between atoms: C1_1  and  C2_2
REMARK    2  A    between atoms: C2_2  and  C3_3
REMARK    3  A    between atoms: C2_2  and  C4_4
REMARK    4  A    between atoms: C10_10  and  C27_32
REMARK    5  A    between atoms: C12_12  and  O2_15
REMARK    6  A    between atoms: C16_18  and  O3_23
REMARK    7  A    between atoms: C17_20  and  C18_21
REMARK    8  A    between atoms: C17_20  and  C19_22
REMARK    9  A    between atoms: O3_23  and  C20_24
REMARK   10  A    between atoms: C20_24  and  C21_26
REMARK                            x       y       z     vdW  Elec       q    Type
REMARK                         _______ _______ _______ _____ _____    ______ ____
ROOT
ATOM      3  C   UNL     1      42.659  19.900  19.515  0.00  0.00    -0.193 C 
ATOM      4  C   UNL     1      43.718  19.961  18.669  0.00  0.00    +0.109 C 
ATOM      5  C   UNL     1      44.774  19.027  18.790  0.00  0.00    -0.111 C 
ATOM      6  C   UNL     1      45.859  19.072  17.914  0.00  0.00    +0.145 C 
ATOM      7  C   UNL     1      46.915  18.154  17.967  0.00  0.00    -0.036 C 
ATOM      8  C   UNL     1      46.973  17.187  18.889  0.00  0.00    -0.016 C 
ATOM      9  C   UNL     1      45.881  17.085  19.935  0.00  0.00    +0.010 C 
ATOM     10  C   UNL     1      46.520  17.282  21.310  0.00  0.00    +0.061 C 
ATOM     11  C   UNL     1      45.330  15.662  19.846  0.00  0.00    +0.061 C 
ATOM     12  C   UNL     1      46.470  14.663  20.054  0.00  0.00    +0.016 C 
ATOM     13  C   UNL     1      47.484  14.776  18.915  0.00  0.00    +0.191 C 
ATOM     23  C   UNL     1      48.098  16.183  18.915  0.00  0.00    -0.021 C 
ATOM     24  C   UNL     1      48.978  16.362  17.677  0.00  0.00    +0.051 C 
ATOM     25  C   UNL     1      48.936  16.381  20.180  0.00  0.00    +0.061 C 
ATOM     26  C   UNL     1      44.723  18.045  19.812  0.00  0.00    -0.052 C 
ATOM     27  C   UNL     1      43.666  17.983  20.654  0.00  0.00    +0.019 C 
ATOM     30  C   UNL     1      42.607  18.915  20.521  0.00  0.00    +0.388 C 
ATOM     31  O   UNL     1      41.647  18.863  21.278  0.00  0.00    -0.471 OA
ENDROOT
BRANCH   3   2
ATOM      1  C   UNL     1      42.109  22.270  19.036  0.00  0.00    +0.027 C 
ATOM      2  C   UNL     1      41.535  20.895  19.380  0.00  0.00    +0.038 C 
ATOM     32  C   UNL     1      40.588  20.445  18.266  0.00  0.00    +0.027 C 
ENDBRANCH   3   2
BRANCH  27  28
ATOM     28  O   UNL     1      43.621  17.032  21.626  0.00  0.00    -0.460 OA
ATOM     29  H   UNL     1      43.442  16.140  21.296  0.00  0.00    +0.400 HD
ENDBRANCH  27  28
BRANCH  13  14
ATOM     14  O   UNL     1      48.517  13.807  19.099  0.00  0.00    -0.335 OA
BRANCH  14  15
ATOM     15  C   UNL     1      48.413  12.661  18.398  0.00  0.00    +0.508 C 
ATOM     22  O   UNL     1      48.157  11.620  18.971  0.00  0.00    -0.501 OA
BRANCH  15  16
ATOM     16  C   UNL     1      48.610  12.670  16.934  0.00  0.00    -0.128 A 
ATOM     17  C   UNL     1      49.852  13.011  16.396  0.00  0.00    +0.077 A 
ATOM     18  C   UNL     1      50.028  13.018  15.027  0.00  0.00    -0.001 A 
ATOM     19  C   UNL     1      48.978  12.689  14.190  0.00  0.00    +0.049 A 
ATOM     20  C   UNL     1      47.743  12.351  14.716  0.00  0.00    +0.003 A 
ATOM     21  C   UNL     1      47.555  12.334  16.082  0.00  0.00    +0.082 A 
ENDBRANCH  15  16
ENDBRANCH  14  15
ENDBRANCH  13  14
TORSDOF 5
ENDMDL
MODEL 5
REMARK VINA RESULT:      -6.6      2.261      3.469
REMARK  Name = ZINC38939526
REMARK  10 active torsions:
REMARK  status: ('A' for Active; 'I' for Inactive)
REMARK    1  A    between atoms: C1_1  and  C2_2
REMARK    2  A    between atoms: C2_2  and  C3_3
REMARK    3  A    between atoms: C2_2  and  C4_4
REMARK    4  A    between atoms: C10_10  and  C27_32
REMARK    5  A    between atoms: C12_12  and  O2_15
REMARK    6  A    between atoms: C16_18  and  O3_23
REMARK    7  A    between atoms: C17_20  and  C18_21
REMARK    8  A    between atoms: C17_20  and  C19_22
REMARK    9  A    between atoms: O3_23  and  C20_24
REMARK   10  A    between atoms: C20_24  and  C21_26
REMARK                            x       y       z     vdW  Elec       q    Type
REMARK                         _______ _______ _______ _____ _____    ______ ____
ROOT
ATOM      3  C   UNL     1      50.183  13.497  16.103  0.00  0.00    -0.193 C 
ATOM      4  C   UNL     1      50.693  14.372  17.005  0.00  0.00    +0.109 C 
ATOM      5  C   UNL     1      49.850  15.328  17.619  0.00  0.00    -0.111 C 
ATOM      6  C   UNL     1      50.363  16.221  18.560  0.00  0.00    +0.145 C 
ATOM      7  C   UNL     1      49.569  17.165  19.222  0.00  0.00    -0.036 C 
ATOM      8  C   UNL     1      48.262  17.299  18.970  0.00  0.00    -0.016 C 
ATOM      9  C   UNL     1      47.611  16.426  17.916  0.00  0.00    +0.010 C 
ATOM     10  C   UNL     1      47.063  17.337  16.816  0.00  0.00    +0.061 C 
ATOM     11  C   UNL     1      46.440  15.723  18.602  0.00  0.00    +0.061 C 
ATOM     12  C   UNL     1      45.496  16.770  19.197  0.00  0.00    +0.016 C 
ATOM     13  C   UNL     1      46.205  17.550  20.304  0.00  0.00    +0.191 C 
ATOM     23  C   UNL     1      47.410  18.296  19.714  0.00  0.00    -0.021 C 
ATOM     24  C   UNL     1      48.225  18.933  20.840  0.00  0.00    +0.051 C 
ATOM     25  C   UNL     1      46.924  19.380  18.750  0.00  0.00    +0.061 C 
ATOM     26  C   UNL     1      48.476  15.374  17.267  0.00  0.00    -0.052 C 
ATOM     27  C   UNL     1      47.967  14.500  16.370  0.00  0.00    +0.019 C 
ATOM     30  C   UNL     1      48.815  13.539  15.766  0.00  0.00    +0.388 C 
ATOM     31  O   UNL     1      48.360  12.744  14.955  0.00  0.00    -0.471 OA
ENDROOT
BRANCH   3   2
ATOM      1  C   UNL     1      51.918  13.156  14.364  0.00  0.00    +0.027 C 
ATOM      2  C   UNL     1      51.084  12.479  15.454  0.00  0.00    +0.038 C 
ATOM     32  C   UNL     1      52.016  11.878  16.509  0.00  0.00    +0.027 C 
ENDBRANCH   3   2
BRANCH  27  28
ATOM     28  O   UNL     1      46.646  14.545  16.046  0.00  0.00    -0.460 OA
ATOM     29  H   UNL     1      46.358  15.393  15.681  0.00  0.00    +0.400 HD
ENDBRANCH  27  28
BRANCH  13  14
ATOM     14  O   UNL     1      45.298  18.492  20.880  0.00  0.00    -0.335 OA
BRANCH  14  15
ATOM     15  C   UNL     1      44.016  18.102  21.014  0.00  0.00    +0.508 C 
ATOM     22  O   UNL     1      43.751  17.087  21.626  0.00  0.00    -0.501 OA
BRANCH  15  16
ATOM     16  C   UNL     1      42.932  18.910  20.416  0.00  0.00    -0.128 A 
ATOM     17  C   UNL     1      41.649  18.877  20.965  0.00  0.00    +0.077 A 
ATOM     18  C   UNL     1      40.642  19.632  20.401  0.00  0.00    -0.001 A 
ATOM     19  C   UNL     1      40.902  20.421  19.294  0.00  0.00    +0.049 A 
ATOM     20  C   UNL     1      42.171  20.457  18.744  0.00  0.00    +0.003 A 
ATOM     21  C   UNL     1      43.188  19.712  19.302  0.00  0.00    +0.082 A 
ENDBRANCH  15  16
ENDBRANCH  14  15
ENDBRANCH  13  14
TORSDOF 5
ENDMDL
MODEL 6
REMARK VINA RESULT:      -6.5      3.624      4.434
REMARK  Name = ZINC38939526
REMARK  10 active torsions:
REMARK  status: ('A' for Active; 'I' for Inactive)
REMARK    1  A    between atoms: C1_1  and  C2_2
REMARK    2  A    between atoms: C2_2  and  C3_3
REMARK    3  A    between atoms: C2_2  and  C4_4
REMARK    4  A    between atoms: C10_10  and  C27_32
REMARK    5  A    between atoms: C12_12  and  O2_15
REMARK    6  A    between atoms: C16_18  and  O3_23
REMARK    7  A    between atoms: C17_20  and  C18_21
REMARK    8  A    between atoms: C17_20  and  C19_22
REMARK    9  A    between atoms: O3_23  and  C20_24
REMARK   10  A    between atoms: C20_24  and  C21_26
REMARK                            x       y       z     vdW  Elec       q    Type
REMARK                         _______ _______ _______ _____ _____    ______ ____
ROOT
ATOM      3  C   UNL     1      50.985  17.380  18.491  0.00  0.00    -0.193 C 
ATOM      4  C   UNL     1      49.971  16.833  19.206  0.00  0.00    +0.109 C 
ATOM      5  C   UNL     1      48.933  17.656  19.705  0.00  0.00    -0.111 C 
ATOM      6  C   UNL     1      47.878  17.100  20.428  0.00  0.00    +0.145 C 
ATOM      7  C   UNL     1      46.809  17.860  20.916  0.00  0.00    -0.036 C 
ATOM      8  C   UNL     1      46.744  19.186  20.751  0.00  0.00    -0.016 C 
ATOM      9  C   UNL     1      47.871  19.906  20.039  0.00  0.00    +0.010 C 
ATOM     10  C   UNL     1      48.495  20.900  21.020  0.00  0.00    +0.061 C 
ATOM     11  C   UNL     1      47.227  20.685  18.892  0.00  0.00    +0.061 C 
ATOM     12  C   UNL     1      46.159  21.626  19.452  0.00  0.00    +0.016 C 
ATOM     13  C   UNL     1      45.023  20.818  20.081  0.00  0.00    +0.191 C 
ATOM     23  C   UNL     1      45.570  19.990  21.252  0.00  0.00    -0.021 C 
ATOM     24  C   UNL     1      44.484  19.049  21.772  0.00  0.00    +0.051 C 
ATOM     25  C   UNL     1      46.027  20.924  22.375  0.00  0.00    +0.061 C 
ATOM     26  C   UNL     1      48.976  19.053  19.466  0.00  0.00    -0.052 C 
ATOM     27  C   UNL     1      49.985  19.598  18.750  0.00  0.00    +0.019 C 
ATOM     30  C   UNL     1      51.017  18.767  18.246  0.00  0.00    +0.388 C 
ATOM     31  O   UNL     1      51.932  19.254  17.595  0.00  0.00    -0.471 OA
ENDROOT
BRANCH   3   2
ATOM      1  C   UNL     1      53.010  16.087  19.108  0.00  0.00    +0.027 C 
ATOM      2  C   UNL     1      52.087  16.499  17.960  0.00  0.00    +0.038 C 
ATOM     32  C   UNL     1      51.477  15.250  17.322  0.00  0.00    +0.027 C 
ENDBRANCH   3   2
BRANCH  27  28
ATOM     28  O   UNL     1      50.013  20.939  18.518  0.00  0.00    -0.460 OA
ATOM     29  H   UNL     1      50.052  21.477  19.320  0.00  0.00    +0.400 HD
ENDBRANCH  27  28
BRANCH  13  14
ATOM     14  O   UNL     1      44.013  21.708  20.559  0.00  0.00    -0.335 OA
BRANCH  14  15
ATOM     15  C   UNL     1      43.198  22.259  19.639  0.00  0.00    +0.508 C 
ATOM     22  O   UNL     1      43.373  23.408  19.284  0.00  0.00    -0.501 OA
BRANCH  15  16
ATOM     16  C   UNL     1      42.092  21.467  19.062  0.00  0.00    -0.128 A 
ATOM     17  C   UNL     1      40.891  22.089  18.716  0.00  0.00    +0.077 A 
ATOM     18  C   UNL     1      39.862  21.344  18.178  0.00  0.00    -0.001 A 
ATOM     19  C   UNL     1      40.019  19.983  17.982  0.00  0.00    +0.049 A 
ATOM     20  C   UNL     1      41.207  19.360  18.324  0.00  0.00    +0.003 A 
ATOM     21  C   UNL     1      42.245  20.095  18.856  0.00  0.00    +0.082 A 
ENDBRANCH  15  16
ENDBRANCH  14  15
ENDBRANCH  13  14
TORSDOF 5
ENDMDL
MODEL 7
REMARK VINA RESULT:      -6.4      1.743      2.373
REMARK  Name = ZINC38939526
REMARK  10 active torsions:
REMARK  status: ('A' for Active; 'I' for Inactive)
REMARK    1  A    between atoms: C1_1  and  C2_2
REMARK    2  A    between atoms: C2_2  and  C3_3
REMARK    3  A    between atoms: C2_2  and  C4_4
REMARK    4  A    between atoms: C10_10  and  C27_32
REMARK    5  A    between atoms: C12_12  and  O2_15
REMARK    6  A    between atoms: C16_18  and  O3_23
REMARK    7  A    between atoms: C17_20  and  C18_21
REMARK    8  A    between atoms: C17_20  and  C19_22
REMARK    9  A    between atoms: O3_23  and  C20_24
REMARK   10  A    between atoms: C20_24  and  C21_26
REMARK                            x       y       z     vdW  Elec       q    Type
REMARK                         _______ _______ _______ _____ _____    ______ ____
ROOT
ATOM      3  C   UNL     1      48.515  12.624  17.292  0.00  0.00    -0.193 C 
ATOM      4  C   UNL     1      48.931  13.206  18.444  0.00  0.00    +0.109 C 
ATOM      5  C   UNL     1      48.587  14.551  18.721  0.00  0.00    -0.111 C 
ATOM      6  C   UNL     1      48.997  15.154  19.910  0.00  0.00    +0.145 C 
ATOM      7  C   UNL     1      48.659  16.469  20.250  0.00  0.00    -0.036 C 
ATOM      8  C   UNL     1      47.945  17.254  19.436  0.00  0.00    -0.016 C 
ATOM      9  C   UNL     1      47.503  16.725  18.086  0.00  0.00    +0.010 C 
ATOM     10  C   UNL     1      48.138  17.599  17.003  0.00  0.00    +0.061 C 
ATOM     11  C   UNL     1      45.985  16.897  18.031  0.00  0.00    +0.061 C 
ATOM     12  C   UNL     1      45.632  18.368  18.257  0.00  0.00    +0.016 C 
ATOM     13  C   UNL     1      46.037  18.797  19.667  0.00  0.00    +0.191 C 
ATOM     23  C   UNL     1      47.557  18.657  19.828  0.00  0.00    -0.021 C 
ATOM     24  C   UNL     1      47.949  18.914  21.283  0.00  0.00    +0.051 C 
ATOM     25  C   UNL     1      48.267  19.661  18.916  0.00  0.00    +0.061 C 
ATOM     26  C   UNL     1      47.825  15.284  17.776  0.00  0.00    -0.052 C 
ATOM     27  C   UNL     1      47.408  14.702  16.628  0.00  0.00    +0.019 C 
ATOM     30  C   UNL     1      47.747  13.352  16.362  0.00  0.00    +0.388 C 
ATOM     31  O   UNL     1      47.371  12.819  15.327  0.00  0.00    -0.471 OA
ENDROOT
BRANCH   3   2
ATOM      1  C   UNL     1      50.399  11.023  17.092  0.00  0.00    +0.027 C 
ATOM      2  C   UNL     1      48.881  11.190  17.003  0.00  0.00    +0.038 C 
ATOM     32  C   UNL     1      48.207  10.277  18.029  0.00  0.00    +0.027 C 
ENDBRANCH   3   2
BRANCH  27  28
ATOM     28  O   UNL     1      46.669  15.410  15.732  0.00  0.00    -0.460 OA
ATOM     29  H   UNL     1      46.852  15.189  14.808  0.00  0.00    +0.400 HD
ENDBRANCH  27  28
BRANCH  13  14
ATOM     14  O   UNL     1      45.660  20.159  19.879  0.00  0.00    -0.335 OA
BRANCH  14  15
ATOM     15  C   UNL     1      44.574  20.381  20.644  0.00  0.00    +0.508 C 
ATOM     22  O   UNL     1      44.693  20.497  21.848  0.00  0.00    -0.501 OA
BRANCH  15  16
ATOM     16  C   UNL     1      43.238  20.481  20.020  0.00  0.00    -0.128 A 
ATOM     17  C   UNL     1      42.833  21.675  19.420  0.00  0.00    +0.077 A 
ATOM     18  C   UNL     1      41.584  21.762  18.840  0.00  0.00    -0.001 A 
ATOM     19  C   UNL     1      40.735  20.670  18.852  0.00  0.00    +0.049 A 
ATOM     20  C   UNL     1      41.130  19.484  19.446  0.00  0.00    +0.003 A 
ATOM     21  C   UNL     1      42.378  19.381  20.024  0.00  0.00    +0.082 A 
ENDBRANCH  15  16
ENDBRANCH  14  15
ENDBRANCH  13  14
TORSDOF 5
ENDMDL
MODEL 8
REMARK VINA RESULT:      -6.3      3.335      8.154
REMARK  Name = ZINC38939526
REMARK  10 active torsions:
REMARK  status: ('A' for Active; 'I' for Inactive)
REMARK    1  A    between atoms: C1_1  and  C2_2
REMARK    2  A    between atoms: C2_2  and  C3_3
REMARK    3  A    between atoms: C2_2  and  C4_4
REMARK    4  A    between atoms: C10_10  and  C27_32
REMARK    5  A    between atoms: C12_12  and  O2_15
REMARK    6  A    between atoms: C16_18  and  O3_23
REMARK    7  A    between atoms: C17_20  and  C18_21
REMARK    8  A    between atoms: C17_20  and  C19_22
REMARK    9  A    between atoms: O3_23  and  C20_24
REMARK   10  A    between atoms: C20_24  and  C21_26
REMARK                            x       y       z     vdW  Elec       q    Type
REMARK                         _______ _______ _______ _____ _____    ______ ____
ROOT
ATOM      3  C   UNL     1      42.470  20.148  19.507  0.00  0.00    -0.193 C 
ATOM      4  C   UNL     1      43.469  20.857  18.924  0.00  0.00    +0.109 C 
ATOM      5  C   UNL     1      44.818  20.583  19.256  0.00  0.00    -0.111 C 
ATOM      6  C   UNL     1      45.852  21.296  18.651  0.00  0.00    +0.145 C 
ATOM      7  C   UNL     1      47.203  21.044  18.917  0.00  0.00    -0.036 C 
ATOM      8  C   UNL     1      47.596  20.122  19.802  0.00  0.00    -0.016 C 
ATOM      9  C   UNL     1      46.555  19.334  20.571  0.00  0.00    +0.010 C 
ATOM     10  C   UNL     1      46.737  19.632  22.060  0.00  0.00    +0.061 C 
ATOM     11  C   UNL     1      46.862  17.857  20.323  0.00  0.00    +0.061 C 
ATOM     12  C   UNL     1      48.298  17.557  20.756  0.00  0.00    +0.016 C 
ATOM     13  C   UNL     1      49.286  18.330  19.880  0.00  0.00    +0.191 C 
ATOM     23  C   UNL     1      49.055  19.837  20.055  0.00  0.00    -0.021 C 
ATOM     24  C   UNL     1      49.914  20.610  19.054  0.00  0.00    +0.051 C 
ATOM     25  C   UNL     1      49.422  20.253  21.481  0.00  0.00    +0.061 C 
ATOM     26  C   UNL     1      45.109  19.579  20.215  0.00  0.00    -0.052 C 
ATOM     27  C   UNL     1      44.113  18.871  20.794  0.00  0.00    +0.019 C 
ATOM     30  C   UNL     1      42.766  19.143  20.449  0.00  0.00    +0.388 C 
ATOM     31  O   UNL     1      41.860  18.505  20.968  0.00  0.00    -0.471 OA
ENDROOT
BRANCH   3   2
ATOM      1  C   UNL     1      40.904  21.907  18.729  0.00  0.00    +0.027 C 
ATOM      2  C   UNL     1      41.036  20.442  19.148  0.00  0.00    +0.038 C 
ATOM     32  C   UNL     1      40.607  19.540  17.989  0.00  0.00    +0.027 C 
ENDBRANCH   3   2
BRANCH  27  28
ATOM     28  O   UNL     1      44.402  17.902  21.705  0.00  0.00    -0.460 OA
ATOM     29  H   UNL     1      43.720  17.223  21.788  0.00  0.00    +0.400 HD
ENDBRANCH  27  28
BRANCH  13  14
ATOM     14  O   UNL     1      50.622  18.005  20.267  0.00  0.00    -0.335 OA
BRANCH  14  15
ATOM     15  C   UNL     1      51.424  17.486  19.318  0.00  0.00    +0.508 C 
ATOM     22  O   UNL     1      52.376  18.123  18.912  0.00  0.00    -0.501 OA
BRANCH  15  16
ATOM     16  C   UNL     1      51.147  16.142  18.769  0.00  0.00    -0.128 A 
ATOM     17  C   UNL     1      50.898  15.071  19.630  0.00  0.00    +0.077 A 
ATOM     18  C   UNL     1      50.640  13.819  19.111  0.00  0.00    -0.001 A 
ATOM     19  C   UNL     1      50.629  13.624  17.742  0.00  0.00    +0.049 A 
ATOM     20  C   UNL     1      50.876  14.680  16.883  0.00  0.00    +0.003 A 
ATOM     21  C   UNL     1      51.129  15.938  17.388  0.00  0.00    +0.082 A 
ENDBRANCH  15  16
ENDBRANCH  14  15
ENDBRANCH  13  14
TORSDOF 5
ENDMDL
MODEL 9
REMARK VINA RESULT:      -6.1      1.965      2.475
REMARK  Name = ZINC38939526
REMARK  10 active torsions:
REMARK  status: ('A' for Active; 'I' for Inactive)
REMARK    1  A    between atoms: C1_1  and  C2_2
REMARK    2  A    between atoms: C2_2  and  C3_3
REMARK    3  A    between atoms: C2_2  and  C4_4
REMARK    4  A    between atoms: C10_10  and  C27_32
REMARK    5  A    between atoms: C12_12  and  O2_15
REMARK    6  A    between atoms: C16_18  and  O3_23
REMARK    7  A    between atoms: C17_20  and  C18_21
REMARK    8  A    between atoms: C17_20  and  C19_22
REMARK    9  A    between atoms: O3_23  and  C20_24
REMARK   10  A    between atoms: C20_24  and  C21_26
REMARK                            x       y       z     vdW  Elec       q    Type
REMARK                         _______ _______ _______ _____ _____    ______ ____
ROOT
ATOM      3  C   UNL     1      48.530  13.286  18.964  0.00  0.00    -0.193 C 
ATOM      4  C   UNL     1      48.688  14.087  20.047  0.00  0.00    +0.109 C 
ATOM      5  C   UNL     1      48.338  15.456  19.972  0.00  0.00    -0.111 C 
ATOM      6  C   UNL     1      48.483  16.284  21.086  0.00  0.00    +0.145 C 
ATOM      7  C   UNL     1      48.122  17.636  21.077  0.00  0.00    -0.036 C 
ATOM      8  C   UNL     1      47.643  18.239  19.984  0.00  0.00    -0.016 C 
ATOM      9  C   UNL     1      47.507  17.453  18.696  0.00  0.00    +0.010 C 
ATOM     10  C   UNL     1      48.405  18.105  17.643  0.00  0.00    +0.061 C 
ATOM     11  C   UNL     1      46.050  17.594  18.256  0.00  0.00    +0.061 C 
ATOM     12  C   UNL     1      45.706  19.076  18.106  0.00  0.00    +0.016 C 
ATOM     13  C   UNL     1      45.789  19.777  19.462  0.00  0.00    +0.191 C 
ATOM     23  C   UNL     1      47.225  19.688  19.997  0.00  0.00    -0.021 C 
ATOM     24  C   UNL     1      47.279  20.229  21.426  0.00  0.00    +0.051 C 
ATOM     25  C   UNL     1      48.161  20.503  19.100  0.00  0.00    +0.061 C 
ATOM     26  C   UNL     1      47.841  15.982  18.752  0.00  0.00    -0.052 C 
ATOM     27  C   UNL     1      47.680  15.183  17.673  0.00  0.00    +0.019 C 
ATOM     30  C   UNL     1      48.023  13.810  17.759  0.00  0.00    +0.388 C 
ATOM     31  O   UNL     1      47.878  13.082  16.787  0.00  0.00    -0.471 OA
ENDROOT
BRANCH   3   2
ATOM      1  C   UNL     1      50.299  11.622  18.464  0.00  0.00    +0.027 C 
ATOM      2  C   UNL     1      48.901  11.828  19.051  0.00  0.00    +0.038 C 
ATOM     32  C   UNL     1      48.893  11.386  20.516  0.00  0.00    +0.027 C 
ENDBRANCH   3   2
BRANCH  27  28
ATOM     28  O   UNL     1      47.193  15.694  16.510  0.00  0.00    -0.460 OA
ATOM     29  H   UNL     1      47.158  16.660  16.489  0.00  0.00    +0.400 HD
ENDBRANCH  27  28
BRANCH  13  14
ATOM     14  O   UNL     1      45.422  21.150  19.313  0.00  0.00    -0.335 OA
BRANCH  14  15
ATOM     15  C   UNL     1      44.360  21.579  20.022  0.00  0.00    +0.508 C 
ATOM     22  O   UNL     1      44.528  22.223  21.038  0.00  0.00    -0.501 OA
BRANCH  15  16
ATOM     16  C   UNL     1      42.990  21.265  19.564  0.00  0.00    -0.128 A 
ATOM     17  C   UNL     1      42.475  19.978  19.725  0.00  0.00    +0.077 A 
ATOM     18  C   UNL     1      41.196  19.692  19.295  0.00  0.00    -0.001 A 
ATOM     19  C   UNL     1      40.425  20.677  18.705  0.00  0.00    +0.049 A 
ATOM     20  C   UNL     1      40.930  21.955  18.540  0.00  0.00    +0.003 A 
ATOM     21  C   UNL     1      42.204  22.256  18.972  0.00  0.00    +0.082 A 
ENDBRANCH  15  16
ENDBRANCH  14  15
ENDBRANCH  13  14
TORSDOF 5
ENDMDL
