MODEL 1
REMARK VINA RESULT:      -5.2      0.000      0.000
REMARK  Name = ZINC95485902
REMARK  6 active torsions:
REMARK  status: ('A' for Active; 'I' for Inactive)
REMARK    1  A    between atoms: C3_3  and  O5_18
REMARK    2  A    between atoms: C4_4  and  C7_8
REMARK    3  A    between atoms: C5_5  and  O1_7
REMARK    4  A    between atoms: C7_8  and  C8_10
REMARK    5  A    between atoms: C10_12  and  O4_17
REMARK    6  A    between atoms: C13_15  and  O3_16
REMARK                            x       y       z     vdW  Elec       q    Type
REMARK                         _______ _______ _______ _____ _____    ______ ____
ROOT
ATOM      7  C   UNL     1      44.668  20.293  19.483  0.00  0.00    +0.463 C 
ATOM     18  O   UNL     1      45.077  19.889  18.409  0.00  0.00    -0.426 OA
ENDROOT
BRANCH   7   6
ATOM      1  C   UNL     1      40.972  18.869  21.023  0.00  0.00    +0.070 A 
ATOM      2  C   UNL     1      42.161  18.402  21.550  0.00  0.00    -0.014 A 
ATOM      3  C   UNL     1      43.372  18.859  21.057  0.00  0.00    +0.156 A 
ATOM      6  C   UNL     1      43.388  19.800  20.015  0.00  0.00    -0.203 A 
ATOM     19  C   UNL     1      42.175  20.268  19.488  0.00  0.00    +0.156 A 
ATOM     22  C   UNL     1      40.976  19.797  19.998  0.00  0.00    -0.016 A 
BRANCH   3   4
ATOM      4  O   UNL     1      44.537  18.398  21.577  0.00  0.00    -0.492 OA
ATOM      5  H   UNL     1      44.426  17.843  22.361  0.00  0.00    +0.400 HD
ENDBRANCH   3   4
BRANCH  19  20
ATOM     20  O   UNL     1      42.177  21.178  18.482  0.00  0.00    -0.491 OA
ATOM     21  H   UNL     1      41.487  21.034  17.820  0.00  0.00    +0.398 HD
ENDBRANCH  19  20
ENDBRANCH   7   6
BRANCH   7   8
ATOM      8  C   UNL     1      45.457  21.277  20.249  0.00  0.00    -0.171 A 
ATOM      9  C   UNL     1      44.978  22.578  20.424  0.00  0.00    +0.068 A 
ATOM     10  C   UNL     1      45.722  23.493  21.143  0.00  0.00    +0.084 A 
ATOM     13  C   UNL     1      46.944  23.124  21.693  0.00  0.00    +0.046 A 
ATOM     14  C   UNL     1      47.425  21.841  21.525  0.00  0.00    -0.002 A 
ATOM     15  C   UNL     1      46.688  20.909  20.810  0.00  0.00    +0.160 A 
BRANCH  10  11
ATOM     11  O   UNL     1      45.258  24.760  21.314  0.00  0.00    -0.494 OA
ATOM     12  H   UNL     1      45.778  25.290  21.934  0.00  0.00    +0.393 HD
ENDBRANCH  10  11
BRANCH  15  16
ATOM     16  O   UNL     1      47.158  19.646  20.651  0.00  0.00    -0.479 OA
ATOM     17  H   UNL     1      47.568  19.485  19.789  0.00  0.00    +0.396 HD
ENDBRANCH  15  16
ENDBRANCH   7   8
TORSDOF 6
ENDMDL
MODEL 2
REMARK VINA RESULT:      -5.2      1.031      5.428
REMARK  Name = ZINC95485902
REMARK  6 active torsions:
REMARK  status: ('A' for Active; 'I' for Inactive)
REMARK    1  A    between atoms: C3_3  and  O5_18
REMARK    2  A    between atoms: C4_4  and  C7_8
REMARK    3  A    between atoms: C5_5  and  O1_7
REMARK    4  A    between atoms: C7_8  and  C8_10
REMARK    5  A    between atoms: C10_12  and  O4_17
REMARK    6  A    between atoms: C13_15  and  O3_16
REMARK                            x       y       z     vdW  Elec       q    Type
REMARK                         _______ _______ _______ _____ _____    ______ ____
ROOT
ATOM      7  C   UNL     1      44.646  20.674  19.394  0.00  0.00    +0.463 C 
ATOM     18  O   UNL     1      45.120  20.275  18.347  0.00  0.00    -0.426 OA
ENDROOT
BRANCH   7   6
ATOM      1  C   UNL     1      46.518  23.856  21.500  0.00  0.00    +0.070 A 
ATOM      2  C   UNL     1      45.459  24.123  20.652  0.00  0.00    -0.014 A 
ATOM      3  C   UNL     1      44.841  23.094  19.961  0.00  0.00    +0.156 A 
ATOM      6  C   UNL     1      45.295  21.775  20.123  0.00  0.00    -0.203 A 
ATOM     19  C   UNL     1      46.371  21.516  20.986  0.00  0.00    +0.156 A 
ATOM     22  C   UNL     1      46.973  22.561  21.667  0.00  0.00    -0.016 A 
BRANCH   3   4
ATOM      4  O   UNL     1      43.802  23.359  19.131  0.00  0.00    -0.492 OA
ATOM      5  H   UNL     1      44.034  23.918  18.376  0.00  0.00    +0.400 HD
ENDBRANCH   3   4
BRANCH  19  20
ATOM     20  O   UNL     1      46.818  20.246  21.152  0.00  0.00    -0.491 OA
ATOM     21  H   UNL     1      46.332  19.741  21.818  0.00  0.00    +0.398 HD
ENDBRANCH  19  20
ENDBRANCH   7   6
BRANCH   7   8
ATOM      8  C   UNL     1      43.420  20.054  19.933  0.00  0.00    -0.171 A 
ATOM      9  C   UNL     1      43.501  19.136  20.984  0.00  0.00    +0.068 A 
ATOM     10  C   UNL     1      42.349  18.559  21.483  0.00  0.00    +0.084 A 
ATOM     13  C   UNL     1      41.111  18.889  20.944  0.00  0.00    +0.046 A 
ATOM     14  C   UNL     1      41.022  19.794  19.906  0.00  0.00    -0.002 A 
ATOM     15  C   UNL     1      42.168  20.386  19.397  0.00  0.00    +0.160 A 
BRANCH  10  11
ATOM     11  O   UNL     1      42.426  17.665  22.505  0.00  0.00    -0.494 OA
ATOM     12  H   UNL     1      41.961  16.834  22.338  0.00  0.00    +0.393 HD
ENDBRANCH  10  11
BRANCH  15  16
ATOM     16  O   UNL     1      42.079  21.281  18.380  0.00  0.00    -0.479 OA
ATOM     17  H   UNL     1      41.408  21.059  17.720  0.00  0.00    +0.396 HD
ENDBRANCH  15  16
ENDBRANCH   7   8
TORSDOF 6
ENDMDL
MODEL 3
REMARK VINA RESULT:      -5.1      5.188      8.156
REMARK  Name = ZINC95485902
REMARK  6 active torsions:
REMARK  status: ('A' for Active; 'I' for Inactive)
REMARK    1  A    between atoms: C3_3  and  O5_18
REMARK    2  A    between atoms: C4_4  and  C7_8
REMARK    3  A    between atoms: C5_5  and  O1_7
REMARK    4  A    between atoms: C7_8  and  C8_10
REMARK    5  A    between atoms: C10_12  and  O4_17
REMARK    6  A    between atoms: C13_15  and  O3_16
REMARK                            x       y       z     vdW  Elec       q    Type
REMARK                         _______ _______ _______ _____ _____    ______ ____
ROOT
ATOM      7  C   UNL     1      50.183  17.830  18.464  0.00  0.00    +0.463 C 
ATOM     18  O   UNL     1      50.852  17.166  19.235  0.00  0.00    -0.426 OA
ENDROOT
BRANCH   7   6
ATOM      1  C   UNL     1      51.999  20.949  16.221  0.00  0.00    +0.070 A 
ATOM      2  C   UNL     1      51.192  21.259  17.299  0.00  0.00    -0.014 A 
ATOM      3  C   UNL     1      50.595  20.251  18.038  0.00  0.00    +0.156 A 
ATOM      6  C   UNL     1      50.812  18.910  17.687  0.00  0.00    -0.203 A 
ATOM     19  C   UNL     1      51.634  18.606  16.590  0.00  0.00    +0.156 A 
ATOM     22  C   UNL     1      52.220  19.631  15.866  0.00  0.00    -0.016 A 
BRANCH   3   4
ATOM      4  O   UNL     1      49.804  20.559  19.095  0.00  0.00    -0.492 OA
ATOM      5  H   UNL     1      49.569  21.496  19.152  0.00  0.00    +0.400 HD
ENDBRANCH   3   4
BRANCH  19  20
ATOM     20  O   UNL     1      51.851  17.313  16.242  0.00  0.00    -0.491 OA
ATOM     21  H   UNL     1      51.820  17.152  15.289  0.00  0.00    +0.398 HD
ENDBRANCH  19  20
ENDBRANCH   7   6
BRANCH   7   8
ATOM      8  C   UNL     1      48.742  17.551  18.309  0.00  0.00    -0.171 A 
ATOM      9  C   UNL     1      48.251  17.046  17.102  0.00  0.00    +0.068 A 
ATOM     10  C   UNL     1      46.900  16.788  16.964  0.00  0.00    +0.084 A 
ATOM     13  C   UNL     1      46.031  17.027  18.021  0.00  0.00    +0.046 A 
ATOM     14  C   UNL     1      46.507  17.526  19.217  0.00  0.00    -0.002 A 
ATOM     15  C   UNL     1      47.861  17.785  19.373  0.00  0.00    +0.160 A 
BRANCH  10  11
ATOM     11  O   UNL     1      46.421  16.297  15.790  0.00  0.00    -0.494 OA
ATOM     12  H   UNL     1      45.734  15.624  15.896  0.00  0.00    +0.393 HD
ENDBRANCH  10  11
BRANCH  15  16
ATOM     16  O   UNL     1      48.329  18.270  20.551  0.00  0.00    -0.479 OA
ATOM     17  H   UNL     1      49.283  18.431  20.558  0.00  0.00    +0.396 HD
ENDBRANCH  15  16
ENDBRANCH   7   8
TORSDOF 6
ENDMDL
MODEL 4
REMARK VINA RESULT:      -5.1      5.207      8.118
REMARK  Name = ZINC95485902
REMARK  6 active torsions:
REMARK  status: ('A' for Active; 'I' for Inactive)
REMARK    1  A    between atoms: C3_3  and  O5_18
REMARK    2  A    between atoms: C4_4  and  C7_8
REMARK    3  A    between atoms: C5_5  and  O1_7
REMARK    4  A    between atoms: C7_8  and  C8_10
REMARK    5  A    between atoms: C10_12  and  O4_17
REMARK    6  A    between atoms: C13_15  and  O3_16
REMARK                            x       y       z     vdW  Elec       q    Type
REMARK                         _______ _______ _______ _____ _____    ______ ____
ROOT
ATOM      7  C   UNL     1      50.210  17.843  18.437  0.00  0.00    +0.463 C 
ATOM     18  O   UNL     1      50.887  17.180  19.201  0.00  0.00    -0.426 OA
ENDROOT
BRANCH   7   6
ATOM      1  C   UNL     1      51.998  20.968  16.179  0.00  0.00    +0.070 A 
ATOM      2  C   UNL     1      52.227  19.651  15.829  0.00  0.00    -0.014 A 
ATOM      3  C   UNL     1      51.650  18.624  16.557  0.00  0.00    +0.156 A 
ATOM      6  C   UNL     1      50.829  18.925  17.656  0.00  0.00    -0.203 A 
ATOM     19  C   UNL     1      50.603  20.267  18.002  0.00  0.00    +0.156 A 
ATOM     22  C   UNL     1      51.191  21.277  17.259  0.00  0.00    -0.016 A 
BRANCH   3   4
ATOM      4  O   UNL     1      51.876  17.332  16.210  0.00  0.00    -0.492 OA
ATOM      5  H   UNL     1      52.715  16.978  16.538  0.00  0.00    +0.400 HD
ENDBRANCH   3   4
BRANCH  19  20
ATOM     20  O   UNL     1      49.813  20.571  19.061  0.00  0.00    -0.491 OA
ATOM     21  H   UNL     1      49.649  19.827  19.657  0.00  0.00    +0.398 HD
ENDBRANCH  19  20
ENDBRANCH   7   6
BRANCH   7   8
ATOM      8  C   UNL     1      48.769  17.561  18.294  0.00  0.00    -0.171 A 
ATOM      9  C   UNL     1      48.269  17.056  17.090  0.00  0.00    +0.068 A 
ATOM     10  C   UNL     1      46.918  16.794  16.964  0.00  0.00    +0.084 A 
ATOM     13  C   UNL     1      46.056  17.031  18.029  0.00  0.00    +0.046 A 
ATOM     14  C   UNL     1      46.542  17.529  19.220  0.00  0.00    -0.002 A 
ATOM     15  C   UNL     1      47.896  17.792  19.365  0.00  0.00    +0.160 A 
BRANCH  10  11
ATOM     11  O   UNL     1      46.429  16.303  15.793  0.00  0.00    -0.494 OA
ATOM     12  H   UNL     1      46.775  16.745  15.006  0.00  0.00    +0.393 HD
ENDBRANCH  10  11
BRANCH  15  16
ATOM     16  O   UNL     1      48.373  18.277  20.540  0.00  0.00    -0.479 OA
ATOM     17  H   UNL     1      49.091  18.917  20.438  0.00  0.00    +0.396 HD
ENDBRANCH  15  16
ENDBRANCH   7   8
TORSDOF 6
ENDMDL
MODEL 5
REMARK VINA RESULT:      -5.1      2.722      4.638
REMARK  Name = ZINC95485902
REMARK  6 active torsions:
REMARK  status: ('A' for Active; 'I' for Inactive)
REMARK    1  A    between atoms: C3_3  and  O5_18
REMARK    2  A    between atoms: C4_4  and  C7_8
REMARK    3  A    between atoms: C5_5  and  O1_7
REMARK    4  A    between atoms: C7_8  and  C8_10
REMARK    5  A    between atoms: C10_12  and  O4_17
REMARK    6  A    between atoms: C13_15  and  O3_16
REMARK                            x       y       z     vdW  Elec       q    Type
REMARK                         _______ _______ _______ _____ _____    ______ ____
ROOT
ATOM      7  C   UNL     1      44.252  18.936  20.778  0.00  0.00    +0.463 C 
ATOM     18  O   UNL     1      44.845  19.456  21.705  0.00  0.00    -0.426 OA
ENDROOT
BRANCH   7   6
ATOM      1  C   UNL     1      40.634  20.644  19.345  0.00  0.00    +0.070 A 
ATOM      2  C   UNL     1      40.592  19.660  20.315  0.00  0.00    -0.014 A 
ATOM      3  C   UNL     1      41.764  19.096  20.790  0.00  0.00    +0.156 A 
ATOM      6  C   UNL     1      43.000  19.527  20.281  0.00  0.00    -0.203 A 
ATOM     19  C   UNL     1      43.031  20.527  19.297  0.00  0.00    +0.156 A 
ATOM     22  C   UNL     1      41.845  21.076  18.837  0.00  0.00    -0.016 A 
BRANCH   3   4
ATOM      4  O   UNL     1      41.719  18.131  21.742  0.00  0.00    -0.492 OA
ATOM      5  H   UNL     1      42.211  18.348  22.546  0.00  0.00    +0.400 HD
ENDBRANCH   3   4
BRANCH  19  20
ATOM     20  O   UNL     1      44.218  20.952  18.797  0.00  0.00    -0.491 OA
ATOM     21  H   UNL     1      44.830  21.285  19.468  0.00  0.00    +0.398 HD
ENDBRANCH  19  20
ENDBRANCH   7   6
BRANCH   7   8
ATOM      8  C   UNL     1      44.791  17.713  20.151  0.00  0.00    -0.171 A 
ATOM      9  C   UNL     1      45.410  17.779  18.901  0.00  0.00    +0.068 A 
ATOM     10  C   UNL     1      45.912  16.630  18.320  0.00  0.00    +0.084 A 
ATOM     13  C   UNL     1      45.802  15.409  18.976  0.00  0.00    +0.046 A 
ATOM     14  C   UNL     1      45.192  15.335  20.212  0.00  0.00    -0.002 A 
ATOM     15  C   UNL     1      44.688  16.480  20.810  0.00  0.00    +0.160 A 
BRANCH  10  11
ATOM     11  O   UNL     1      46.515  16.693  17.103  0.00  0.00    -0.494 OA
ATOM     12  H   UNL     1      46.448  17.557  16.674  0.00  0.00    +0.393 HD
ENDBRANCH  10  11
BRANCH  15  16
ATOM     16  O   UNL     1      44.093  16.406  22.028  0.00  0.00    -0.479 OA
ATOM     17  H   UNL     1      43.304  15.848  22.046  0.00  0.00    +0.396 HD
ENDBRANCH  15  16
ENDBRANCH   7   8
TORSDOF 6
ENDMDL
MODEL 6
REMARK VINA RESULT:      -5.0      5.956      8.637
REMARK  Name = ZINC95485902
REMARK  6 active torsions:
REMARK  status: ('A' for Active; 'I' for Inactive)
REMARK    1  A    between atoms: C3_3  and  O5_18
REMARK    2  A    between atoms: C4_4  and  C7_8
REMARK    3  A    between atoms: C5_5  and  O1_7
REMARK    4  A    between atoms: C7_8  and  C8_10
REMARK    5  A    between atoms: C10_12  and  O4_17
REMARK    6  A    between atoms: C13_15  and  O3_16
REMARK                            x       y       z     vdW  Elec       q    Type
REMARK                         _______ _______ _______ _____ _____    ______ ____
ROOT
ATOM      7  C   UNL     1      50.567  17.544  18.268  0.00  0.00    +0.463 C 
ATOM     18  O   UNL     1      51.162  17.158  19.257  0.00  0.00    -0.426 OA
ENDROOT
BRANCH   7   6
ATOM      1  C   UNL     1      51.852  21.059  16.252  0.00  0.00    +0.070 A 
ATOM      2  C   UNL     1      52.171  19.816  15.737  0.00  0.00    -0.014 A 
ATOM      3  C   UNL     1      51.758  18.664  16.385  0.00  0.00    +0.156 A 
ATOM      6  C   UNL     1      51.012  18.761  17.570  0.00  0.00    -0.203 A 
ATOM     19  C   UNL     1      50.693  20.028  18.084  0.00  0.00    +0.156 A 
ATOM     22  C   UNL     1      51.118  21.166  17.419  0.00  0.00    -0.016 A 
BRANCH   3   4
ATOM      4  O   UNL     1      52.072  17.446  15.876  0.00  0.00    -0.492 OA
ATOM      5  H   UNL     1      52.473  17.478  14.996  0.00  0.00    +0.400 HD
ENDBRANCH   3   4
BRANCH  19  20
ATOM     20  O   UNL     1      49.974  20.135  19.229  0.00  0.00    -0.491 OA
ATOM     21  H   UNL     1      50.480  19.951  20.031  0.00  0.00    +0.398 HD
ENDBRANCH  19  20
ENDBRANCH   7   6
BRANCH   7   8
ATOM      8  C   UNL     1      49.401  16.791  17.767  0.00  0.00    -0.171 A 
ATOM      9  C   UNL     1      48.137  17.389  17.743  0.00  0.00    +0.068 A 
ATOM     10  C   UNL     1      47.050  16.677  17.273  0.00  0.00    +0.084 A 
ATOM     13  C   UNL     1      47.209  15.371  16.825  0.00  0.00    +0.046 A 
ATOM     14  C   UNL     1      48.453  14.774  16.845  0.00  0.00    -0.002 A 
ATOM     15  C   UNL     1      49.555  15.476  17.309  0.00  0.00    +0.160 A 
BRANCH  10  11
ATOM     11  O   UNL     1      45.820  17.257  17.249  0.00  0.00    -0.494 OA
ATOM     12  H   UNL     1      45.662  17.877  17.975  0.00  0.00    +0.393 HD
ENDBRANCH  10  11
BRANCH  15  16
ATOM     16  O   UNL     1      50.779  14.890  17.323  0.00  0.00    -0.479 OA
ATOM     17  H   UNL     1      50.752  13.926  17.405  0.00  0.00    +0.396 HD
ENDBRANCH  15  16
ENDBRANCH   7   8
TORSDOF 6
ENDMDL
MODEL 7
REMARK VINA RESULT:      -4.9      5.550      8.327
REMARK  Name = ZINC95485902
REMARK  6 active torsions:
REMARK  status: ('A' for Active; 'I' for Inactive)
REMARK    1  A    between atoms: C3_3  and  O5_18
REMARK    2  A    between atoms: C4_4  and  C7_8
REMARK    3  A    between atoms: C5_5  and  O1_7
REMARK    4  A    between atoms: C7_8  and  C8_10
REMARK    5  A    between atoms: C10_12  and  O4_17
REMARK    6  A    between atoms: C13_15  and  O3_16
REMARK                            x       y       z     vdW  Elec       q    Type
REMARK                         _______ _______ _______ _____ _____    ______ ____
ROOT
ATOM      7  C   UNL     1      50.224  17.878  18.473  0.00  0.00    +0.463 C 
ATOM     18  O   UNL     1      50.740  17.499  19.508  0.00  0.00    -0.426 OA
ENDROOT
BRANCH   7   6
ATOM      1  C   UNL     1      52.051  20.965  16.194  0.00  0.00    +0.070 A 
ATOM      2  C   UNL     1      51.252  21.290  17.274  0.00  0.00    -0.014 A 
ATOM      3  C   UNL     1      50.652  20.293  18.024  0.00  0.00    +0.156 A 
ATOM      6  C   UNL     1      50.856  18.946  17.683  0.00  0.00    -0.203 A 
ATOM     19  C   UNL     1      51.669  18.627  16.584  0.00  0.00    +0.156 A 
ATOM     22  C   UNL     1      52.259  19.642  15.849  0.00  0.00    -0.016 A 
BRANCH   3   4
ATOM      4  O   UNL     1      49.869  20.615  19.084  0.00  0.00    -0.492 OA
ATOM      5  H   UNL     1      49.790  21.567  19.240  0.00  0.00    +0.400 HD
ENDBRANCH   3   4
BRANCH  19  20
ATOM     20  O   UNL     1      51.874  17.331  16.245  0.00  0.00    -0.491 OA
ATOM     21  H   UNL     1      52.547  17.204  15.561  0.00  0.00    +0.398 HD
ENDBRANCH  19  20
ENDBRANCH   7   6
BRANCH   7   8
ATOM      8  C   UNL     1      48.964  17.264  18.010  0.00  0.00    -0.171 A 
ATOM      9  C   UNL     1      47.769  17.987  18.066  0.00  0.00    +0.068 A 
ATOM     10  C   UNL     1      46.593  17.406  17.631  0.00  0.00    +0.084 A 
ATOM     13  C   UNL     1      46.596  16.107  17.137  0.00  0.00    +0.046 A 
ATOM     14  C   UNL     1      47.771  15.386  17.078  0.00  0.00    -0.002 A 
ATOM     15  C   UNL     1      48.961  15.956  17.506  0.00  0.00    +0.160 A 
BRANCH  10  11
ATOM     11  O   UNL     1      45.429  18.108  17.685  0.00  0.00    -0.494 OA
ATOM     12  H   UNL     1      45.218  18.583  16.870  0.00  0.00    +0.393 HD
ENDBRANCH  10  11
BRANCH  15  16
ATOM     16  O   UNL     1      50.117  15.249  17.442  0.00  0.00    -0.479 OA
ATOM     17  H   UNL     1      49.990  14.304  17.280  0.00  0.00    +0.396 HD
ENDBRANCH  15  16
ENDBRANCH   7   8
TORSDOF 6
ENDMDL
MODEL 8
REMARK VINA RESULT:      -4.9      4.407      7.070
REMARK  Name = ZINC95485902
REMARK  6 active torsions:
REMARK  status: ('A' for Active; 'I' for Inactive)
REMARK    1  A    between atoms: C3_3  and  O5_18
REMARK    2  A    between atoms: C4_4  and  C7_8
REMARK    3  A    between atoms: C5_5  and  O1_7
REMARK    4  A    between atoms: C7_8  and  C8_10
REMARK    5  A    between atoms: C10_12  and  O4_17
REMARK    6  A    between atoms: C13_15  and  O3_16
REMARK                            x       y       z     vdW  Elec       q    Type
REMARK                         _______ _______ _______ _____ _____    ______ ____
ROOT
ATOM      7  C   UNL     1      49.291  18.911  19.095  0.00  0.00    +0.463 C 
ATOM     18  O   UNL     1      49.674  18.488  20.170  0.00  0.00    -0.426 OA
ENDROOT
BRANCH   7   6
ATOM      1  C   UNL     1      52.100  19.786  16.029  0.00  0.00    +0.070 A 
ATOM      2  C   UNL     1      51.459  18.561  16.043  0.00  0.00    -0.014 A 
ATOM      3  C   UNL     1      50.541  18.265  17.037  0.00  0.00    +0.156 A 
ATOM      6  C   UNL     1      50.264  19.214  18.034  0.00  0.00    -0.203 A 
ATOM     19  C   UNL     1      50.921  20.455  18.009  0.00  0.00    +0.156 A 
ATOM     22  C   UNL     1      51.835  20.728  17.005  0.00  0.00    -0.016 A 
BRANCH   3   4
ATOM      4  O   UNL     1      49.913  17.063  17.048  0.00  0.00    -0.492 OA
ATOM      5  H   UNL     1      50.302  16.410  16.450  0.00  0.00    +0.400 HD
ENDBRANCH   3   4
BRANCH  19  20
ATOM     20  O   UNL     1      50.661  21.380  18.966  0.00  0.00    -0.491 OA
ATOM     21  H   UNL     1      50.772  21.054  19.870  0.00  0.00    +0.398 HD
ENDBRANCH  19  20
ENDBRANCH   7   6
BRANCH   7   8
ATOM      8  C   UNL     1      47.849  19.120  18.856  0.00  0.00    -0.171 A 
ATOM      9  C   UNL     1      47.317  20.412  18.860  0.00  0.00    +0.068 A 
ATOM     10  C   UNL     1      45.966  20.599  18.636  0.00  0.00    +0.084 A 
ATOM     13  C   UNL     1      45.137  19.508  18.406  0.00  0.00    +0.046 A 
ATOM     14  C   UNL     1      45.654  18.228  18.401  0.00  0.00    -0.002 A 
ATOM     15  C   UNL     1      47.009  18.024  18.619  0.00  0.00    +0.160 A 
BRANCH  10  11
ATOM     11  O   UNL     1      45.446  21.856  18.639  0.00  0.00    -0.494 OA
ATOM     12  H   UNL     1      45.400  22.265  17.764  0.00  0.00    +0.393 HD
ENDBRANCH  10  11
BRANCH  15  16
ATOM     16  O   UNL     1      47.518  16.765  18.608  0.00  0.00    -0.479 OA
ATOM     17  H   UNL     1      48.312  16.668  18.064  0.00  0.00    +0.396 HD
ENDBRANCH  15  16
ENDBRANCH   7   8
TORSDOF 6
ENDMDL
MODEL 9
REMARK VINA RESULT:      -4.8     21.953     23.586
REMARK  Name = ZINC95485902
REMARK  6 active torsions:
REMARK  status: ('A' for Active; 'I' for Inactive)
REMARK    1  A    between atoms: C3_3  and  O5_18
REMARK    2  A    between atoms: C4_4  and  C7_8
REMARK    3  A    between atoms: C5_5  and  O1_7
REMARK    4  A    between atoms: C7_8  and  C8_10
REMARK    5  A    between atoms: C10_12  and  O4_17
REMARK    6  A    between atoms: C13_15  and  O3_16
REMARK                            x       y       z     vdW  Elec       q    Type
REMARK                         _______ _______ _______ _____ _____    ______ ____
ROOT
ATOM      7  C   UNL     1      56.724  32.444   3.102  0.00  0.00    +0.463 C 
ATOM     18  O   UNL     1      56.903  33.273   2.229  0.00  0.00    -0.426 OA
ENDROOT
BRANCH   7   6
ATOM      1  C   UNL     1      59.165  28.969   3.266  0.00  0.00    +0.070 A 
ATOM      2  C   UNL     1      59.338  29.974   4.199  0.00  0.00    -0.014 A 
ATOM      3  C   UNL     1      58.548  31.111   4.156  0.00  0.00    +0.156 A 
ATOM      6  C   UNL     1      57.569  31.241   3.158  0.00  0.00    -0.203 A 
ATOM     19  C   UNL     1      57.402  30.213   2.216  0.00  0.00    +0.156 A 
ATOM     22  C   UNL     1      58.204  29.086   2.279  0.00  0.00    -0.016 A 
BRANCH   3   4
ATOM      4  O   UNL     1      58.720  32.095   5.073  0.00  0.00    -0.492 OA
ATOM      5  H   UNL     1      58.097  32.058   5.812  0.00  0.00    +0.400 HD
ENDBRANCH   3   4
BRANCH  19  20
ATOM     20  O   UNL     1      56.459  30.327   1.248  0.00  0.00    -0.491 OA
ATOM     21  H   UNL     1      56.699  30.935   0.534  0.00  0.00    +0.398 HD
ENDBRANCH  19  20
ENDBRANCH   7   6
BRANCH   7   8
ATOM      8  C   UNL     1      55.659  32.645   4.104  0.00  0.00    -0.171 A 
ATOM      9  C   UNL     1      55.847  33.547   5.156  0.00  0.00    +0.068 A 
ATOM     10  C   UNL     1      54.846  33.730   6.090  0.00  0.00    +0.084 A 
ATOM     13  C   UNL     1      53.654  33.022   5.987  0.00  0.00    +0.046 A 
ATOM     14  C   UNL     1      53.461  32.130   4.952  0.00  0.00    -0.002 A 
ATOM     15  C   UNL     1      54.453  31.938   4.003  0.00  0.00    +0.160 A 
BRANCH  10  11
ATOM     11  O   UNL     1      55.027  34.607   7.114  0.00  0.00    -0.494 OA
ATOM     12  H   UNL     1      54.325  35.267   7.196  0.00  0.00    +0.393 HD
ENDBRANCH  10  11
BRANCH  15  16
ATOM     16  O   UNL     1      54.260  31.065   2.982  0.00  0.00    -0.479 OA
ATOM     17  H   UNL     1      55.060  30.871   2.475  0.00  0.00    +0.396 HD
ENDBRANCH  15  16
ENDBRANCH   7   8
TORSDOF 6
ENDMDL
