MODEL 1
REMARK VINA RESULT:      -5.9      0.000      0.000
REMARK  Name = ZINC06484605
REMARK  8 active torsions:
REMARK  status: ('A' for Active; 'I' for Inactive)
REMARK    1  A    between atoms: C1_1  and  O1_2
REMARK    2  A    between atoms: O1_2  and  C2_3
REMARK    3  A    between atoms: C5_6  and  C8_10
REMARK    4  A    between atoms: C7_8  and  O2_9
REMARK    5  A    between atoms: C14_18  and  O7_24
REMARK    6  A    between atoms: C15_19  and  O6_22
REMARK    7  A    between atoms: C16_20  and  O5_21
REMARK    8  A    between atoms: O6_22  and  C17_23
REMARK                            x       y       z     vdW  Elec       q    Type
REMARK                         _______ _______ _______ _____ _____    ______ ____
ROOT
ATOM      7  C   UNL     1      45.069  18.176  19.208  0.00  0.00    +0.206 A 
ATOM      8  C   UNL     1      44.756  17.368  20.255  0.00  0.00    -0.144 A 
ATOM      9  C   UNL     1      45.100  15.996  20.204  0.00  0.00    +0.427 A 
ATOM     10  C   UNL     1      45.787  15.513  18.994  0.00  0.00    -0.300 A 
ATOM     11  C   UNL     1      46.064  16.434  17.968  0.00  0.00    +0.230 A 
ATOM     12  C   UNL     1      46.711  16.004  16.821  0.00  0.00    -0.069 A 
ATOM     13  C   UNL     1      47.085  14.675  16.691  0.00  0.00    +0.252 A 
ATOM     16  C   UNL     1      46.808  13.759  17.702  0.00  0.00    -0.137 A 
ATOM     19  C   UNL     1      46.163  14.173  18.858  0.00  0.00    +0.276 A 
ATOM     22  O   UNL     1      44.834  15.241  21.125  0.00  0.00    -0.456 OA
ATOM     23  O   UNL     1      45.697  17.727  18.111  0.00  0.00    -0.216 OA
ENDROOT
BRANCH   7   6
ATOM      3  C   UNL     1      44.019  22.290  19.419  0.00  0.00    +0.118 A 
ATOM      4  C   UNL     1      45.355  21.915  19.367  0.00  0.00    -0.029 A 
ATOM      5  C   UNL     1      45.699  20.583  19.303  0.00  0.00    +0.064 A 
ATOM      6  C   UNL     1      44.703  19.604  19.281  0.00  0.00    -0.071 A 
ATOM     24  C   UNL     1      43.358  19.980  19.334  0.00  0.00    +0.005 A 
ATOM     25  C   UNL     1      43.020  21.318  19.403  0.00  0.00    +0.128 A 
BRANCH   3   2
ATOM      1  C   UNL     1      44.526  24.523  18.783  0.00  0.00    +0.243 C 
ATOM      2  O   UNL     1      43.686  23.605  19.486  0.00  0.00    -0.301 OA
ENDBRANCH   3   2
BRANCH  25  26
ATOM     26  O   UNL     1      41.712  21.688  19.455  0.00  0.00    -0.497 OA
ATOM     27  H   UNL     1      40.998  21.100  20.050  0.00  0.00    +0.436 HD
ENDBRANCH  25  26
ENDBRANCH   7   6
BRANCH  13  14
ATOM     14  O   UNL     1      47.722  14.263  15.565  0.00  0.00    -0.487 OA
ATOM     15  H   UNL     1      47.906  14.973  14.746  0.00  0.00    +0.446 HD
ENDBRANCH  13  14
BRANCH  16  17
ATOM     17  O   UNL     1      47.178  12.456  17.560  0.00  0.00    -0.318 OA
ATOM     18  C   UNL     1      46.237  11.580  16.936  0.00  0.00    +0.215 C 
ENDBRANCH  16  17
BRANCH  19  20
ATOM     20  O   UNL     1      45.895  13.282  19.848  0.00  0.00    -0.460 OA
ATOM     21  H   UNL     1      45.130  12.506  19.698  0.00  0.00    +0.439 HD
ENDBRANCH  19  20
TORSDOF 6
ENDMDL
MODEL 2
REMARK VINA RESULT:      -5.7      1.628      7.790
REMARK  Name = ZINC06484605
REMARK  8 active torsions:
REMARK  status: ('A' for Active; 'I' for Inactive)
REMARK    1  A    between atoms: C1_1  and  O1_2
REMARK    2  A    between atoms: O1_2  and  C2_3
REMARK    3  A    between atoms: C5_6  and  C8_10
REMARK    4  A    between atoms: C7_8  and  O2_9
REMARK    5  A    between atoms: C14_18  and  O7_24
REMARK    6  A    between atoms: C15_19  and  O6_22
REMARK    7  A    between atoms: C16_20  and  O5_21
REMARK    8  A    between atoms: O6_22  and  C17_23
REMARK                            x       y       z     vdW  Elec       q    Type
REMARK                         _______ _______ _______ _____ _____    ______ ____
ROOT
ATOM      7  C   UNL     1      45.416  16.411  19.291  0.00  0.00    +0.206 A 
ATOM      8  C   UNL     1      44.767  16.316  20.482  0.00  0.00    -0.144 A 
ATOM      9  C   UNL     1      44.309  17.493  21.121  0.00  0.00    +0.427 A 
ATOM     10  C   UNL     1      44.567  18.776  20.448  0.00  0.00    -0.300 A 
ATOM     11  C   UNL     1      45.247  18.762  19.217  0.00  0.00    +0.230 A 
ATOM     12  C   UNL     1      45.502  19.957  18.564  0.00  0.00    -0.069 A 
ATOM     13  C   UNL     1      45.084  21.156  19.121  0.00  0.00    +0.252 A 
ATOM     16  C   UNL     1      44.415  21.175  20.342  0.00  0.00    -0.137 A 
ATOM     19  C   UNL     1      44.151  19.988  21.008  0.00  0.00    +0.276 A 
ATOM     22  O   UNL     1      43.723  17.446  22.192  0.00  0.00    -0.456 OA
ATOM     23  O   UNL     1      45.646  17.585  18.685  0.00  0.00    -0.216 OA
ENDROOT
BRANCH   7   6
ATOM      3  C   UNL     1      46.767  12.842  17.419  0.00  0.00    +0.118 A 
ATOM      4  C   UNL     1      46.001  12.773  18.575  0.00  0.00    -0.029 A 
ATOM      5  C   UNL     1      45.565  13.928  19.187  0.00  0.00    +0.064 A 
ATOM      6  C   UNL     1      45.885  15.172  18.640  0.00  0.00    -0.071 A 
ATOM     24  C   UNL     1      46.657  15.242  17.476  0.00  0.00    +0.005 A 
ATOM     25  C   UNL     1      47.095  14.080  16.871  0.00  0.00    +0.128 A 
BRANCH   3   2
ATOM      1  C   UNL     1      46.261  11.008  15.993  0.00  0.00    +0.243 C 
ATOM      2  O   UNL     1      47.197  11.700  16.822  0.00  0.00    -0.301 OA
ENDBRANCH   3   2
BRANCH  25  26
ATOM     26  O   UNL     1      47.846  14.146  15.738  0.00  0.00    -0.497 OA
ATOM     27  H   UNL     1      48.874  13.758  15.737  0.00  0.00    +0.436 HD
ENDBRANCH  25  26
ENDBRANCH   7   6
BRANCH  13  14
ATOM     14  O   UNL     1      45.334  22.322  18.472  0.00  0.00    -0.487 OA
ATOM     15  H   UNL     1      45.085  23.281  18.949  0.00  0.00    +0.446 HD
ENDBRANCH  13  14
BRANCH  16  17
ATOM     17  O   UNL     1      44.013  22.360  20.879  0.00  0.00    -0.318 OA
ATOM     18  C   UNL     1      44.935  23.024  21.747  0.00  0.00    +0.215 C 
ENDBRANCH  16  17
BRANCH  19  20
ATOM     20  O   UNL     1      43.494  20.003  22.198  0.00  0.00    -0.460 OA
ATOM     21  H   UNL     1      43.562  19.138  22.874  0.00  0.00    +0.439 HD
ENDBRANCH  19  20
TORSDOF 6
ENDMDL
MODEL 3
REMARK VINA RESULT:      -5.7      3.300      4.549
REMARK  Name = ZINC06484605
REMARK  8 active torsions:
REMARK  status: ('A' for Active; 'I' for Inactive)
REMARK    1  A    between atoms: C1_1  and  O1_2
REMARK    2  A    between atoms: O1_2  and  C2_3
REMARK    3  A    between atoms: C5_6  and  C8_10
REMARK    4  A    between atoms: C7_8  and  O2_9
REMARK    5  A    between atoms: C14_18  and  O7_24
REMARK    6  A    between atoms: C15_19  and  O6_22
REMARK    7  A    between atoms: C16_20  and  O5_21
REMARK    8  A    between atoms: O6_22  and  C17_23
REMARK                            x       y       z     vdW  Elec       q    Type
REMARK                         _______ _______ _______ _____ _____    ______ ____
ROOT
ATOM      7  C   UNL     1      46.833  19.911  18.855  0.00  0.00    +0.206 A 
ATOM      8  C   UNL     1      47.845  20.729  19.251  0.00  0.00    -0.144 A 
ATOM      9  C   UNL     1      49.185  20.296  19.113  0.00  0.00    +0.427 A 
ATOM     10  C   UNL     1      49.412  18.959  18.540  0.00  0.00    -0.300 A 
ATOM     11  C   UNL     1      48.294  18.193  18.163  0.00  0.00    +0.230 A 
ATOM     12  C   UNL     1      48.482  16.932  17.621  0.00  0.00    -0.069 A 
ATOM     13  C   UNL     1      49.764  16.434  17.450  0.00  0.00    +0.252 A 
ATOM     16  C   UNL     1      50.874  17.186  17.827  0.00  0.00    -0.137 A 
ATOM     19  C   UNL     1      50.704  18.451  18.370  0.00  0.00    +0.276 A 
ATOM     22  O   UNL     1      50.119  21.004  19.459  0.00  0.00    -0.456 OA
ATOM     23  O   UNL     1      47.051  18.694  18.333  0.00  0.00    -0.216 OA
ENDROOT
BRANCH   7   6
ATOM      3  C   UNL     1      42.826  21.259  19.285  0.00  0.00    +0.118 A 
ATOM      4  C   UNL     1      43.086  20.038  18.679  0.00  0.00    -0.029 A 
ATOM      5  C   UNL     1      44.385  19.600  18.533  0.00  0.00    +0.064 A 
ATOM      6  C   UNL     1      45.442  20.381  19.005  0.00  0.00    -0.071 A 
ATOM     24  C   UNL     1      45.181  21.610  19.616  0.00  0.00    +0.005 A 
ATOM     25  C   UNL     1      43.877  22.045  19.754  0.00  0.00    +0.128 A 
BRANCH   3   2
ATOM      1  C   UNL     1      40.638  21.375  18.363  0.00  0.00    +0.243 C 
ATOM      2  O   UNL     1      41.544  21.687  19.423  0.00  0.00    -0.301 OA
ENDBRANCH   3   2
BRANCH  25  26
ATOM     26  O   UNL     1      43.619  23.242  20.348  0.00  0.00    -0.497 OA
ATOM     27  H   UNL     1      43.864  23.393  21.409  0.00  0.00    +0.436 HD
ENDBRANCH  25  26
ENDBRANCH   7   6
BRANCH  13  14
ATOM     14  O   UNL     1      49.939  15.198  16.914  0.00  0.00    -0.487 OA
ATOM     15  H   UNL     1      49.472  14.945  15.952  0.00  0.00    +0.446 HD
ENDBRANCH  13  14
BRANCH  16  17
ATOM     17  O   UNL     1      52.127  16.683  17.657  0.00  0.00    -0.318 OA
ATOM     18  C   UNL     1      52.699  15.978  18.761  0.00  0.00    +0.215 C 
ENDBRANCH  16  17
BRANCH  19  20
ATOM     20  O   UNL     1      51.784  19.189  18.735  0.00  0.00    -0.460 OA
ATOM     21  H   UNL     1      52.190  19.947  18.048  0.00  0.00    +0.439 HD
ENDBRANCH  19  20
TORSDOF 6
ENDMDL
MODEL 4
REMARK VINA RESULT:      -5.5      2.239      7.767
REMARK  Name = ZINC06484605
REMARK  8 active torsions:
REMARK  status: ('A' for Active; 'I' for Inactive)
REMARK    1  A    between atoms: C1_1  and  O1_2
REMARK    2  A    between atoms: O1_2  and  C2_3
REMARK    3  A    between atoms: C5_6  and  C8_10
REMARK    4  A    between atoms: C7_8  and  O2_9
REMARK    5  A    between atoms: C14_18  and  O7_24
REMARK    6  A    between atoms: C15_19  and  O6_22
REMARK    7  A    between atoms: C16_20  and  O5_21
REMARK    8  A    between atoms: O6_22  and  C17_23
REMARK                            x       y       z     vdW  Elec       q    Type
REMARK                         _______ _______ _______ _____ _____    ______ ____
ROOT
ATOM      7  C   UNL     1      46.821  15.191  17.785  0.00  0.00    +0.206 A 
ATOM      8  C   UNL     1      46.271  14.564  18.859  0.00  0.00    -0.144 A 
ATOM      9  C   UNL     1      45.468  15.301  19.761  0.00  0.00    +0.427 A 
ATOM     10  C   UNL     1      45.272  16.733  19.482  0.00  0.00    -0.300 A 
ATOM     11  C   UNL     1      45.886  17.284  18.343  0.00  0.00    +0.230 A 
ATOM     12  C   UNL     1      45.716  18.629  18.059  0.00  0.00    -0.069 A 
ATOM     13  C   UNL     1      44.941  19.423  18.891  0.00  0.00    +0.252 A 
ATOM     16  C   UNL     1      44.336  18.882  20.023  0.00  0.00    -0.137 A 
ATOM     19  C   UNL     1      44.494  17.538  20.322  0.00  0.00    +0.276 A 
ATOM     22  O   UNL     1      44.959  14.770  20.736  0.00  0.00    -0.456 OA
ATOM     23  O   UNL     1      46.635  16.497  17.539  0.00  0.00    -0.216 OA
ENDROOT
BRANCH   7   6
ATOM      3  C   UNL     1      49.226  12.931  15.108  0.00  0.00    +0.118 A 
ATOM      4  C   UNL     1      49.822  13.675  16.117  0.00  0.00    -0.029 A 
ATOM      5  C   UNL     1      49.046  14.413  16.983  0.00  0.00    +0.064 A 
ATOM      6  C   UNL     1      47.654  14.406  16.855  0.00  0.00    -0.071 A 
ATOM     24  C   UNL     1      47.054  13.657  15.839  0.00  0.00    +0.005 A 
ATOM     25  C   UNL     1      47.839  12.923  14.970  0.00  0.00    +0.128 A 
BRANCH   3   2
ATOM      1  C   UNL     1      50.823  12.941  13.348  0.00  0.00    +0.243 C 
ATOM      2  O   UNL     1      49.996  12.208  14.254  0.00  0.00    -0.301 OA
ENDBRANCH   3   2
BRANCH  25  26
ATOM     26  O   UNL     1      47.258  12.193  13.980  0.00  0.00    -0.497 OA
ATOM     27  H   UNL     1      47.589  12.315  12.940  0.00  0.00    +0.436 HD
ENDBRANCH  25  26
ENDBRANCH   7   6
BRANCH  13  14
ATOM     14  O   UNL     1      44.776  20.739  18.603  0.00  0.00    -0.487 OA
ATOM     15  H   UNL     1      44.843  21.490  19.404  0.00  0.00    +0.446 HD
ENDBRANCH  13  14
BRANCH  16  17
ATOM     17  O   UNL     1      43.580  19.674  20.834  0.00  0.00    -0.318 OA
ATOM     18  C   UNL     1      44.257  20.339  21.903  0.00  0.00    +0.215 C 
ENDBRANCH  16  17
BRANCH  19  20
ATOM     20  O   UNL     1      43.901  17.006  21.422  0.00  0.00    -0.460 OA
ATOM     21  H   UNL     1      42.895  16.569  21.348  0.00  0.00    +0.439 HD
ENDBRANCH  19  20
TORSDOF 6
ENDMDL
MODEL 5
REMARK VINA RESULT:      -5.5      1.479      8.025
REMARK  Name = ZINC06484605
REMARK  8 active torsions:
REMARK  status: ('A' for Active; 'I' for Inactive)
REMARK    1  A    between atoms: C1_1  and  O1_2
REMARK    2  A    between atoms: O1_2  and  C2_3
REMARK    3  A    between atoms: C5_6  and  C8_10
REMARK    4  A    between atoms: C7_8  and  O2_9
REMARK    5  A    between atoms: C14_18  and  O7_24
REMARK    6  A    between atoms: C15_19  and  O6_22
REMARK    7  A    between atoms: C16_20  and  O5_21
REMARK    8  A    between atoms: O6_22  and  C17_23
REMARK                            x       y       z     vdW  Elec       q    Type
REMARK                         _______ _______ _______ _____ _____    ______ ____
ROOT
ATOM      7  C   UNL     1      46.155  17.264  18.719  0.00  0.00    +0.206 A 
ATOM      8  C   UNL     1      47.297  17.840  19.180  0.00  0.00    -0.144 A 
ATOM      9  C   UNL     1      47.267  19.176  19.644  0.00  0.00    +0.427 A 
ATOM     10  C   UNL     1      45.975  19.881  19.597  0.00  0.00    -0.300 A 
ATOM     11  C   UNL     1      44.853  19.193  19.101  0.00  0.00    +0.230 A 
ATOM     12  C   UNL     1      43.627  19.835  19.047  0.00  0.00    -0.069 A 
ATOM     13  C   UNL     1      43.509  21.146  19.484  0.00  0.00    +0.252 A 
ATOM     16  C   UNL     1      44.618  21.833  19.971  0.00  0.00    -0.137 A 
ATOM     19  C   UNL     1      45.853  21.205  20.033  0.00  0.00    +0.276 A 
ATOM     22  O   UNL     1      48.273  19.725  20.064  0.00  0.00    -0.456 OA
ATOM     23  O   UNL     1      44.983  17.915  18.681  0.00  0.00    -0.216 OA
ENDROOT
BRANCH   7   6
ATOM      3  C   UNL     1      46.305  13.245  17.346  0.00  0.00    +0.118 A 
ATOM      4  C   UNL     1      45.787  13.531  18.602  0.00  0.00    -0.029 A 
ATOM      5  C   UNL     1      45.741  14.832  19.052  0.00  0.00    +0.064 A 
ATOM      6  C   UNL     1      46.208  15.869  18.240  0.00  0.00    -0.071 A 
ATOM     24  C   UNL     1      46.729  15.581  16.976  0.00  0.00    +0.005 A 
ATOM     25  C   UNL     1      46.777  14.274  16.533  0.00  0.00    +0.128 A 
BRANCH   3   2
ATOM      1  C   UNL     1      47.270  11.083  17.564  0.00  0.00    +0.243 C 
ATOM      2  O   UNL     1      46.351  11.959  16.909  0.00  0.00    -0.301 OA
ENDBRANCH   3   2
BRANCH  25  26
ATOM     26  O   UNL     1      47.284  13.991  15.303  0.00  0.00    -0.497 OA
ATOM     27  H   UNL     1      47.267  14.754  14.512  0.00  0.00    +0.436 HD
ENDBRANCH  25  26
ENDBRANCH   7   6
BRANCH  13  14
ATOM     14  O   UNL     1      42.302  21.767  19.432  0.00  0.00    -0.487 OA
ATOM     15  H   UNL     1      42.223  22.779  19.009  0.00  0.00    +0.446 HD
ENDBRANCH  13  14
BRANCH  16  17
ATOM     17  O   UNL     1      44.489  23.121  20.394  0.00  0.00    -0.318 OA
ATOM     18  C   UNL     1      44.638  24.145  19.409  0.00  0.00    +0.215 C 
ENDBRANCH  16  17
BRANCH  19  20
ATOM     20  O   UNL     1      46.936  21.871  20.512  0.00  0.00    -0.460 OA
ATOM     21  H   UNL     1      47.134  22.903  20.189  0.00  0.00    +0.439 HD
ENDBRANCH  19  20
TORSDOF 6
ENDMDL
MODEL 6
REMARK VINA RESULT:      -5.4      3.620      7.515
REMARK  Name = ZINC06484605
REMARK  8 active torsions:
REMARK  status: ('A' for Active; 'I' for Inactive)
REMARK    1  A    between atoms: C1_1  and  O1_2
REMARK    2  A    between atoms: O1_2  and  C2_3
REMARK    3  A    between atoms: C5_6  and  C8_10
REMARK    4  A    between atoms: C7_8  and  O2_9
REMARK    5  A    between atoms: C14_18  and  O7_24
REMARK    6  A    between atoms: C15_19  and  O6_22
REMARK    7  A    between atoms: C16_20  and  O5_21
REMARK    8  A    between atoms: O6_22  and  C17_23
REMARK                            x       y       z     vdW  Elec       q    Type
REMARK                         _______ _______ _______ _____ _____    ______ ____
ROOT
ATOM      7  C   UNL     1      47.214  19.571  19.131  0.00  0.00    +0.206 A 
ATOM      8  C   UNL     1      46.428  18.475  19.301  0.00  0.00    -0.144 A 
ATOM      9  C   UNL     1      45.027  18.633  19.413  0.00  0.00    +0.427 A 
ATOM     10  C   UNL     1      44.489  20.002  19.340  0.00  0.00    -0.300 A 
ATOM     11  C   UNL     1      45.391  21.067  19.162  0.00  0.00    +0.230 A 
ATOM     12  C   UNL     1      44.909  22.364  19.090  0.00  0.00    -0.069 A 
ATOM     13  C   UNL     1      43.548  22.606  19.188  0.00  0.00    +0.252 A 
ATOM     16  C   UNL     1      42.652  21.555  19.369  0.00  0.00    -0.137 A 
ATOM     19  C   UNL     1      43.116  20.250  19.442  0.00  0.00    +0.276 A 
ATOM     22  O   UNL     1      44.290  17.671  19.567  0.00  0.00    -0.456 OA
ATOM     23  O   UNL     1      46.715  20.815  19.064  0.00  0.00    -0.216 OA
ENDROOT
BRANCH   7   6
ATOM      3  C   UNL     1      51.417  19.033  18.799  0.00  0.00    +0.118 A 
ATOM      4  C   UNL     1      50.590  17.936  18.997  0.00  0.00    -0.029 A 
ATOM      5  C   UNL     1      49.228  18.107  19.110  0.00  0.00    +0.064 A 
ATOM      6  C   UNL     1      48.674  19.386  19.015  0.00  0.00    -0.071 A 
ATOM     24  C   UNL     1      49.506  20.491  18.817  0.00  0.00    +0.005 A 
ATOM     25  C   UNL     1      50.872  20.312  18.710  0.00  0.00    +0.128 A 
BRANCH   3   2
ATOM      1  C   UNL     1      53.284  17.591  19.093  0.00  0.00    +0.243 C 
ATOM      2  O   UNL     1      52.760  18.859  18.693  0.00  0.00    -0.301 OA
ENDBRANCH   3   2
BRANCH  25  26
ATOM     26  O   UNL     1      51.685  21.386  18.517  0.00  0.00    -0.497 OA
ATOM     27  H   UNL     1      51.263  22.401  18.511  0.00  0.00    +0.436 HD
ENDBRANCH  25  26
ENDBRANCH   7   6
BRANCH  13  14
ATOM     14  O   UNL     1      43.084  23.880  19.112  0.00  0.00    -0.487 OA
ATOM     15  H   UNL     1      43.706  24.665  18.659  0.00  0.00    +0.446 HD
ENDBRANCH  13  14
BRANCH  16  17
ATOM     17  O   UNL     1      41.318  21.807  19.468  0.00  0.00    -0.318 OA
ATOM     18  C   UNL     1      40.549  21.708  18.267  0.00  0.00    +0.215 C 
ENDBRANCH  16  17
BRANCH  19  20
ATOM     20  O   UNL     1      42.245  19.222  19.615  0.00  0.00    -0.460 OA
ATOM     21  H   UNL     1      42.599  18.265  20.024  0.00  0.00    +0.439 HD
ENDBRANCH  19  20
TORSDOF 6
ENDMDL
MODEL 7
REMARK VINA RESULT:      -5.4      2.251      3.135
REMARK  Name = ZINC06484605
REMARK  8 active torsions:
REMARK  status: ('A' for Active; 'I' for Inactive)
REMARK    1  A    between atoms: C1_1  and  O1_2
REMARK    2  A    between atoms: O1_2  and  C2_3
REMARK    3  A    between atoms: C5_6  and  C8_10
REMARK    4  A    between atoms: C7_8  and  O2_9
REMARK    5  A    between atoms: C14_18  and  O7_24
REMARK    6  A    between atoms: C15_19  and  O6_22
REMARK    7  A    between atoms: C16_20  and  O5_21
REMARK    8  A    between atoms: O6_22  and  C17_23
REMARK                            x       y       z     vdW  Elec       q    Type
REMARK                         _______ _______ _______ _____ _____    ______ ____
ROOT
ATOM      7  C   UNL     1      47.322  18.080  18.126  0.00  0.00    +0.206 A 
ATOM      8  C   UNL     1      48.670  18.162  18.286  0.00  0.00    -0.144 A 
ATOM      9  C   UNL     1      49.489  17.089  17.861  0.00  0.00    +0.427 A 
ATOM     10  C   UNL     1      48.821  15.921  17.261  0.00  0.00    -0.300 A 
ATOM     11  C   UNL     1      47.419  15.939  17.142  0.00  0.00    +0.230 A 
ATOM     12  C   UNL     1      46.768  14.852  16.581  0.00  0.00    -0.069 A 
ATOM     13  C   UNL     1      47.497  13.760  16.136  0.00  0.00    +0.252 A 
ATOM     16  C   UNL     1      48.884  13.736  16.257  0.00  0.00    -0.137 A 
ATOM     19  C   UNL     1      49.552  14.815  16.815  0.00  0.00    +0.276 A 
ATOM     22  O   UNL     1      50.702  17.128  17.989  0.00  0.00    -0.456 OA
ATOM     23  O   UNL     1      46.723  17.012  17.577  0.00  0.00    -0.216 OA
ENDROOT
BRANCH   7   6
ATOM      3  C   UNL     1      44.916  21.336  19.421  0.00  0.00    +0.118 A 
ATOM      4  C   UNL     1      46.282  21.339  19.670  0.00  0.00    -0.029 A 
ATOM      5  C   UNL     1      47.064  20.283  19.257  0.00  0.00    +0.064 A 
ATOM      6  C   UNL     1      46.485  19.210  18.575  0.00  0.00    -0.071 A 
ATOM     24  C   UNL     1      45.111  19.206  18.323  0.00  0.00    +0.005 A 
ATOM     25  C   UNL     1      44.332  20.266  18.746  0.00  0.00    +0.128 A 
BRANCH   3   2
ATOM      1  C   UNL     1      44.567  23.687  19.443  0.00  0.00    +0.243 C 
ATOM      2  O   UNL     1      44.150  22.378  19.834  0.00  0.00    -0.301 OA
ENDBRANCH   3   2
BRANCH  25  26
ATOM     26  O   UNL     1      42.993  20.265  18.502  0.00  0.00    -0.497 OA
ATOM     27  H   UNL     1      42.384  19.394  18.783  0.00  0.00    +0.436 HD
ENDBRANCH  25  26
ENDBRANCH   7   6
BRANCH  13  14
ATOM     14  O   UNL     1      46.851  12.701  15.583  0.00  0.00    -0.487 OA
ATOM     15  H   UNL     1      45.960  12.283  16.074  0.00  0.00    +0.446 HD
ENDBRANCH  13  14
BRANCH  16  17
ATOM     17  O   UNL     1      49.587  12.655  15.819  0.00  0.00    -0.318 OA
ATOM     18  C   UNL     1      50.014  12.669  14.455  0.00  0.00    +0.215 C 
ENDBRANCH  16  17
BRANCH  19  20
ATOM     20  O   UNL     1      50.906  14.798  16.930  0.00  0.00    -0.460 OA
ATOM     21  H   UNL     1      51.534  14.825  16.028  0.00  0.00    +0.439 HD
ENDBRANCH  19  20
TORSDOF 6
ENDMDL
MODEL 8
REMARK VINA RESULT:      -5.3      4.112      5.237
REMARK  Name = ZINC06484605
REMARK  8 active torsions:
REMARK  status: ('A' for Active; 'I' for Inactive)
REMARK    1  A    between atoms: C1_1  and  O1_2
REMARK    2  A    between atoms: O1_2  and  C2_3
REMARK    3  A    between atoms: C5_6  and  C8_10
REMARK    4  A    between atoms: C7_8  and  O2_9
REMARK    5  A    between atoms: C14_18  and  O7_24
REMARK    6  A    between atoms: C15_19  and  O6_22
REMARK    7  A    between atoms: C16_20  and  O5_21
REMARK    8  A    between atoms: O6_22  and  C17_23
REMARK                            x       y       z     vdW  Elec       q    Type
REMARK                         _______ _______ _______ _____ _____    ______ ____
ROOT
ATOM      7  C   UNL     1      48.482  16.383  17.671  0.00  0.00    +0.206 A 
ATOM      8  C   UNL     1      47.344  16.289  18.409  0.00  0.00    -0.144 A 
ATOM      9  C   UNL     1      46.557  15.115  18.332  0.00  0.00    +0.427 A 
ATOM     10  C   UNL     1      47.025  14.042  17.438  0.00  0.00    -0.300 A 
ATOM     11  C   UNL     1      48.217  14.241  16.719  0.00  0.00    +0.230 A 
ATOM     12  C   UNL     1      48.678  13.246  15.872  0.00  0.00    -0.069 A 
ATOM     13  C   UNL     1      47.968  12.062  15.741  0.00  0.00    +0.252 A 
ATOM     16  C   UNL     1      46.784  11.863  16.447  0.00  0.00    -0.137 A 
ATOM     19  C   UNL     1      46.309  12.848  17.300  0.00  0.00    +0.276 A 
ATOM     22  O   UNL     1      45.529  14.997  18.980  0.00  0.00    -0.456 OA
ATOM     23  O   UNL     1      48.900  15.399  16.861  0.00  0.00    -0.216 OA
ENDROOT
BRANCH   7   6
ATOM      3  C   UNL     1      50.802  19.933  17.946  0.00  0.00    +0.118 A 
ATOM      4  C   UNL     1      49.626  19.814  18.675  0.00  0.00    -0.029 A 
ATOM      5  C   UNL     1      48.869  18.666  18.584  0.00  0.00    +0.064 A 
ATOM      6  C   UNL     1      49.289  17.615  17.766  0.00  0.00    -0.071 A 
ATOM     24  C   UNL     1      50.472  17.735  17.032  0.00  0.00    +0.005 A 
ATOM     25  C   UNL     1      51.224  18.890  17.124  0.00  0.00    +0.128 A 
BRANCH   3   2
ATOM      1  C   UNL     1      52.183  21.328  19.287  0.00  0.00    +0.243 C 
ATOM      2  O   UNL     1      51.542  21.068  18.036  0.00  0.00    -0.301 OA
ENDBRANCH   3   2
BRANCH  25  26
ATOM     26  O   UNL     1      52.376  19.010  16.410  0.00  0.00    -0.497 OA
ATOM     27  H   UNL     1      52.576  18.329  15.571  0.00  0.00    +0.436 HD
ENDBRANCH  25  26
ENDBRANCH   7   6
BRANCH  13  14
ATOM     14  O   UNL     1      48.428  11.090  14.912  0.00  0.00    -0.487 OA
ATOM     15  H   UNL     1      49.033  11.358  14.033  0.00  0.00    +0.446 HD
ENDBRANCH  13  14
BRANCH  16  17
ATOM     17  O   UNL     1      46.095  10.697  16.306  0.00  0.00    -0.318 OA
ATOM     18  C   UNL     1      45.178  10.615  15.212  0.00  0.00    +0.215 C 
ENDBRANCH  16  17
BRANCH  19  20
ATOM     20  O   UNL     1      45.157  12.656  17.994  0.00  0.00    -0.460 OA
ATOM     21  H   UNL     1      44.373  13.427  17.982  0.00  0.00    +0.439 HD
ENDBRANCH  19  20
TORSDOF 6
ENDMDL
MODEL 9
REMARK VINA RESULT:      -5.3      3.795      7.840
REMARK  Name = ZINC06484605
REMARK  8 active torsions:
REMARK  status: ('A' for Active; 'I' for Inactive)
REMARK    1  A    between atoms: C1_1  and  O1_2
REMARK    2  A    between atoms: O1_2  and  C2_3
REMARK    3  A    between atoms: C5_6  and  C8_10
REMARK    4  A    between atoms: C7_8  and  O2_9
REMARK    5  A    between atoms: C14_18  and  O7_24
REMARK    6  A    between atoms: C15_19  and  O6_22
REMARK    7  A    between atoms: C16_20  and  O5_21
REMARK    8  A    between atoms: O6_22  and  C17_23
REMARK                            x       y       z     vdW  Elec       q    Type
REMARK                         _______ _______ _______ _____ _____    ______ ____
ROOT
ATOM      7  C   UNL     1      47.856  16.160  17.903  0.00  0.00    +0.206 A 
ATOM      8  C   UNL     1      47.278  16.952  18.846  0.00  0.00    -0.144 A 
ATOM      9  C   UNL     1      47.874  18.192  19.174  0.00  0.00    +0.427 A 
ATOM     10  C   UNL     1      49.110  18.561  18.464  0.00  0.00    -0.300 A 
ATOM     11  C   UNL     1      49.624  17.669  17.506  0.00  0.00    +0.230 A 
ATOM     12  C   UNL     1      50.786  17.994  16.825  0.00  0.00    -0.069 A 
ATOM     13  C   UNL     1      51.431  19.194  17.085  0.00  0.00    +0.252 A 
ATOM     16  C   UNL     1      50.928  20.077  18.037  0.00  0.00    -0.137 A 
ATOM     19  C   UNL     1      49.766  19.769  18.727  0.00  0.00    +0.276 A 
ATOM     22  O   UNL     1      47.383  18.928  20.016  0.00  0.00    -0.456 OA
ATOM     23  O   UNL     1      48.982  16.506  17.261  0.00  0.00    -0.216 OA
ENDROOT
BRANCH   7   6
ATOM      3  C   UNL     1      46.026  12.444  16.952  0.00  0.00    +0.118 A 
ATOM      4  C   UNL     1      47.150  12.864  16.253  0.00  0.00    -0.029 A 
ATOM      5  C   UNL     1      47.742  14.070  16.555  0.00  0.00    +0.064 A 
ATOM      6  C   UNL     1      47.219  14.870  17.574  0.00  0.00    -0.071 A 
ATOM     24  C   UNL     1      46.088  14.447  18.278  0.00  0.00    +0.005 A 
ATOM     25  C   UNL     1      45.495  13.239  17.965  0.00  0.00    +0.128 A 
BRANCH   3   2
ATOM      1  C   UNL     1      45.794  10.663  15.394  0.00  0.00    +0.243 C 
ATOM      2  O   UNL     1      45.443  11.256  16.646  0.00  0.00    -0.301 OA
ENDBRANCH   3   2
BRANCH  25  26
ATOM     26  O   UNL     1      44.394  12.826  18.649  0.00  0.00    -0.497 OA
ATOM     27  H   UNL     1      43.832  11.946  18.305  0.00  0.00    +0.436 HD
ENDBRANCH  25  26
ENDBRANCH   7   6
BRANCH  13  14
ATOM     14  O   UNL     1      52.567  19.506  16.410  0.00  0.00    -0.487 OA
ATOM     15  H   UNL     1      53.247  18.708  16.078  0.00  0.00    +0.446 HD
ENDBRANCH  13  14
BRANCH  16  17
ATOM     17  O   UNL     1      51.574  21.250  18.285  0.00  0.00    -0.318 OA
ATOM     18  C   UNL     1      52.524  21.254  19.353  0.00  0.00    +0.215 C 
ENDBRANCH  16  17
BRANCH  19  20
ATOM     20  O   UNL     1      49.270  20.630  19.652  0.00  0.00    -0.460 OA
ATOM     21  H   UNL     1      48.795  20.243  20.565  0.00  0.00    +0.439 HD
ENDBRANCH  19  20
TORSDOF 6
ENDMDL
