MODEL 1
REMARK VINA RESULT:      -5.9      0.000      0.000
REMARK  Name = ZINC32296267
REMARK  7 active torsions:
REMARK  status: ('A' for Active; 'I' for Inactive)
REMARK    1  A    between atoms: C1_1  and  C2_2
REMARK    2  A    between atoms: C2_2  and  O2_4
REMARK    3  A    between atoms: O2_4  and  C3_5
REMARK    4  A    between atoms: C5_7  and  C9_14
REMARK    5  A    between atoms: C9_14  and  O5_15
REMARK    6  A    between atoms: O5_15  and  C10_16
REMARK    7  A    between atoms: C10_16  and  C11_18
REMARK                            x       y       z     vdW  Elec       q    Type
REMARK                         _______ _______ _______ _____ _____    ______ ____
ROOT
ATOM      4  C   UNL     1      42.200  19.699  19.312  0.00  0.00    +0.106 C 
ATOM      5  C   UNL     1      43.504  19.755  19.244  0.00  0.00    -0.011 C 
ATOM      6  C   UNL     1      44.480  19.102  20.161  0.00  0.00    +0.319 C 
ATOM     17  O   UNL     1      44.029  19.058  21.500  0.00  0.00    -0.362 OA
ATOM     18  C   UNL     1      43.024  18.245  21.825  0.00  0.00    +0.512 C 
ATOM     19  C   UNL     1      41.652  18.494  21.423  0.00  0.00    -0.010 C 
ATOM     20  O   UNL     1      43.266  17.253  22.485  0.00  0.00    -0.429 OA
ATOM     21  C   UNL     1      41.328  19.097  20.279  0.00  0.00    +0.067 C 
ENDROOT
BRANCH   4   3
ATOM      3  O   UNL     1      41.558  20.324  18.290  0.00  0.00    -0.310 OA
BRANCH   3   2
ATOM      1  C   UNL     1      39.412  21.521  18.529  0.00  0.00    +0.174 C 
ATOM      2  C   UNL     1      40.918  21.474  18.557  0.00  0.00    +0.459 C 
ATOM     22  O   UNL     1      41.549  22.469  18.821  0.00  0.00    -0.491 OA
ENDBRANCH   3   2
ENDBRANCH   4   3
BRANCH   6   7
ATOM      7  C   UNL     1      44.728  17.670  19.680  0.00  0.00    +0.203 C 
BRANCH   7   8
ATOM      8  O   UNL     1      46.135  17.435  19.592  0.00  0.00    -0.333 OA
BRANCH   8   9
ATOM      9  C   UNL     1      46.750  17.824  18.458  0.00  0.00    +0.513 C 
ATOM     16  O   UNL     1      46.331  17.451  17.381  0.00  0.00    -0.501 OA
BRANCH   9  10
ATOM     10  C   UNL     1      47.936  18.702  18.526  0.00  0.00    -0.127 A 
ATOM     11  C   UNL     1      47.816  20.006  19.009  0.00  0.00    +0.082 A 
ATOM     12  C   UNL     1      48.928  20.821  19.069  0.00  0.00    +0.001 A 
ATOM     13  C   UNL     1      50.159  20.349  18.650  0.00  0.00    +0.050 A 
ATOM     14  C   UNL     1      50.284  19.057  18.169  0.00  0.00    +0.003 A 
ATOM     15  C   UNL     1      49.183  18.230  18.110  0.00  0.00    +0.084 A 
ENDBRANCH   9  10
ENDBRANCH   8   9
ENDBRANCH   7   8
ENDBRANCH   6   7
TORSDOF 6
ENDMDL
MODEL 2
REMARK VINA RESULT:      -5.7      2.019      3.018
REMARK  Name = ZINC32296267
REMARK  7 active torsions:
REMARK  status: ('A' for Active; 'I' for Inactive)
REMARK    1  A    between atoms: C1_1  and  C2_2
REMARK    2  A    between atoms: C2_2  and  O2_4
REMARK    3  A    between atoms: O2_4  and  C3_5
REMARK    4  A    between atoms: C5_7  and  C9_14
REMARK    5  A    between atoms: C9_14  and  O5_15
REMARK    6  A    between atoms: O5_15  and  C10_16
REMARK    7  A    between atoms: C10_16  and  C11_18
REMARK                            x       y       z     vdW  Elec       q    Type
REMARK                         _______ _______ _______ _____ _____    ______ ____
ROOT
ATOM      4  C   UNL     1      43.644  20.237  19.578  0.00  0.00    +0.106 C 
ATOM      5  C   UNL     1      44.311  19.722  18.579  0.00  0.00    -0.011 C 
ATOM      6  C   UNL     1      45.778  19.815  18.338  0.00  0.00    +0.319 C 
ATOM     17  O   UNL     1      46.325  21.052  18.748  0.00  0.00    -0.362 OA
ATOM     18  C   UNL     1      46.418  21.326  20.049  0.00  0.00    +0.512 C 
ATOM     19  C   UNL     1      45.262  21.619  20.875  0.00  0.00    -0.010 C 
ATOM     20  O   UNL     1      47.518  21.329  20.568  0.00  0.00    -0.429 OA
ATOM     21  C   UNL     1      44.061  21.078  20.662  0.00  0.00    +0.067 C 
ENDROOT
BRANCH   4   3
ATOM      3  O   UNL     1      42.321  19.923  19.589  0.00  0.00    -0.310 OA
BRANCH   3   2
ATOM      1  C   UNL     1      41.328  22.006  18.711  0.00  0.00    +0.174 C 
ATOM      2  C   UNL     1      41.526  20.513  18.682  0.00  0.00    +0.459 C 
ATOM     22  O   UNL     1      40.971  19.846  17.841  0.00  0.00    -0.491 OA
ENDBRANCH   3   2
ENDBRANCH   4   3
BRANCH   6   7
ATOM      7  C   UNL     1      46.477  18.691  19.106  0.00  0.00    +0.203 C 
BRANCH   7   8
ATOM      8  O   UNL     1      47.650  18.287  18.398  0.00  0.00    -0.333 OA
BRANCH   8   9
ATOM      9  C   UNL     1      48.836  18.554  18.979  0.00  0.00    +0.513 C 
ATOM     16  O   UNL     1      49.027  18.252  20.139  0.00  0.00    -0.501 OA
BRANCH   9  10
ATOM     10  C   UNL     1      49.905  19.218  18.203  0.00  0.00    -0.127 A 
ATOM     11  C   UNL     1      50.230  20.552  18.456  0.00  0.00    +0.082 A 
ATOM     12  C   UNL     1      51.228  21.165  17.727  0.00  0.00    +0.001 A 
ATOM     13  C   UNL     1      51.905  20.461  16.747  0.00  0.00    +0.050 A 
ATOM     14  C   UNL     1      51.587  19.139  16.491  0.00  0.00    +0.003 A 
ATOM     15  C   UNL     1      50.595  18.512  17.215  0.00  0.00    +0.084 A 
ENDBRANCH   9  10
ENDBRANCH   8   9
ENDBRANCH   7   8
ENDBRANCH   6   7
TORSDOF 6
ENDMDL
MODEL 3
REMARK VINA RESULT:      -5.5      2.525      4.053
REMARK  Name = ZINC32296267
REMARK  7 active torsions:
REMARK  status: ('A' for Active; 'I' for Inactive)
REMARK    1  A    between atoms: C1_1  and  C2_2
REMARK    2  A    between atoms: C2_2  and  O2_4
REMARK    3  A    between atoms: O2_4  and  C3_5
REMARK    4  A    between atoms: C5_7  and  C9_14
REMARK    5  A    between atoms: C9_14  and  O5_15
REMARK    6  A    between atoms: O5_15  and  C10_16
REMARK    7  A    between atoms: C10_16  and  C11_18
REMARK                            x       y       z     vdW  Elec       q    Type
REMARK                         _______ _______ _______ _____ _____    ______ ____
ROOT
ATOM      4  C   UNL     1      44.926  20.790  20.064  0.00  0.00    +0.106 C 
ATOM      5  C   UNL     1      46.036  20.776  20.755  0.00  0.00    -0.011 C 
ATOM      6  C   UNL     1      47.262  19.980  20.466  0.00  0.00    +0.319 C 
ATOM     17  O   UNL     1      46.975  18.712  19.914  0.00  0.00    -0.362 OA
ATOM     18  C   UNL     1      46.506  18.632  18.668  0.00  0.00    +0.512 C 
ATOM     19  C   UNL     1      45.161  19.038  18.308  0.00  0.00    -0.010 C 
ATOM     20  O   UNL     1      47.237  18.201  17.796  0.00  0.00    -0.429 OA
ATOM     21  C   UNL     1      44.514  20.032  18.919  0.00  0.00    +0.067 C 
ENDROOT
BRANCH   4   3
ATOM      3  O   UNL     1      43.998  21.677  20.513  0.00  0.00    -0.310 OA
BRANCH   3   2
ATOM      1  C   UNL     1      44.653  23.736  19.318  0.00  0.00    +0.174 C 
ATOM      2  C   UNL     1      43.644  22.684  19.699  0.00  0.00    +0.459 C 
ATOM     22  O   UNL     1      42.515  22.747  19.272  0.00  0.00    -0.491 OA
ENDBRANCH   3   2
ENDBRANCH   4   3
BRANCH   6   7
ATOM      7  C   UNL     1      48.135  20.759  19.480  0.00  0.00    +0.203 C 
BRANCH   7   8
ATOM      8  O   UNL     1      49.473  20.826  19.978  0.00  0.00    -0.333 OA
BRANCH   8   9
ATOM      9  C   UNL     1      50.324  19.863  19.573  0.00  0.00    +0.513 C 
ATOM     16  O   UNL     1      50.666  18.991  20.344  0.00  0.00    -0.501 OA
BRANCH   9  10
ATOM     10  C   UNL     1      50.843  19.872  18.189  0.00  0.00    -0.127 A 
ATOM     11  C   UNL     1      50.921  18.683  17.462  0.00  0.00    +0.082 A 
ATOM     12  C   UNL     1      51.407  18.698  16.171  0.00  0.00    +0.001 A 
ATOM     13  C   UNL     1      51.817  19.889  15.597  0.00  0.00    +0.050 A 
ATOM     14  C   UNL     1      51.743  21.071  16.313  0.00  0.00    +0.003 A 
ATOM     15  C   UNL     1      51.254  21.071  17.602  0.00  0.00    +0.084 A 
ENDBRANCH   9  10
ENDBRANCH   8   9
ENDBRANCH   7   8
ENDBRANCH   6   7
TORSDOF 6
ENDMDL
MODEL 4
REMARK VINA RESULT:      -5.3      2.994      5.047
REMARK  Name = ZINC32296267
REMARK  7 active torsions:
REMARK  status: ('A' for Active; 'I' for Inactive)
REMARK    1  A    between atoms: C1_1  and  C2_2
REMARK    2  A    between atoms: C2_2  and  O2_4
REMARK    3  A    between atoms: O2_4  and  C3_5
REMARK    4  A    between atoms: C5_7  and  C9_14
REMARK    5  A    between atoms: C9_14  and  O5_15
REMARK    6  A    between atoms: O5_15  and  C10_16
REMARK    7  A    between atoms: C10_16  and  C11_18
REMARK                            x       y       z     vdW  Elec       q    Type
REMARK                         _______ _______ _______ _____ _____    ______ ____
ROOT
ATOM      4  C   UNL     1      45.986  17.329  18.029  0.00  0.00    +0.106 C 
ATOM      5  C   UNL     1      46.211  18.614  17.936  0.00  0.00    -0.011 C 
ATOM      6  C   UNL     1      46.087  19.627  19.021  0.00  0.00    +0.319 C 
ATOM     17  O   UNL     1      45.031  19.346  19.917  0.00  0.00    -0.362 OA
ATOM     18  C   UNL     1      45.140  18.313  20.753  0.00  0.00    +0.512 C 
ATOM     19  C   UNL     1      45.067  16.933  20.311  0.00  0.00    -0.010 C 
ATOM     20  O   UNL     1      45.309  18.536  21.937  0.00  0.00    -0.429 OA
ATOM     21  C   UNL     1      45.498  16.529  19.114  0.00  0.00    +0.067 C 
ENDROOT
BRANCH   4   3
ATOM      3  O   UNL     1      46.260  16.630  16.896  0.00  0.00    -0.310 OA
BRANCH   3   2
ATOM      1  C   UNL     1      48.547  15.802  17.325  0.00  0.00    +0.174 C 
ATOM      2  C   UNL     1      47.094  15.582  16.989  0.00  0.00    +0.459 C 
ATOM     22  O   UNL     1      46.680  14.462  16.803  0.00  0.00    -0.491 OA
ENDBRANCH   3   2
ENDBRANCH   4   3
BRANCH   6   7
ATOM      7  C   UNL     1      47.399  19.670  19.809  0.00  0.00    +0.203 C 
BRANCH   7   8
ATOM      8  O   UNL     1      48.354  20.462  19.100  0.00  0.00    -0.333 OA
BRANCH   8   9
ATOM      9  C   UNL     1      49.649  20.110  19.222  0.00  0.00    +0.513 C 
ATOM     16  O   UNL     1      50.121  19.897  20.320  0.00  0.00    -0.501 OA
BRANCH   9  10
ATOM     10  C   UNL     1      50.496  19.987  18.017  0.00  0.00    -0.127 A 
ATOM     11  C   UNL     1      50.722  18.734  17.444  0.00  0.00    +0.082 A 
ATOM     12  C   UNL     1      51.515  18.627  16.320  0.00  0.00    +0.001 A 
ATOM     13  C   UNL     1      52.086  19.757  15.761  0.00  0.00    +0.050 A 
ATOM     14  C   UNL     1      51.867  21.001  16.325  0.00  0.00    +0.003 A 
ATOM     15  C   UNL     1      51.072  21.124  17.446  0.00  0.00    +0.084 A 
ENDBRANCH   9  10
ENDBRANCH   8   9
ENDBRANCH   7   8
ENDBRANCH   6   7
TORSDOF 6
ENDMDL
MODEL 5
REMARK VINA RESULT:      -5.3      3.882      6.238
REMARK  Name = ZINC32296267
REMARK  7 active torsions:
REMARK  status: ('A' for Active; 'I' for Inactive)
REMARK    1  A    between atoms: C1_1  and  C2_2
REMARK    2  A    between atoms: C2_2  and  O2_4
REMARK    3  A    between atoms: O2_4  and  C3_5
REMARK    4  A    between atoms: C5_7  and  C9_14
REMARK    5  A    between atoms: C9_14  and  O5_15
REMARK    6  A    between atoms: O5_15  and  C10_16
REMARK    7  A    between atoms: C10_16  and  C11_18
REMARK                            x       y       z     vdW  Elec       q    Type
REMARK                         _______ _______ _______ _____ _____    ______ ____
ROOT
ATOM      4  C   UNL     1      46.552  14.562  17.324  0.00  0.00    +0.106 C 
ATOM      5  C   UNL     1      46.807  15.705  16.743  0.00  0.00    -0.011 C 
ATOM      6  C   UNL     1      46.650  17.065  17.331  0.00  0.00    +0.319 C 
ATOM     17  O   UNL     1      45.545  17.160  18.206  0.00  0.00    -0.362 OA
ATOM     18  C   UNL     1      45.591  16.543  19.387  0.00  0.00    +0.512 C 
ATOM     19  C   UNL     1      45.512  15.101  19.523  0.00  0.00    -0.010 C 
ATOM     20  O   UNL     1      45.705  17.217  20.393  0.00  0.00    -0.429 OA
ATOM     21  C   UNL     1      45.994  14.257  18.609  0.00  0.00    +0.067 C 
ENDROOT
BRANCH   4   3
ATOM      3  O   UNL     1      46.868  13.472  16.577  0.00  0.00    -0.310 OA
BRANCH   3   2
ATOM      1  C   UNL     1      49.153  13.044  17.410  0.00  0.00    +0.174 C 
ATOM      2  C   UNL     1      48.163  13.255  16.293  0.00  0.00    +0.459 C 
ATOM     22  O   UNL     1      48.533  13.228  15.144  0.00  0.00    -0.491 OA
ENDBRANCH   3   2
ENDBRANCH   4   3
BRANCH   6   7
ATOM      7  C   UNL     1      47.921  17.418  18.106  0.00  0.00    +0.203 C 
BRANCH   7   8
ATOM      8  O   UNL     1      49.065  16.972  17.374  0.00  0.00    -0.333 OA
BRANCH   8   9
ATOM      9  C   UNL     1      50.268  17.408  17.796  0.00  0.00    +0.513 C 
ATOM     16  O   UNL     1      50.908  16.750  18.590  0.00  0.00    -0.501 OA
BRANCH   9  10
ATOM     10  C   UNL     1      50.806  18.688  17.293  0.00  0.00    -0.127 A 
ATOM     11  C   UNL     1      50.634  19.861  18.032  0.00  0.00    +0.082 A 
ATOM     12  C   UNL     1      51.139  21.053  17.556  0.00  0.00    +0.001 A 
ATOM     13  C   UNL     1      51.814  21.089  16.349  0.00  0.00    +0.050 A 
ATOM     14  C   UNL     1      51.989  19.931  15.612  0.00  0.00    +0.003 A 
ATOM     15  C   UNL     1      51.494  18.731  16.078  0.00  0.00    +0.084 A 
ENDBRANCH   9  10
ENDBRANCH   8   9
ENDBRANCH   7   8
ENDBRANCH   6   7
TORSDOF 6
ENDMDL
MODEL 6
REMARK VINA RESULT:      -5.2      2.437      4.307
REMARK  Name = ZINC32296267
REMARK  7 active torsions:
REMARK  status: ('A' for Active; 'I' for Inactive)
REMARK    1  A    between atoms: C1_1  and  C2_2
REMARK    2  A    between atoms: C2_2  and  O2_4
REMARK    3  A    between atoms: O2_4  and  C3_5
REMARK    4  A    between atoms: C5_7  and  C9_14
REMARK    5  A    between atoms: C9_14  and  O5_15
REMARK    6  A    between atoms: O5_15  and  C10_16
REMARK    7  A    between atoms: C10_16  and  C11_18
REMARK                            x       y       z     vdW  Elec       q    Type
REMARK                         _______ _______ _______ _____ _____    ______ ____
ROOT
ATOM      4  C   UNL     1      45.366  19.836  19.178  0.00  0.00    +0.106 C 
ATOM      5  C   UNL     1      46.155  19.958  20.213  0.00  0.00    -0.011 C 
ATOM      6  C   UNL     1      47.484  19.313  20.410  0.00  0.00    +0.319 C 
ATOM     17  O   UNL     1      47.553  18.017  19.851  0.00  0.00    -0.362 OA
ATOM     18  C   UNL     1      47.565  17.876  18.526  0.00  0.00    +0.512 C 
ATOM     19  C   UNL     1      46.398  18.116  17.699  0.00  0.00    -0.010 C 
ATOM     20  O   UNL     1      48.600  17.532  17.985  0.00  0.00    -0.429 OA
ATOM     21  C   UNL     1      45.471  19.028  17.998  0.00  0.00    +0.067 C 
ENDROOT
BRANCH   4   3
ATOM      3  O   UNL     1      44.248  20.607  19.233  0.00  0.00    -0.310 OA
BRANCH   3   2
ATOM      1  C   UNL     1      41.874  20.403  18.583  0.00  0.00    +0.174 C 
ATOM      2  C   UNL     1      43.067  19.993  19.408  0.00  0.00    +0.459 C 
ATOM     22  O   UNL     1      42.961  19.111  20.227  0.00  0.00    -0.491 OA
ENDBRANCH   3   2
ENDBRANCH   4   3
BRANCH   6   7
ATOM      7  C   UNL     1      48.558  20.187  19.756  0.00  0.00    +0.203 C 
BRANCH   7   8
ATOM      8  O   UNL     1      49.819  19.937  20.379  0.00  0.00    -0.333 OA
BRANCH   8   9
ATOM      9  C   UNL     1      50.896  20.542  19.841  0.00  0.00    +0.513 C 
ATOM     16  O   UNL     1      51.587  21.271  20.522  0.00  0.00    -0.501 OA
BRANCH   9  10
ATOM     10  C   UNL     1      51.235  20.319  18.420  0.00  0.00    -0.127 A 
ATOM     11  C   UNL     1      51.145  21.369  17.504  0.00  0.00    +0.082 A 
ATOM     12  C   UNL     1      51.462  21.153  16.179  0.00  0.00    +0.001 A 
ATOM     13  C   UNL     1      51.867  19.899  15.756  0.00  0.00    +0.050 A 
ATOM     14  C   UNL     1      51.956  18.853  16.659  0.00  0.00    +0.003 A 
ATOM     15  C   UNL     1      51.649  19.056  17.988  0.00  0.00    +0.084 A 
ENDBRANCH   9  10
ENDBRANCH   8   9
ENDBRANCH   7   8
ENDBRANCH   6   7
TORSDOF 6
ENDMDL
MODEL 7
REMARK VINA RESULT:      -5.2      1.884      2.782
REMARK  Name = ZINC32296267
REMARK  7 active torsions:
REMARK  status: ('A' for Active; 'I' for Inactive)
REMARK    1  A    between atoms: C1_1  and  C2_2
REMARK    2  A    between atoms: C2_2  and  O2_4
REMARK    3  A    between atoms: O2_4  and  C3_5
REMARK    4  A    between atoms: C5_7  and  C9_14
REMARK    5  A    between atoms: C9_14  and  O5_15
REMARK    6  A    between atoms: O5_15  and  C10_16
REMARK    7  A    between atoms: C10_16  and  C11_18
REMARK                            x       y       z     vdW  Elec       q    Type
REMARK                         _______ _______ _______ _____ _____    ______ ____
ROOT
ATOM      4  C   UNL     1      44.441  19.206  19.270  0.00  0.00    +0.106 C 
ATOM      5  C   UNL     1      45.703  19.498  19.095  0.00  0.00    -0.011 C 
ATOM      6  C   UNL     1      46.864  18.945  19.849  0.00  0.00    +0.319 C 
ATOM     17  O   UNL     1      46.568  18.697  21.208  0.00  0.00    -0.362 OA
ATOM     18  C   UNL     1      45.751  17.694  21.527  0.00  0.00    +0.512 C 
ATOM     19  C   UNL     1      44.323  17.732  21.275  0.00  0.00    -0.010 C 
ATOM     20  O   UNL     1      46.222  16.702  22.052  0.00  0.00    -0.429 OA
ATOM     21  C   UNL     1      43.786  18.373  20.236  0.00  0.00    +0.067 C 
ENDROOT
BRANCH   4   3
ATOM      3  O   UNL     1      43.601  19.801  18.381  0.00  0.00    -0.310 OA
BRANCH   3   2
ATOM      1  C   UNL     1      41.186  20.260  18.608  0.00  0.00    +0.174 C 
ATOM      2  C   UNL     1      42.633  20.596  18.864  0.00  0.00    +0.459 C 
ATOM     22  O   UNL     1      42.921  21.579  19.504  0.00  0.00    -0.491 OA
ENDBRANCH   3   2
ENDBRANCH   4   3
BRANCH   6   7
ATOM      7  C   UNL     1      47.296  17.630  19.194  0.00  0.00    +0.203 C 
BRANCH   7   8
ATOM      8  O   UNL     1      48.108  17.911  18.053  0.00  0.00    -0.333 OA
BRANCH   8   9
ATOM      9  C   UNL     1      49.443  17.860  18.226  0.00  0.00    +0.513 C 
ATOM     16  O   UNL     1      49.938  16.962  18.875  0.00  0.00    -0.501 OA
BRANCH   9  10
ATOM     10  C   UNL     1      50.305  18.900  17.627  0.00  0.00    -0.127 A 
ATOM     11  C   UNL     1      51.096  18.602  16.515  0.00  0.00    +0.082 A 
ATOM     12  C   UNL     1      51.899  19.578  15.962  0.00  0.00    +0.001 A 
ATOM     13  C   UNL     1      51.923  20.849  16.506  0.00  0.00    +0.050 A 
ATOM     14  C   UNL     1      51.142  21.151  17.609  0.00  0.00    +0.003 A 
ATOM     15  C   UNL     1      50.331  20.188  18.169  0.00  0.00    +0.084 A 
ENDBRANCH   9  10
ENDBRANCH   8   9
ENDBRANCH   7   8
ENDBRANCH   6   7
TORSDOF 6
ENDMDL
MODEL 8
REMARK VINA RESULT:      -5.2      2.226      4.645
REMARK  Name = ZINC32296267
REMARK  7 active torsions:
REMARK  status: ('A' for Active; 'I' for Inactive)
REMARK    1  A    between atoms: C1_1  and  C2_2
REMARK    2  A    between atoms: C2_2  and  O2_4
REMARK    3  A    between atoms: O2_4  and  C3_5
REMARK    4  A    between atoms: C5_7  and  C9_14
REMARK    5  A    between atoms: C9_14  and  O5_15
REMARK    6  A    between atoms: O5_15  and  C10_16
REMARK    7  A    between atoms: C10_16  and  C11_18
REMARK                            x       y       z     vdW  Elec       q    Type
REMARK                         _______ _______ _______ _____ _____    ______ ____
ROOT
ATOM      4  C   UNL     1      45.864  17.599  18.735  0.00  0.00    +0.106 C 
ATOM      5  C   UNL     1      45.727  18.740  18.112  0.00  0.00    -0.011 C 
ATOM      6  C   UNL     1      44.852  19.879  18.509  0.00  0.00    +0.319 C 
ATOM     17  O   UNL     1      43.641  19.460  19.103  0.00  0.00    -0.362 OA
ATOM     18  C   UNL     1      43.662  18.918  20.321  0.00  0.00    +0.512 C 
ATOM     19  C   UNL     1      44.191  17.593  20.582  0.00  0.00    -0.010 C 
ATOM     20  O   UNL     1      43.221  19.562  21.253  0.00  0.00    -0.429 OA
ATOM     21  C   UNL     1      45.201  17.064  19.888  0.00  0.00    +0.067 C 
ENDROOT
BRANCH   4   3
ATOM      3  O   UNL     1      46.797  16.773  18.191  0.00  0.00    -0.310 OA
BRANCH   3   2
ATOM      1  C   UNL     1      48.941  17.440  17.163  0.00  0.00    +0.174 C 
ATOM      2  C   UNL     1      48.091  17.088  18.358  0.00  0.00    +0.459 C 
ATOM     22  O   UNL     1      48.575  17.091  19.465  0.00  0.00    -0.491 OA
ENDBRANCH   3   2
ENDBRANCH   4   3
BRANCH   6   7
ATOM      7  C   UNL     1      45.609  20.758  19.508  0.00  0.00    +0.203 C 
BRANCH   7   8
ATOM      8  O   UNL     1      46.979  20.857  19.113  0.00  0.00    -0.333 OA
BRANCH   8   9
ATOM      9  C   UNL     1      47.905  20.523  20.033  0.00  0.00    +0.513 C 
ATOM     16  O   UNL     1      47.562  20.065  21.103  0.00  0.00    -0.501 OA
BRANCH   9  10
ATOM     10  C   UNL     1      49.340  20.719  19.739  0.00  0.00    -0.127 A 
ATOM     11  C   UNL     1      49.765  20.931  18.426  0.00  0.00    +0.082 A 
ATOM     12  C   UNL     1      51.106  21.111  18.159  0.00  0.00    +0.001 A 
ATOM     13  C   UNL     1      52.030  21.082  19.189  0.00  0.00    +0.050 A 
ATOM     14  C   UNL     1      51.616  20.871  20.493  0.00  0.00    +0.003 A 
ATOM     15  C   UNL     1      50.277  20.695  20.775  0.00  0.00    +0.084 A 
ENDBRANCH   9  10
ENDBRANCH   8   9
ENDBRANCH   7   8
ENDBRANCH   6   7
TORSDOF 6
ENDMDL
MODEL 9
REMARK VINA RESULT:      -5.1      2.460      4.873
REMARK  Name = ZINC32296267
REMARK  7 active torsions:
REMARK  status: ('A' for Active; 'I' for Inactive)
REMARK    1  A    between atoms: C1_1  and  C2_2
REMARK    2  A    between atoms: C2_2  and  O2_4
REMARK    3  A    between atoms: O2_4  and  C3_5
REMARK    4  A    between atoms: C5_7  and  C9_14
REMARK    5  A    between atoms: C9_14  and  O5_15
REMARK    6  A    between atoms: O5_15  and  C10_16
REMARK    7  A    between atoms: C10_16  and  C11_18
REMARK                            x       y       z     vdW  Elec       q    Type
REMARK                         _______ _______ _______ _____ _____    ______ ____
ROOT
ATOM      4  C   UNL     1      45.089  16.927  19.694  0.00  0.00    +0.106 C 
ATOM      5  C   UNL     1      45.857  17.184  18.668  0.00  0.00    -0.011 C 
ATOM      6  C   UNL     1      46.102  18.514  18.041  0.00  0.00    +0.319 C 
ATOM     17  O   UNL     1      44.961  19.348  18.061  0.00  0.00    -0.362 OA
ATOM     18  C   UNL     1      44.544  19.856  19.221  0.00  0.00    +0.512 C 
ATOM     19  C   UNL     1      43.912  19.052  20.249  0.00  0.00    -0.010 C 
ATOM     20  O   UNL     1      44.700  21.045  19.426  0.00  0.00    -0.429 OA
ATOM     21  C   UNL     1      44.217  17.770  20.459  0.00  0.00    +0.067 C 
ENDROOT
BRANCH   4   3
ATOM      3  O   UNL     1      45.119  15.631  20.104  0.00  0.00    -0.310 OA
BRANCH   3   2
ATOM      1  C   UNL     1      46.942  13.967  20.027  0.00  0.00    +0.174 C 
ATOM      2  C   UNL     1      46.260  15.165  20.637  0.00  0.00    +0.459 C 
ATOM     22  O   UNL     1      46.741  15.707  21.603  0.00  0.00    -0.491 OA
ENDBRANCH   3   2
ENDBRANCH   4   3
BRANCH   6   7
ATOM      7  C   UNL     1      47.235  19.214  18.795  0.00  0.00    +0.203 C 
BRANCH   7   8
ATOM      8  O   UNL     1      48.271  18.272  19.079  0.00  0.00    -0.333 OA
BRANCH   8   9
ATOM      9  C   UNL     1      49.508  18.767  19.282  0.00  0.00    +0.513 C 
ATOM     16  O   UNL     1      49.975  18.795  20.402  0.00  0.00    -0.501 OA
BRANCH   9  10
ATOM     10  C   UNL     1      50.294  19.277  18.140  0.00  0.00    -0.127 A 
ATOM     11  C   UNL     1      50.669  18.417  17.106  0.00  0.00    +0.082 A 
ATOM     12  C   UNL     1      51.404  18.900  16.044  0.00  0.00    +0.001 A 
ATOM     13  C   UNL     1      51.772  20.233  16.002  0.00  0.00    +0.050 A 
ATOM     14  C   UNL     1      51.404  21.091  17.024  0.00  0.00    +0.003 A 
ATOM     15  C   UNL     1      50.664  20.623  18.089  0.00  0.00    +0.084 A 
ENDBRANCH   9  10
ENDBRANCH   8   9
ENDBRANCH   7   8
ENDBRANCH   6   7
TORSDOF 6
ENDMDL
