MODEL 1
REMARK VINA RESULT:      -3.9      0.000      0.000
REMARK  Name = ZINC33950770
REMARK  6 active torsions:
REMARK  status: ('A' for Active; 'I' for Inactive)
REMARK    1  A    between atoms: C1_1  and  C2_2
REMARK    2  A    between atoms: C2_2  and  C10_11
REMARK    3  A    between atoms: C3_3  and  C4_4
REMARK    4  A    between atoms: C4_4  and  C5_6
REMARK    5  A    between atoms: C5_6  and  C6_7
REMARK    6  A    between atoms: C6_7  and  C8_9
REMARK                            x       y       z     vdW  Elec       q    Type
REMARK                         _______ _______ _______ _____ _____    ______ ____
ROOT
ATOM      5  C   UNL     1      51.621  20.979  18.799  0.00  0.00    +0.379 C 
ATOM     11  O   UNL     1      52.152  21.754  19.567  0.00  0.00    -0.447 OA
ENDROOT
BRANCH   5   4
ATOM      1  C   UNL     1      49.861  19.395  20.339  0.00  0.00    +0.098 C 
ATOM      2  C   UNL     1      49.334  20.380  19.329  0.00  0.00    -0.023 C 
ATOM      3  C   UNL     1      47.848  20.595  19.191  0.00  0.00    +0.095 C 
ATOM      4  C   UNL     1      50.181  21.062  18.556  0.00  0.00    -0.138 C 
ENDBRANCH   5   4
BRANCH   5   6
ATOM      6  C   UNL     1      52.444  19.933  18.094  0.00  0.00    +0.076 C 
BRANCH   6   7
ATOM      7  C   UNL     1      52.013  19.839  16.653  0.00  0.00    -0.091 C 
ATOM     10  C   UNL     1      52.085  20.909  15.868  0.00  0.00    +0.038 C 
BRANCH   7   8
ATOM      8  C   UNL     1      51.511  18.564  16.117  0.00  0.00    -0.001 C 
ATOM      9  C   UNL     1      50.648  17.842  16.821  0.00  0.00    +0.015 C 
ENDBRANCH   7   8
ENDBRANCH   6   7
ENDBRANCH   5   6
TORSDOF 4
ENDMDL
MODEL 2
REMARK VINA RESULT:      -3.9      5.924      8.496
REMARK  Name = ZINC33950770
REMARK  6 active torsions:
REMARK  status: ('A' for Active; 'I' for Inactive)
REMARK    1  A    between atoms: C1_1  and  C2_2
REMARK    2  A    between atoms: C2_2  and  C10_11
REMARK    3  A    between atoms: C3_3  and  C4_4
REMARK    4  A    between atoms: C4_4  and  C5_6
REMARK    5  A    between atoms: C5_6  and  C6_7
REMARK    6  A    between atoms: C6_7  and  C8_9
REMARK                            x       y       z     vdW  Elec       q    Type
REMARK                         _______ _______ _______ _____ _____    ______ ____
ROOT
ATOM      5  C   UNL     1      44.141  19.932  20.676  0.00  0.00    +0.379 C 
ATOM     11  O   UNL     1      44.775  19.378  21.549  0.00  0.00    -0.447 OA
ENDROOT
BRANCH   5   4
ATOM      1  C   UNL     1      45.777  21.257  18.792  0.00  0.00    +0.098 C 
ATOM      2  C   UNL     1      44.823  22.027  19.668  0.00  0.00    -0.023 C 
ATOM      3  C   UNL     1      44.667  23.515  19.485  0.00  0.00    +0.095 C 
ATOM      4  C   UNL     1      44.116  21.392  20.605  0.00  0.00    -0.138 C 
ENDBRANCH   5   4
BRANCH   5   6
ATOM      6  C   UNL     1      43.379  19.116  19.664  0.00  0.00    +0.076 C 
BRANCH   6   7
ATOM      7  C   UNL     1      41.931  19.533  19.669  0.00  0.00    -0.091 C 
ATOM     10  C   UNL     1      41.151  19.211  20.695  0.00  0.00    +0.038 C 
BRANCH   7   8
ATOM      8  C   UNL     1      41.382  20.296  18.537  0.00  0.00    -0.001 C 
ATOM      9  C   UNL     1      40.994  21.554  18.710  0.00  0.00    +0.015 C 
ENDBRANCH   7   8
ENDBRANCH   6   7
ENDBRANCH   5   6
TORSDOF 4
ENDMDL
MODEL 3
REMARK VINA RESULT:      -3.8      5.603      8.062
REMARK  Name = ZINC33950770
REMARK  6 active torsions:
REMARK  status: ('A' for Active; 'I' for Inactive)
REMARK    1  A    between atoms: C1_1  and  C2_2
REMARK    2  A    between atoms: C2_2  and  C10_11
REMARK    3  A    between atoms: C3_3  and  C4_4
REMARK    4  A    between atoms: C4_4  and  C5_6
REMARK    5  A    between atoms: C5_6  and  C6_7
REMARK    6  A    between atoms: C6_7  and  C8_9
REMARK                            x       y       z     vdW  Elec       q    Type
REMARK                         _______ _______ _______ _____ _____    ______ ____
ROOT
ATOM      5  C   UNL     1      43.342  19.936  19.587  0.00  0.00    +0.379 C 
ATOM     11  O   UNL     1      43.602  18.751  19.576  0.00  0.00    -0.447 OA
ENDROOT
BRANCH   5   4
ATOM      1  C   UNL     1      40.669  19.733  20.478  0.00  0.00    +0.098 C 
ATOM      2  C   UNL     1      41.005  20.438  19.190  0.00  0.00    -0.023 C 
ATOM      3  C   UNL     1      39.920  21.125  18.401  0.00  0.00    +0.095 C 
ATOM      4  C   UNL     1      42.264  20.456  18.747  0.00  0.00    -0.138 C 
ENDBRANCH   5   4
BRANCH   5   6
ATOM      6  C   UNL     1      44.129  20.871  20.468  0.00  0.00    +0.076 C 
BRANCH   6   7
ATOM      7  C   UNL     1      44.957  21.793  19.609  0.00  0.00    -0.091 C 
ATOM     10  C   UNL     1      44.796  23.109  19.702  0.00  0.00    +0.038 C 
BRANCH   7   8
ATOM      8  C   UNL     1      45.942  21.236  18.670  0.00  0.00    -0.001 C 
ATOM      9  C   UNL     1      47.085  20.737  19.125  0.00  0.00    +0.015 C 
ENDBRANCH   7   8
ENDBRANCH   6   7
ENDBRANCH   5   6
TORSDOF 4
ENDMDL
MODEL 4
REMARK VINA RESULT:      -3.6     21.612     22.894
REMARK  Name = ZINC33950770
REMARK  6 active torsions:
REMARK  status: ('A' for Active; 'I' for Inactive)
REMARK    1  A    between atoms: C1_1  and  C2_2
REMARK    2  A    between atoms: C2_2  and  C10_11
REMARK    3  A    between atoms: C3_3  and  C4_4
REMARK    4  A    between atoms: C4_4  and  C5_6
REMARK    5  A    between atoms: C5_6  and  C6_7
REMARK    6  A    between atoms: C6_7  and  C8_9
REMARK                            x       y       z     vdW  Elec       q    Type
REMARK                         _______ _______ _______ _____ _____    ______ ____
ROOT
ATOM      5  C   UNL     1      42.641  33.662   1.643  0.00  0.00    +0.379 C 
ATOM     11  O   UNL     1      42.862  34.414   2.570  0.00  0.00    -0.447 OA
ENDROOT
BRANCH   5   4
ATOM      1  C   UNL     1      39.995  33.627   2.633  0.00  0.00    +0.098 C 
ATOM      2  C   UNL     1      40.282  33.998   1.201  0.00  0.00    -0.023 C 
ATOM      3  C   UNL     1      39.160  34.444   0.299  0.00  0.00    +0.095 C 
ATOM      4  C   UNL     1      41.530  33.933   0.732  0.00  0.00    -0.138 C 
ENDBRANCH   5   4
BRANCH   5   6
ATOM      6  C   UNL     1      43.511  32.451   1.431  0.00  0.00    +0.076 C 
BRANCH   6   7
ATOM      7  C   UNL     1      42.716  31.203   1.723  0.00  0.00    -0.091 C 
ATOM     10  C   UNL     1      42.347  30.928   2.969  0.00  0.00    +0.038 C 
BRANCH   7   8
ATOM      8  C   UNL     1      42.351  30.291   0.628  0.00  0.00    -0.001 C 
ATOM      9  C   UNL     1      42.774  30.534  -0.608  0.00  0.00    +0.015 C 
ENDBRANCH   7   8
ENDBRANCH   6   7
ENDBRANCH   5   6
TORSDOF 4
ENDMDL
MODEL 5
REMARK VINA RESULT:      -3.6      5.738      8.791
REMARK  Name = ZINC33950770
REMARK  6 active torsions:
REMARK  status: ('A' for Active; 'I' for Inactive)
REMARK    1  A    between atoms: C1_1  and  C2_2
REMARK    2  A    between atoms: C2_2  and  C10_11
REMARK    3  A    between atoms: C3_3  and  C4_4
REMARK    4  A    between atoms: C4_4  and  C5_6
REMARK    5  A    between atoms: C5_6  and  C6_7
REMARK    6  A    between atoms: C6_7  and  C8_9
REMARK                            x       y       z     vdW  Elec       q    Type
REMARK                         _______ _______ _______ _____ _____    ______ ____
ROOT
ATOM      5  C   UNL     1      43.478  21.379  19.655  0.00  0.00    +0.379 C 
ATOM     11  O   UNL     1      43.239  22.562  19.529  0.00  0.00    -0.447 OA
ENDROOT
BRANCH   5   4
ATOM      1  C   UNL     1      46.104  21.111  18.647  0.00  0.00    +0.098 C 
ATOM      2  C   UNL     1      45.807  20.886  20.107  0.00  0.00    -0.023 C 
ATOM      3  C   UNL     1      46.932  20.600  21.069  0.00  0.00    +0.095 C 
ATOM      4  C   UNL     1      44.549  20.940  20.549  0.00  0.00    -0.138 C 
ENDBRANCH   5   4
BRANCH   5   6
ATOM      6  C   UNL     1      42.671  20.362  18.890  0.00  0.00    +0.076 C 
BRANCH   6   7
ATOM      7  C   UNL     1      41.407  20.050  19.648  0.00  0.00    -0.091 C 
ATOM     10  C   UNL     1      41.393  19.062  20.538  0.00  0.00    +0.038 C 
BRANCH   7   8
ATOM      8  C   UNL     1      40.189  20.838  19.404  0.00  0.00    -0.001 C 
ATOM      9  C   UNL     1      40.037  21.487  18.255  0.00  0.00    +0.015 C 
ENDBRANCH   7   8
ENDBRANCH   6   7
ENDBRANCH   5   6
TORSDOF 4
ENDMDL
MODEL 6
REMARK VINA RESULT:      -3.6      2.339      3.189
REMARK  Name = ZINC33950770
REMARK  6 active torsions:
REMARK  status: ('A' for Active; 'I' for Inactive)
REMARK    1  A    between atoms: C1_1  and  C2_2
REMARK    2  A    between atoms: C2_2  and  C10_11
REMARK    3  A    between atoms: C3_3  and  C4_4
REMARK    4  A    between atoms: C4_4  and  C5_6
REMARK    5  A    between atoms: C5_6  and  C6_7
REMARK    6  A    between atoms: C6_7  and  C8_9
REMARK                            x       y       z     vdW  Elec       q    Type
REMARK                         _______ _______ _______ _____ _____    ______ ____
ROOT
ATOM      5  C   UNL     1      51.251  17.527  17.263  0.00  0.00    +0.379 C 
ATOM     11  O   UNL     1      51.821  16.493  16.984  0.00  0.00    -0.447 OA
ENDROOT
BRANCH   5   4
ATOM      1  C   UNL     1      49.519  17.200  19.471  0.00  0.00    +0.098 C 
ATOM      2  C   UNL     1      48.982  17.569  18.113  0.00  0.00    -0.023 C 
ATOM      3  C   UNL     1      47.513  17.857  17.936  0.00  0.00    +0.095 C 
ATOM      4  C   UNL     1      49.806  17.642  17.066  0.00  0.00    -0.138 C 
ENDBRANCH   5   4
BRANCH   5   6
ATOM      6  C   UNL     1      52.031  18.692  17.815  0.00  0.00    +0.076 C 
BRANCH   6   7
ATOM      7  C   UNL     1      51.810  19.903  16.945  0.00  0.00    -0.091 C 
ATOM     10  C   UNL     1      52.207  19.890  15.677  0.00  0.00    +0.038 C 
BRANCH   7   8
ATOM      8  C   UNL     1      51.155  21.097  17.499  0.00  0.00    -0.001 C 
ATOM      9  C   UNL     1      50.379  20.992  18.572  0.00  0.00    +0.015 C 
ENDBRANCH   7   8
ENDBRANCH   6   7
ENDBRANCH   5   6
TORSDOF 4
ENDMDL
MODEL 7
REMARK VINA RESULT:      -3.6     21.251     22.221
REMARK  Name = ZINC33950770
REMARK  6 active torsions:
REMARK  status: ('A' for Active; 'I' for Inactive)
REMARK    1  A    between atoms: C1_1  and  C2_2
REMARK    2  A    between atoms: C2_2  and  C10_11
REMARK    3  A    between atoms: C3_3  and  C4_4
REMARK    4  A    between atoms: C4_4  and  C5_6
REMARK    5  A    between atoms: C5_6  and  C6_7
REMARK    6  A    between atoms: C6_7  and  C8_9
REMARK                            x       y       z     vdW  Elec       q    Type
REMARK                         _______ _______ _______ _____ _____    ______ ____
ROOT
ATOM      5  C   UNL     1      42.829  31.894   2.150  0.00  0.00    +0.379 C 
ATOM     11  O   UNL     1      42.355  31.207   3.030  0.00  0.00    -0.447 OA
ENDROOT
BRANCH   5   4
ATOM      1  C   UNL     1      43.064  34.666   2.642  0.00  0.00    +0.098 C 
ATOM      2  C   UNL     1      44.279  33.775   2.629  0.00  0.00    -0.023 C 
ATOM      3  C   UNL     1      45.633  34.343   2.969  0.00  0.00    +0.095 C 
ATOM      4  C   UNL     1      44.157  32.483   2.317  0.00  0.00    -0.138 C 
ENDBRANCH   5   4
BRANCH   5   6
ATOM      6  C   UNL     1      42.050  32.139   0.884  0.00  0.00    +0.076 C 
BRANCH   6   7
ATOM      7  C   UNL     1      42.646  31.328  -0.238  0.00  0.00    -0.091 C 
ATOM     10  C   UNL     1      43.308  31.936  -1.218  0.00  0.00    +0.038 C 
BRANCH   7   8
ATOM      8  C   UNL     1      42.494  29.865  -0.249  0.00  0.00    -0.001 C 
ATOM      9  C   UNL     1      43.084  29.143  -1.195  0.00  0.00    +0.015 C 
ENDBRANCH   7   8
ENDBRANCH   6   7
ENDBRANCH   5   6
TORSDOF 4
ENDMDL
MODEL 8
REMARK VINA RESULT:      -3.6      1.676      3.306
REMARK  Name = ZINC33950770
REMARK  6 active torsions:
REMARK  status: ('A' for Active; 'I' for Inactive)
REMARK    1  A    between atoms: C1_1  and  C2_2
REMARK    2  A    between atoms: C2_2  and  C10_11
REMARK    3  A    between atoms: C3_3  and  C4_4
REMARK    4  A    between atoms: C4_4  and  C5_6
REMARK    5  A    between atoms: C5_6  and  C6_7
REMARK    6  A    between atoms: C6_7  and  C8_9
REMARK                            x       y       z     vdW  Elec       q    Type
REMARK                         _______ _______ _______ _____ _____    ______ ____
ROOT
ATOM      5  C   UNL     1      52.194  19.119  19.391  0.00  0.00    +0.379 C 
ATOM     11  O   UNL     1      51.793  18.958  20.525  0.00  0.00    -0.447 OA
ENDROOT
BRANCH   5   4
ATOM      1  C   UNL     1      50.031  17.534  18.503  0.00  0.00    +0.098 C 
ATOM      2  C   UNL     1      51.438  17.252  18.045  0.00  0.00    -0.023 C 
ATOM      3  C   UNL     1      51.697  16.167  17.031  0.00  0.00    +0.095 C 
ATOM      4  C   UNL     1      52.455  17.962  18.536  0.00  0.00    -0.138 C 
ENDBRANCH   5   4
BRANCH   5   6
ATOM      6  C   UNL     1      52.421  20.512  18.864  0.00  0.00    +0.076 C 
BRANCH   6   7
ATOM      7  C   UNL     1      51.269  20.908  17.975  0.00  0.00    -0.091 C 
ATOM     10  C   UNL     1      50.053  21.051  18.490  0.00  0.00    +0.038 C 
BRANCH   7   8
ATOM      8  C   UNL     1      51.492  21.134  16.539  0.00  0.00    -0.001 C 
ATOM      9  C   UNL     1      52.026  20.176  15.790  0.00  0.00    +0.015 C 
ENDBRANCH   7   8
ENDBRANCH   6   7
ENDBRANCH   5   6
TORSDOF 4
ENDMDL
MODEL 9
REMARK VINA RESULT:      -3.6     17.819     18.925
REMARK  Name = ZINC33950770
REMARK  6 active torsions:
REMARK  status: ('A' for Active; 'I' for Inactive)
REMARK    1  A    between atoms: C1_1  and  C2_2
REMARK    2  A    between atoms: C2_2  and  C10_11
REMARK    3  A    between atoms: C3_3  and  C4_4
REMARK    4  A    between atoms: C4_4  and  C5_6
REMARK    5  A    between atoms: C5_6  and  C6_7
REMARK    6  A    between atoms: C6_7  and  C8_9
REMARK                            x       y       z     vdW  Elec       q    Type
REMARK                         _______ _______ _______ _____ _____    ______ ____
ROOT
ATOM      5  C   UNL     1      52.802  33.607   6.525  0.00  0.00    +0.379 C 
ATOM     11  O   UNL     1      52.609  34.572   7.235  0.00  0.00    -0.447 OA
ENDROOT
BRANCH   5   4
ATOM      1  C   UNL     1      51.940  35.064   4.263  0.00  0.00    +0.098 C 
ATOM      2  C   UNL     1      51.353  33.714   4.586  0.00  0.00    -0.023 C 
ATOM      3  C   UNL     1      50.355  33.083   3.649  0.00  0.00    +0.095 C 
ATOM      4  C   UNL     1      51.716  33.077   5.701  0.00  0.00    -0.138 C 
ENDBRANCH   5   4
BRANCH   5   6
ATOM      6  C   UNL     1      54.160  32.956   6.492  0.00  0.00    +0.076 C 
BRANCH   6   7
ATOM      7  C   UNL     1      55.022  33.642   5.463  0.00  0.00    -0.091 C 
ATOM     10  C   UNL     1      55.708  34.731   5.792  0.00  0.00    +0.038 C 
BRANCH   7   8
ATOM      8  C   UNL     1      55.102  33.107   4.095  0.00  0.00    -0.001 C 
ATOM      9  C   UNL     1      54.654  31.884   3.833  0.00  0.00    +0.015 C 
ENDBRANCH   7   8
ENDBRANCH   6   7
ENDBRANCH   5   6
TORSDOF 4
ENDMDL
