MODEL 1
REMARK VINA RESULT:      -5.4      0.000      0.000
REMARK  Name = ZINC95486031
REMARK  2 active torsions:
REMARK  status: ('A' for Active; 'I' for Inactive)
REMARK    1  A    between atoms: C1_1  and  C2_2
REMARK    2  A    between atoms: C9_11  and  C16_20
REMARK                            x       y       z     vdW  Elec       q    Type
REMARK                         _______ _______ _______ _____ _____    ______ ____
ROOT
ATOM      1  C   UNL     1      50.170  17.989  16.878  0.00  0.00    +0.038 C 
ATOM      2  C   UNL     1      51.561  18.583  17.062  0.00  0.00    +0.017 C 
ATOM      3  C   UNL     1      51.616  19.993  16.562  0.00  0.00    +0.005 C 
ATOM      4  C   UNL     1      51.676  21.088  17.297  0.00  0.00    -0.002 C 
ATOM      5  C   UNL     1      51.680  21.004  18.758  0.00  0.00    +0.026 C 
ATOM      6  C   UNL     1      52.548  21.524  19.636  0.00  0.00    -0.122 C 
ATOM      7  C   UNL     1      52.152  21.316  20.969  0.00  0.00    +0.396 C 
ATOM      8  C   UNL     1      50.704  20.858  20.923  0.00  0.00    +0.021 C 
ATOM      9  O   UNL     1      52.823  21.491  21.963  0.00  0.00    -0.455 OA
ATOM     10  C   UNL     1      50.595  20.227  19.510  0.00  0.00    -0.035 C 
ATOM     11  C   UNL     1      49.191  20.414  18.913  0.00  0.00    +0.063 C 
ATOM     12  C   UNL     1      51.045  18.759  19.580  0.00  0.00    +0.022 C 
ATOM     13  C   UNL     1      51.628  18.476  20.966  0.00  0.00    +0.011 C 
ATOM     14  C   UNL     1      52.128  17.034  21.070  0.00  0.00    +0.006 C 
ATOM     15  C   UNL     1      53.218  16.815  20.017  0.00  0.00    +0.003 C 
ATOM     16  C   UNL     1      52.580  17.001  18.640  0.00  0.00    +0.011 C 
ATOM     17  C   UNL     1      52.069  18.443  18.492  0.00  0.00    -0.006 C 
ENDROOT
TORSDOF 0
ENDMDL
MODEL 2
REMARK VINA RESULT:      -5.3      5.975      8.295
REMARK  Name = ZINC95486031
REMARK  2 active torsions:
REMARK  status: ('A' for Active; 'I' for Inactive)
REMARK    1  A    between atoms: C1_1  and  C2_2
REMARK    2  A    between atoms: C9_11  and  C16_20
REMARK                            x       y       z     vdW  Elec       q    Type
REMARK                         _______ _______ _______ _____ _____    ______ ____
ROOT
ATOM      1  C   UNL     1      44.362  22.696  20.349  0.00  0.00    +0.038 C 
ATOM      2  C   UNL     1      44.433  21.700  19.198  0.00  0.00    +0.017 C 
ATOM      3  C   UNL     1      45.852  21.392  18.838  0.00  0.00    +0.005 C 
ATOM      4  C   UNL     1      46.504  20.272  19.090  0.00  0.00    -0.002 C 
ATOM      5  C   UNL     1      45.849  19.175  19.804  0.00  0.00    +0.026 C 
ATOM      6  C   UNL     1      45.721  17.889  19.450  0.00  0.00    -0.122 C 
ATOM      7  C   UNL     1      45.117  17.114  20.457  0.00  0.00    +0.396 C 
ATOM      8  C   UNL     1      45.126  17.961  21.718  0.00  0.00    +0.021 C 
ATOM      9  O   UNL     1      44.693  15.983  20.348  0.00  0.00    -0.455 OA
ATOM     10  C   UNL     1      45.164  19.405  21.155  0.00  0.00    -0.035 C 
ATOM     11  C   UNL     1      45.945  20.353  22.077  0.00  0.00    +0.063 C 
ATOM     12  C   UNL     1      43.727  19.870  20.868  0.00  0.00    +0.022 C 
ATOM     13  C   UNL     1      42.771  18.689  21.050  0.00  0.00    +0.011 C 
ATOM     14  C   UNL     1      41.329  19.094  20.735  0.00  0.00    +0.006 C 
ATOM     15  C   UNL     1      41.259  19.573  19.282  0.00  0.00    +0.003 C 
ATOM     16  C   UNL     1      42.142  20.814  19.157  0.00  0.00    +0.011 C 
ATOM     17  C   UNL     1      43.604  20.448  19.459  0.00  0.00    -0.006 C 
ENDROOT
TORSDOF 0
ENDMDL
MODEL 3
REMARK VINA RESULT:      -5.3      2.410      4.492
REMARK  Name = ZINC95486031
REMARK  2 active torsions:
REMARK  status: ('A' for Active; 'I' for Inactive)
REMARK    1  A    between atoms: C1_1  and  C2_2
REMARK    2  A    between atoms: C9_11  and  C16_20
REMARK                            x       y       z     vdW  Elec       q    Type
REMARK                         _______ _______ _______ _____ _____    ______ ____
ROOT
ATOM      1  C   UNL     1      52.003  21.334  19.367  0.00  0.00    +0.038 C 
ATOM      2  C   UNL     1      51.050  21.127  18.196  0.00  0.00    +0.017 C 
ATOM      3  C   UNL     1      51.794  20.741  16.957  0.00  0.00    +0.005 C 
ATOM      4  C   UNL     1      51.827  19.546  16.397  0.00  0.00    -0.002 C 
ATOM      5  C   UNL     1      51.101  18.425  16.995  0.00  0.00    +0.026 C 
ATOM      6  C   UNL     1      50.205  17.600  16.437  0.00  0.00    -0.122 C 
ATOM      7  C   UNL     1      49.807  16.571  17.310  0.00  0.00    +0.396 C 
ATOM      8  C   UNL     1      50.793  16.580  18.465  0.00  0.00    +0.021 C 
ATOM      9  O   UNL     1      48.876  15.809  17.160  0.00  0.00    -0.455 OA
ATOM     10  C   UNL     1      51.300  18.045  18.466  0.00  0.00    -0.035 C 
ATOM     11  C   UNL     1      52.764  18.139  18.924  0.00  0.00    +0.063 C 
ATOM     12  C   UNL     1      50.338  18.909  19.297  0.00  0.00    +0.022 C 
ATOM     13  C   UNL     1      49.112  18.074  19.675  0.00  0.00    +0.011 C 
ATOM     14  C   UNL     1      48.103  18.906  20.471  0.00  0.00    +0.006 C 
ATOM     15  C   UNL     1      47.654  20.090  19.610  0.00  0.00    +0.003 C 
ATOM     16  C   UNL     1      48.880  20.960  19.337  0.00  0.00    +0.011 C 
ATOM     17  C   UNL     1      49.918  20.162  18.531  0.00  0.00    -0.006 C 
ENDROOT
TORSDOF 0
ENDMDL
MODEL 4
REMARK VINA RESULT:      -5.3      4.714      6.626
REMARK  Name = ZINC95486031
REMARK  2 active torsions:
REMARK  status: ('A' for Active; 'I' for Inactive)
REMARK    1  A    between atoms: C1_1  and  C2_2
REMARK    2  A    between atoms: C9_11  and  C16_20
REMARK                            x       y       z     vdW  Elec       q    Type
REMARK                         _______ _______ _______ _____ _____    ______ ____
ROOT
ATOM      1  C   UNL     1      45.076  17.936  19.762  0.00  0.00    +0.038 C 
ATOM      2  C   UNL     1      45.132  19.141  18.832  0.00  0.00    +0.017 C 
ATOM      3  C   UNL     1      43.774  19.741  18.644  0.00  0.00    +0.005 C 
ATOM      4  C   UNL     1      43.337  20.878  19.154  0.00  0.00    -0.002 C 
ATOM      5  C   UNL     1      44.201  21.687  20.013  0.00  0.00    +0.026 C 
ATOM      6  C   UNL     1      44.535  22.980  19.904  0.00  0.00    -0.122 C 
ATOM      7  C   UNL     1      45.305  23.428  20.992  0.00  0.00    +0.396 C 
ATOM      8  C   UNL     1      45.201  22.358  22.065  0.00  0.00    +0.021 C 
ATOM      9  O   UNL     1      45.913  24.474  21.071  0.00  0.00    -0.455 OA
ATOM     10  C   UNL     1      44.890  21.082  21.240  0.00  0.00    -0.035 C 
ATOM     11  C   UNL     1      43.995  20.107  22.020  0.00  0.00    +0.063 C 
ATOM     12  C   UNL     1      46.212  20.459  20.764  0.00  0.00    +0.022 C 
ATOM     13  C   UNL     1      47.365  21.408  21.097  0.00  0.00    +0.011 C 
ATOM     14  C   UNL     1      48.701  20.847  20.604  0.00  0.00    +0.006 C 
ATOM     15  C   UNL     1      48.627  20.666  19.085  0.00  0.00    +0.003 C 
ATOM     16  C   UNL     1      47.538  19.635  18.791  0.00  0.00    +0.011 C 
ATOM     17  C   UNL     1      46.175  20.164  19.266  0.00  0.00    -0.006 C 
ENDROOT
TORSDOF 0
ENDMDL
MODEL 5
REMARK VINA RESULT:      -5.2      1.872      4.142
REMARK  Name = ZINC95486031
REMARK  2 active torsions:
REMARK  status: ('A' for Active; 'I' for Inactive)
REMARK    1  A    between atoms: C1_1  and  C2_2
REMARK    2  A    between atoms: C9_11  and  C16_20
REMARK                            x       y       z     vdW  Elec       q    Type
REMARK                         _______ _______ _______ _____ _____    ______ ____
ROOT
ATOM      1  C   UNL     1      48.367  20.618  18.898  0.00  0.00    +0.038 C 
ATOM      2  C   UNL     1      49.784  20.846  19.408  0.00  0.00    +0.017 C 
ATOM      3  C   UNL     1      49.917  20.427  20.839  0.00  0.00    +0.005 C 
ATOM      4  C   UNL     1      50.541  19.355  21.291  0.00  0.00    -0.002 C 
ATOM      5  C   UNL     1      51.183  18.422  20.364  0.00  0.00    +0.026 C 
ATOM      6  C   UNL     1      52.443  17.969  20.353  0.00  0.00    -0.122 C 
ATOM      7  C   UNL     1      52.654  16.993  19.362  0.00  0.00    +0.396 C 
ATOM      8  C   UNL     1      51.279  16.569  18.874  0.00  0.00    +0.021 C 
ATOM      9  O   UNL     1      53.720  16.557  18.985  0.00  0.00    -0.455 OA
ATOM     10  C   UNL     1      50.410  17.815  19.188  0.00  0.00    -0.035 C 
ATOM     11  C   UNL     1      48.968  17.425  19.547  0.00  0.00    +0.063 C 
ATOM     12  C   UNL     1      50.508  18.803  18.016  0.00  0.00    +0.022 C 
ATOM     13  C   UNL     1      51.574  18.314  17.032  0.00  0.00    +0.011 C 
ATOM     14  C   UNL     1      51.736  19.290  15.865  0.00  0.00    +0.006 C 
ATOM     15  C   UNL     1      52.157  20.654  16.419  0.00  0.00    +0.003 C 
ATOM     16  C   UNL     1      51.028  21.163  17.314  0.00  0.00    +0.011 C 
ATOM     17  C   UNL     1      50.836  20.212  18.506  0.00  0.00    -0.006 C 
ENDROOT
TORSDOF 0
ENDMDL
MODEL 6
REMARK VINA RESULT:      -5.0      1.968      4.420
REMARK  Name = ZINC95486031
REMARK  2 active torsions:
REMARK  status: ('A' for Active; 'I' for Inactive)
REMARK    1  A    between atoms: C1_1  and  C2_2
REMARK    2  A    between atoms: C9_11  and  C16_20
REMARK                            x       y       z     vdW  Elec       q    Type
REMARK                         _______ _______ _______ _____ _____    ______ ____
ROOT
ATOM      1  C   UNL     1      50.695  20.169  22.419  0.00  0.00    +0.038 C 
ATOM      2  C   UNL     1      50.691  21.190  21.287  0.00  0.00    +0.017 C 
ATOM      3  C   UNL     1      52.078  21.656  20.976  0.00  0.00    +0.005 C 
ATOM      4  C   UNL     1      52.798  21.337  19.916  0.00  0.00    -0.002 C 
ATOM      5  C   UNL     1      52.265  20.428  18.901  0.00  0.00    +0.026 C 
ATOM      6  C   UNL     1      52.155  20.604  17.578  0.00  0.00    -0.122 C 
ATOM      7  C   UNL     1      51.688  19.452  16.921  0.00  0.00    +0.396 C 
ATOM      8  C   UNL     1      51.790  18.313  17.921  0.00  0.00    +0.021 C 
ATOM      9  O   UNL     1      51.304  19.374  15.774  0.00  0.00    -0.455 OA
ATOM     10  C   UNL     1      51.711  19.052  19.282  0.00  0.00    -0.035 C 
ATOM     11  C   UNL     1      52.541  18.341  20.362  0.00  0.00    +0.063 C 
ATOM     12  C   UNL     1      50.234  19.241  19.666  0.00  0.00    +0.022 C 
ATOM     13  C   UNL     1      49.351  18.814  18.491  0.00  0.00    +0.011 C 
ATOM     14  C   UNL     1      47.869  19.023  18.811  0.00  0.00    +0.006 C 
ATOM     15  C   UNL     1      47.633  20.509  19.099  0.00  0.00    +0.003 C 
ATOM     16  C   UNL     1      48.447  20.879  20.338  0.00  0.00    +0.011 C 
ATOM     17  C   UNL     1      49.946  20.689  20.055  0.00  0.00    -0.006 C 
ENDROOT
TORSDOF 0
ENDMDL
MODEL 7
REMARK VINA RESULT:      -4.9      2.110      4.060
REMARK  Name = ZINC95486031
REMARK  2 active torsions:
REMARK  status: ('A' for Active; 'I' for Inactive)
REMARK    1  A    between atoms: C1_1  and  C2_2
REMARK    2  A    between atoms: C9_11  and  C16_20
REMARK                            x       y       z     vdW  Elec       q    Type
REMARK                         _______ _______ _______ _____ _____    ______ ____
ROOT
ATOM      1  C   UNL     1      52.919  17.223  18.829  0.00  0.00    +0.038 C 
ATOM      2  C   UNL     1      51.643  17.082  18.008  0.00  0.00    +0.017 C 
ATOM      3  C   UNL     1      50.622  16.263  18.733  0.00  0.00    +0.005 C 
ATOM      4  C   UNL     1      49.519  16.706  19.308  0.00  0.00    -0.002 C 
ATOM      5  C   UNL     1      49.196  18.133  19.293  0.00  0.00    +0.026 C 
ATOM      6  C   UNL     1      48.077  18.745  18.881  0.00  0.00    -0.122 C 
ATOM      7  C   UNL     1      48.102  20.130  19.128  0.00  0.00    +0.396 C 
ATOM      8  C   UNL     1      49.263  20.379  20.076  0.00  0.00    +0.021 C 
ATOM      9  O   UNL     1      47.335  20.960  18.691  0.00  0.00    -0.455 OA
ATOM     10  C   UNL     1      50.201  19.180  19.783  0.00  0.00    -0.035 C 
ATOM     11  C   UNL     1      50.970  18.741  21.039  0.00  0.00    +0.063 C 
ATOM     12  C   UNL     1      51.111  19.533  18.595  0.00  0.00    +0.022 C 
ATOM     13  C   UNL     1      50.652  20.860  17.987  0.00  0.00    +0.011 C 
ATOM     14  C   UNL     1      51.505  21.234  16.773  0.00  0.00    +0.006 C 
ATOM     15  C   UNL     1      51.372  20.131  15.720  0.00  0.00    +0.003 C 
ATOM     16  C   UNL     1      51.934  18.843  16.320  0.00  0.00    +0.011 C 
ATOM     17  C   UNL     1      51.099  18.427  17.542  0.00  0.00    -0.006 C 
ENDROOT
TORSDOF 0
ENDMDL
MODEL 8
REMARK VINA RESULT:      -4.9      1.482      3.427
REMARK  Name = ZINC95486031
REMARK  2 active torsions:
REMARK  status: ('A' for Active; 'I' for Inactive)
REMARK    1  A    between atoms: C1_1  and  C2_2
REMARK    2  A    between atoms: C9_11  and  C16_20
REMARK                            x       y       z     vdW  Elec       q    Type
REMARK                         _______ _______ _______ _____ _____    ______ ____
ROOT
ATOM      1  C   UNL     1      49.337  16.694  17.236  0.00  0.00    +0.038 C 
ATOM      2  C   UNL     1      49.982  16.894  18.603  0.00  0.00    +0.017 C 
ATOM      3  C   UNL     1      51.445  16.582  18.560  0.00  0.00    +0.005 C 
ATOM      4  C   UNL     1      52.438  17.452  18.602  0.00  0.00    -0.002 C 
ATOM      5  C   UNL     1      52.166  18.887  18.684  0.00  0.00    +0.026 C 
ATOM      6  C   UNL     1      52.617  19.787  19.568  0.00  0.00    -0.122 C 
ATOM      7  C   UNL     1      52.216  21.098  19.251  0.00  0.00    +0.396 C 
ATOM      8  C   UNL     1      51.686  21.055  17.828  0.00  0.00    +0.021 C 
ATOM      9  O   UNL     1      52.300  22.076  19.962  0.00  0.00    -0.455 OA
ATOM     10  C   UNL     1      51.238  19.578  17.679  0.00  0.00    -0.035 C 
ATOM     11  C   UNL     1      51.420  19.072  16.240  0.00  0.00    +0.063 C 
ATOM     12  C   UNL     1      49.801  19.433  18.206  0.00  0.00    +0.022 C 
ATOM     13  C   UNL     1      49.376  20.744  18.873  0.00  0.00    +0.011 C 
ATOM     14  C   UNL     1      47.963  20.635  19.451  0.00  0.00    +0.006 C 
ATOM     15  C   UNL     1      47.944  19.515  20.495  0.00  0.00    +0.003 C 
ATOM     16  C   UNL     1      48.270  18.205  19.780  0.00  0.00    +0.011 C 
ATOM     17  C   UNL     1      49.688  18.270  19.189  0.00  0.00    -0.006 C 
ENDROOT
TORSDOF 0
ENDMDL
MODEL 9
REMARK VINA RESULT:      -4.8      2.351      4.233
REMARK  Name = ZINC95486031
REMARK  2 active torsions:
REMARK  status: ('A' for Active; 'I' for Inactive)
REMARK    1  A    between atoms: C1_1  and  C2_2
REMARK    2  A    between atoms: C9_11  and  C16_20
REMARK                            x       y       z     vdW  Elec       q    Type
REMARK                         _______ _______ _______ _____ _____    ______ ____
ROOT
ATOM      1  C   UNL     1      48.453  18.676  21.132  0.00  0.00    +0.038 C 
ATOM      2  C   UNL     1      48.275  19.496  19.860  0.00  0.00    +0.017 C 
ATOM      3  C   UNL     1      48.995  20.804  19.956  0.00  0.00    +0.005 C 
ATOM      4  C   UNL     1      50.109  21.139  19.331  0.00  0.00    -0.002 C 
ATOM      5  C   UNL     1      50.780  20.186  18.447  0.00  0.00    +0.026 C 
ATOM      6  C   UNL     1      51.158  20.333  17.170  0.00  0.00    -0.122 C 
ATOM      7  C   UNL     1      51.877  19.223  16.692  0.00  0.00    +0.396 C 
ATOM      8  C   UNL     1      52.249  18.393  17.909  0.00  0.00    +0.021 C 
ATOM      9  O   UNL     1      52.167  18.985  15.539  0.00  0.00    -0.455 OA
ATOM     10  C   UNL     1      51.148  18.779  18.930  0.00  0.00    -0.035 C 
ATOM     11  C   UNL     1      51.678  18.753  20.373  0.00  0.00    +0.063 C 
ATOM     12  C   UNL     1      49.921  17.882  18.709  0.00  0.00    +0.022 C 
ATOM     13  C   UNL     1      50.127  17.051  17.440  0.00  0.00    +0.011 C 
ATOM     14  C   UNL     1      48.909  16.169  17.154  0.00  0.00    +0.006 C 
ATOM     15  C   UNL     1      47.684  17.068  16.968  0.00  0.00    +0.003 C 
ATOM     16  C   UNL     1      47.441  17.805  18.285  0.00  0.00    +0.011 C 
ATOM     17  C   UNL     1      48.641  18.710  18.606  0.00  0.00    -0.006 C 
ENDROOT
TORSDOF 0
ENDMDL
