MODEL 1
REMARK VINA RESULT:      -6.1      0.000      0.000
REMARK  Name = ZINC95485966
REMARK  17 active torsions:
REMARK  status: ('A' for Active; 'I' for Inactive)
REMARK    1  A    between atoms: C1_1  and  C2_2
REMARK    2  A    between atoms: C3_3  and  C28_33
REMARK    3  A    between atoms: C10_10  and  O1_18
REMARK    4  A    between atoms: C11_11  and  C12_12
REMARK    5  A    between atoms: C12_12  and  C13_13
REMARK    6  A    between atoms: C13_13  and  C14_14
REMARK    7  A    between atoms: C15_15  and  C16_16
REMARK    8  A    between atoms: C15_15  and  C17_17
REMARK    9  A    between atoms: C21_24  and  C22_26
REMARK   10  A    between atoms: C22_26  and  C23_27
REMARK   11  A    between atoms: C23_27  and  C24_28
REMARK   12  A    between atoms: C25_29  and  C26_30
REMARK   13  A    between atoms: C25_29  and  C27_31
REMARK   14  A    between atoms: C28_33  and  C29_34
REMARK   15  A    between atoms: C29_34  and  C30_35
REMARK   16  A    between atoms: C31_36  and  C32_37
REMARK   17  A    between atoms: C31_36  and  C33_38
REMARK                            x       y       z     vdW  Elec       q    Type
REMARK                         _______ _______ _______ _____ _____    ______ ____
ROOT
ATOM      1  C   UNL     1      47.301  21.765  21.036  0.00  0.00    +0.076 C 
ATOM      2  C   UNL     1      47.290  20.534  20.167  0.00  0.00    -0.042 A 
ATOM      3  C   UNL     1      48.305  19.630  20.270  0.00  0.00    -0.131 A 
ATOM     10  C   UNL     1      48.307  18.480  19.467  0.00  0.00    +0.053 A 
ATOM     11  C   UNL     1      49.351  17.539  19.550  0.00  0.00    -0.159 A 
ATOM     12  C   UNL     1      49.351  16.426  18.768  0.00  0.00    +0.050 A 
ATOM     13  C   UNL     1      50.517  15.478  18.887  0.00  0.00    +0.003 C 
ATOM     20  C   UNL     1      50.174  14.146  18.268  0.00  0.00    +0.386 C 
ATOM     21  O   UNL     1      50.423  13.111  18.839  0.00  0.00    -0.461 OA
ATOM     22  C   UNL     1      49.506  14.150  16.906  0.00  0.00    +0.003 C 
ATOM     23  C   UNL     1      48.247  14.978  17.044  0.00  0.00    +0.406 C 
ATOM     24  O   UNL     1      47.223  14.646  16.484  0.00  0.00    -0.457 OA
ATOM     25  C   UNL     1      48.291  16.191  17.871  0.00  0.00    -0.382 A 
ATOM     26  C   UNL     1      47.241  17.111  17.757  0.00  0.00    +0.343 A 
ATOM     27  O   UNL     1      46.231  16.888  16.884  0.00  0.00    -0.615 OA
ATOM     28  C   UNL     1      47.244  18.269  18.555  0.00  0.00    -0.176 A 
ATOM     29  C   UNL     1      46.208  19.219  18.466  0.00  0.00    +0.184 A 
ATOM     32  C   UNL     1      46.241  20.335  19.275  0.00  0.00    -0.178 A 
ENDROOT
BRANCH  29  30
ATOM     30  O   UNL     1      45.184  19.036  17.595  0.00  0.00    -0.472 OA
ATOM     31  H   UNL     1      45.464  18.751  16.713  0.00  0.00    +0.382 HD
ENDBRANCH  29  30
BRANCH   3   4
ATOM      4  C   UNL     1      49.426  19.866  21.250  0.00  0.00    +0.072 C 
BRANCH   4   5
ATOM      5  C   UNL     1      50.368  20.937  20.698  0.00  0.00    +0.053 C 
BRANCH   5   6
ATOM      6  C   UNL     1      51.464  20.278  19.899  0.00  0.00    -0.054 C 
ATOM      7  C   UNL     1      51.502  20.421  18.597  0.00  0.00    -0.141 C 
ATOM      8  C   UNL     1      52.607  19.776  17.801  0.00  0.00    +0.066 C 
ATOM      9  C   UNL     1      50.441  21.230  17.896  0.00  0.00    +0.071 C 
ENDBRANCH   5   6
ENDBRANCH   4   5
ENDBRANCH   3   4
BRANCH  13  14
ATOM     14  C   UNL     1      51.729  16.073  18.167  0.00  0.00    +0.060 C 
BRANCH  14  15
ATOM     15  C   UNL     1      52.976  15.896  19.035  0.00  0.00    +0.041 C 
BRANCH  15  16
ATOM     16  C   UNL     1      53.049  17.013  20.045  0.00  0.00    -0.047 C 
ATOM     17  C   UNL     1      52.916  16.751  21.321  0.00  0.00    -0.141 C 
ATOM     18  C   UNL     1      52.954  17.872  22.327  0.00  0.00    +0.069 C 
ATOM     19  C   UNL     1      52.726  15.331  21.783  0.00  0.00    +0.071 C 
ENDBRANCH  15  16
ENDBRANCH  14  15
ENDBRANCH  13  14
BRANCH  32  33
ATOM     33  C   UNL     1      45.133  21.353  19.189  0.00  0.00    +0.072 C 
BRANCH  33  34
ATOM     34  C   UNL     1      43.883  20.807  19.883  0.00  0.00    +0.055 C 
BRANCH  34  35
ATOM     35  C   UNL     1      42.654  21.284  19.154  0.00  0.00    -0.054 C 
ATOM     36  C   UNL     1      41.526  20.631  19.276  0.00  0.00    -0.141 C 
ATOM     37  C   UNL     1      40.258  21.199  18.689  0.00  0.00    +0.066 C 
ATOM     38  C   UNL     1      41.494  19.311  20.003  0.00  0.00    +0.070 C 
ENDBRANCH  34  35
ENDBRANCH  33  34
ENDBRANCH  32  33
TORSDOF 10
ENDMDL
MODEL 2
REMARK VINA RESULT:      -6.1      2.444      6.131
REMARK  Name = ZINC95485966
REMARK  17 active torsions:
REMARK  status: ('A' for Active; 'I' for Inactive)
REMARK    1  A    between atoms: C1_1  and  C2_2
REMARK    2  A    between atoms: C3_3  and  C28_33
REMARK    3  A    between atoms: C10_10  and  O1_18
REMARK    4  A    between atoms: C11_11  and  C12_12
REMARK    5  A    between atoms: C12_12  and  C13_13
REMARK    6  A    between atoms: C13_13  and  C14_14
REMARK    7  A    between atoms: C15_15  and  C16_16
REMARK    8  A    between atoms: C15_15  and  C17_17
REMARK    9  A    between atoms: C21_24  and  C22_26
REMARK   10  A    between atoms: C22_26  and  C23_27
REMARK   11  A    between atoms: C23_27  and  C24_28
REMARK   12  A    between atoms: C25_29  and  C26_30
REMARK   13  A    between atoms: C25_29  and  C27_31
REMARK   14  A    between atoms: C28_33  and  C29_34
REMARK   15  A    between atoms: C29_34  and  C30_35
REMARK   16  A    between atoms: C31_36  and  C32_37
REMARK   17  A    between atoms: C31_36  and  C33_38
REMARK                            x       y       z     vdW  Elec       q    Type
REMARK                         _______ _______ _______ _____ _____    ______ ____
ROOT
ATOM      1  C   UNL     1      48.940  20.895  19.269  0.00  0.00    +0.076 C 
ATOM      2  C   UNL     1      49.400  19.607  18.635  0.00  0.00    -0.042 A 
ATOM      3  C   UNL     1      48.635  18.486  18.762  0.00  0.00    -0.131 A 
ATOM     10  C   UNL     1      49.051  17.281  18.177  0.00  0.00    +0.053 A 
ATOM     11  C   UNL     1      48.282  16.109  18.304  0.00  0.00    -0.159 A 
ATOM     12  C   UNL     1      48.690  14.942  17.737  0.00  0.00    +0.050 A 
ATOM     13  C   UNL     1      47.832  13.719  17.941  0.00  0.00    +0.003 C 
ATOM     20  C   UNL     1      48.206  12.646  16.948  0.00  0.00    +0.386 C 
ATOM     21  O   UNL     1      47.358  12.044  16.334  0.00  0.00    -0.461 OA
ATOM     22  C   UNL     1      49.680  12.351  16.746  0.00  0.00    +0.003 C 
ATOM     23  C   UNL     1      50.330  13.657  16.343  0.00  0.00    +0.406 C 
ATOM     24  O   UNL     1      51.200  13.680  15.496  0.00  0.00    -0.457 OA
ATOM     25  C   UNL     1      49.888  14.894  16.997  0.00  0.00    -0.382 A 
ATOM     26  C   UNL     1      50.681  16.040  16.859  0.00  0.00    +0.343 A 
ATOM     27  O   UNL     1      51.838  15.987  16.159  0.00  0.00    -0.615 OA
ATOM     28  C   UNL     1      50.269  17.245  17.453  0.00  0.00    -0.176 A 
ATOM     29  C   UNL     1      51.042  18.417  17.340  0.00  0.00    +0.184 A 
ATOM     32  C   UNL     1      50.596  19.583  17.927  0.00  0.00    -0.178 A 
ENDROOT
BRANCH  29  30
ATOM     30  O   UNL     1      52.214  18.401  16.655  0.00  0.00    -0.472 OA
ATOM     31  H   UNL     1      52.988  18.610  17.196  0.00  0.00    +0.382 HD
ENDBRANCH  29  30
BRANCH   3   4
ATOM      4  C   UNL     1      47.339  18.542  19.530  0.00  0.00    +0.072 C 
BRANCH   4   5
ATOM      5  C   UNL     1      46.175  18.723  18.554  0.00  0.00    +0.053 C 
BRANCH   5   6
ATOM      6  C   UNL     1      45.560  20.084  18.753  0.00  0.00    -0.054 C 
ATOM      7  C   UNL     1      44.413  20.200  19.376  0.00  0.00    -0.141 C 
ATOM      8  C   UNL     1      43.806  21.562  19.590  0.00  0.00    +0.066 C 
ATOM      9  C   UNL     1      43.702  18.971  19.880  0.00  0.00    +0.071 C 
ENDBRANCH   5   6
ENDBRANCH   4   5
ENDBRANCH   3   4
BRANCH  13  14
ATOM     14  C   UNL     1      48.038  13.187  19.361  0.00  0.00    +0.060 C 
BRANCH  14  15
ATOM     15  C   UNL     1      46.721  13.276  20.135  0.00  0.00    +0.041 C 
BRANCH  15  16
ATOM     16  C   UNL     1      46.857  14.292  21.241  0.00  0.00    -0.047 C 
ATOM     17  C   UNL     1      46.108  15.367  21.236  0.00  0.00    -0.141 C 
ATOM     18  C   UNL     1      46.268  16.399  22.322  0.00  0.00    +0.069 C 
ATOM     19  C   UNL     1      45.088  15.572  20.147  0.00  0.00    +0.071 C 
ENDBRANCH  15  16
ENDBRANCH  14  15
ENDBRANCH  13  14
BRANCH  32  33
ATOM     33  C   UNL     1      51.416  20.841  17.804  0.00  0.00    +0.072 C 
BRANCH  33  34
ATOM     34  C   UNL     1      52.614  20.765  18.752  0.00  0.00    +0.055 C 
BRANCH  34  35
ATOM     35  C   UNL     1      52.348  21.613  19.969  0.00  0.00    -0.054 C 
ATOM     36  C   UNL     1      52.209  21.049  21.142  0.00  0.00    -0.141 C 
ATOM     37  C   UNL     1      52.115  21.901  22.382  0.00  0.00    +0.066 C 
ATOM     38  C   UNL     1      52.142  19.548  21.254  0.00  0.00    +0.070 C 
ENDBRANCH  34  35
ENDBRANCH  33  34
ENDBRANCH  32  33
TORSDOF 10
ENDMDL
MODEL 3
REMARK VINA RESULT:      -6.1      1.815      2.790
REMARK  Name = ZINC95485966
REMARK  17 active torsions:
REMARK  status: ('A' for Active; 'I' for Inactive)
REMARK    1  A    between atoms: C1_1  and  C2_2
REMARK    2  A    between atoms: C3_3  and  C28_33
REMARK    3  A    between atoms: C10_10  and  O1_18
REMARK    4  A    between atoms: C11_11  and  C12_12
REMARK    5  A    between atoms: C12_12  and  C13_13
REMARK    6  A    between atoms: C13_13  and  C14_14
REMARK    7  A    between atoms: C15_15  and  C16_16
REMARK    8  A    between atoms: C15_15  and  C17_17
REMARK    9  A    between atoms: C21_24  and  C22_26
REMARK   10  A    between atoms: C22_26  and  C23_27
REMARK   11  A    between atoms: C23_27  and  C24_28
REMARK   12  A    between atoms: C25_29  and  C26_30
REMARK   13  A    between atoms: C25_29  and  C27_31
REMARK   14  A    between atoms: C28_33  and  C29_34
REMARK   15  A    between atoms: C29_34  and  C30_35
REMARK   16  A    between atoms: C31_36  and  C32_37
REMARK   17  A    between atoms: C31_36  and  C33_38
REMARK                            x       y       z     vdW  Elec       q    Type
REMARK                         _______ _______ _______ _____ _____    ______ ____
ROOT
ATOM      1  C   UNL     1      45.777  21.531  19.309  0.00  0.00    +0.076 C 
ATOM      2  C   UNL     1      46.015  20.043  19.352  0.00  0.00    -0.042 A 
ATOM      3  C   UNL     1      47.268  19.557  19.128  0.00  0.00    -0.131 A 
ATOM     10  C   UNL     1      47.503  18.175  19.164  0.00  0.00    +0.053 A 
ATOM     11  C   UNL     1      48.788  17.650  18.925  0.00  0.00    -0.159 A 
ATOM     12  C   UNL     1      49.011  16.309  18.960  0.00  0.00    +0.050 A 
ATOM     13  C   UNL     1      50.405  15.816  18.662  0.00  0.00    +0.003 C 
ATOM     20  C   UNL     1      50.564  14.389  19.121  0.00  0.00    +0.386 C 
ATOM     21  O   UNL     1      51.537  14.041  19.748  0.00  0.00    -0.461 OA
ATOM     22  C   UNL     1      49.464  13.405  18.770  0.00  0.00    +0.003 C 
ATOM     23  C   UNL     1      48.181  13.974  19.335  0.00  0.00    +0.406 C 
ATOM     24  O   UNL     1      47.354  13.246  19.846  0.00  0.00    -0.457 OA
ATOM     25  C   UNL     1      47.957  15.422  19.254  0.00  0.00    -0.382 A 
ATOM     26  C   UNL     1      46.666  15.910  19.488  0.00  0.00    +0.343 A 
ATOM     27  O   UNL     1      45.652  15.054  19.756  0.00  0.00    -0.615 OA
ATOM     28  C   UNL     1      46.428  17.295  19.441  0.00  0.00    -0.176 A 
ATOM     29  C   UNL     1      45.142  17.823  19.667  0.00  0.00    +0.184 A 
ATOM     32  C   UNL     1      44.952  19.188  19.625  0.00  0.00    -0.178 A 
ENDROOT
BRANCH  29  30
ATOM     30  O   UNL     1      44.098  16.996  19.929  0.00  0.00    -0.472 OA
ATOM     31  H   UNL     1      43.663  16.649  19.137  0.00  0.00    +0.382 HD
ENDBRANCH  29  30
BRANCH   3   4
ATOM      4  C   UNL     1      48.404  20.506  18.841  0.00  0.00    +0.072 C 
BRANCH   4   5
ATOM      5  C   UNL     1      48.914  21.102  20.153  0.00  0.00    +0.053 C 
BRANCH   5   6
ATOM      6  C   UNL     1      50.223  20.451  20.524  0.00  0.00    -0.054 C 
ATOM      7  C   UNL     1      50.282  19.635  21.548  0.00  0.00    -0.141 C 
ATOM      8  C   UNL     1      51.586  18.972  21.908  0.00  0.00    +0.066 C 
ATOM      9  C   UNL     1      49.045  19.359  22.364  0.00  0.00    +0.071 C 
ENDBRANCH   5   6
ENDBRANCH   4   5
ENDBRANCH   3   4
BRANCH  13  14
ATOM     14  C   UNL     1      50.658  15.895  17.155  0.00  0.00    +0.060 C 
BRANCH  14  15
ATOM     15  C   UNL     1      51.918  16.722  16.891  0.00  0.00    +0.041 C 
BRANCH  15  16
ATOM     16  C   UNL     1      51.524  18.104  16.434  0.00  0.00    -0.047 C 
ATOM     17  C   UNL     1      51.874  19.150  17.140  0.00  0.00    -0.141 C 
ATOM     18  C   UNL     1      51.451  20.528  16.702  0.00  0.00    +0.069 C 
ATOM     19  C   UNL     1      52.698  18.977  18.389  0.00  0.00    +0.071 C 
ENDBRANCH  15  16
ENDBRANCH  14  15
ENDBRANCH  13  14
BRANCH  32  33
ATOM     33  C   UNL     1      43.580  19.760  19.872  0.00  0.00    +0.072 C 
BRANCH  33  34
ATOM     34  C   UNL     1      42.870  19.979  18.535  0.00  0.00    +0.055 C 
BRANCH  34  35
ATOM     35  C   UNL     1      41.390  20.135  18.770  0.00  0.00    -0.054 C 
ATOM     36  C   UNL     1      40.846  21.326  18.753  0.00  0.00    -0.141 C 
ATOM     37  C   UNL     1      39.347  21.471  18.816  0.00  0.00    +0.066 C 
ATOM     38  C   UNL     1      41.718  22.552  18.670  0.00  0.00    +0.070 C 
ENDBRANCH  34  35
ENDBRANCH  33  34
ENDBRANCH  32  33
TORSDOF 10
ENDMDL
MODEL 4
REMARK VINA RESULT:      -6.1      2.088      7.269
REMARK  Name = ZINC95485966
REMARK  17 active torsions:
REMARK  status: ('A' for Active; 'I' for Inactive)
REMARK    1  A    between atoms: C1_1  and  C2_2
REMARK    2  A    between atoms: C3_3  and  C28_33
REMARK    3  A    between atoms: C10_10  and  O1_18
REMARK    4  A    between atoms: C11_11  and  C12_12
REMARK    5  A    between atoms: C12_12  and  C13_13
REMARK    6  A    between atoms: C13_13  and  C14_14
REMARK    7  A    between atoms: C15_15  and  C16_16
REMARK    8  A    between atoms: C15_15  and  C17_17
REMARK    9  A    between atoms: C21_24  and  C22_26
REMARK   10  A    between atoms: C22_26  and  C23_27
REMARK   11  A    between atoms: C23_27  and  C24_28
REMARK   12  A    between atoms: C25_29  and  C26_30
REMARK   13  A    between atoms: C25_29  and  C27_31
REMARK   14  A    between atoms: C28_33  and  C29_34
REMARK   15  A    between atoms: C29_34  and  C30_35
REMARK   16  A    between atoms: C31_36  and  C32_37
REMARK   17  A    between atoms: C31_36  and  C33_38
REMARK                            x       y       z     vdW  Elec       q    Type
REMARK                         _______ _______ _______ _____ _____    ______ ____
ROOT
ATOM      1  C   UNL     1      51.241  13.850  16.517  0.00  0.00    +0.076 C 
ATOM      2  C   UNL     1      50.017  14.478  17.132  0.00  0.00    -0.042 A 
ATOM      3  C   UNL     1      50.001  15.820  17.372  0.00  0.00    -0.131 A 
ATOM     10  C   UNL     1      48.868  16.417  17.945  0.00  0.00    +0.053 A 
ATOM     11  C   UNL     1      48.833  17.799  18.211  0.00  0.00    -0.159 A 
ATOM     12  C   UNL     1      47.733  18.374  18.768  0.00  0.00    +0.050 A 
ATOM     13  C   UNL     1      47.779  19.854  19.056  0.00  0.00    +0.003 C 
ATOM     20  C   UNL     1      46.386  20.384  19.290  0.00  0.00    +0.386 C 
ATOM     21  O   UNL     1      46.011  21.404  18.761  0.00  0.00    -0.461 OA
ATOM     22  C   UNL     1      45.473  19.595  20.209  0.00  0.00    +0.003 C 
ATOM     23  C   UNL     1      45.388  18.197  19.637  0.00  0.00    +0.406 C 
ATOM     24  O   UNL     1      44.338  17.588  19.644  0.00  0.00    -0.457 OA
ATOM     25  C   UNL     1      46.602  17.593  19.072  0.00  0.00    -0.382 A 
ATOM     26  C   UNL     1      46.607  16.214  18.827  0.00  0.00    +0.343 A 
ATOM     27  O   UNL     1      45.522  15.464  19.133  0.00  0.00    -0.615 OA
ATOM     28  C   UNL     1      47.745  15.613  18.263  0.00  0.00    -0.176 A 
ATOM     29  C   UNL     1      47.789  14.229  18.006  0.00  0.00    +0.184 A 
ATOM     32  C   UNL     1      48.921  13.680  17.440  0.00  0.00    -0.178 A 
ENDROOT
BRANCH  29  30
ATOM     30  O   UNL     1      46.726  13.442  18.310  0.00  0.00    -0.472 OA
ATOM     31  H   UNL     1      46.925  12.496  18.312  0.00  0.00    +0.382 HD
ENDBRANCH  29  30
BRANCH   3   4
ATOM      4  C   UNL     1      51.201  16.662  17.022  0.00  0.00    +0.072 C 
BRANCH   4   5
ATOM      5  C   UNL     1      52.296  16.447  18.067  0.00  0.00    +0.053 C 
BRANCH   5   6
ATOM      6  C   UNL     1      52.209  17.527  19.115  0.00  0.00    -0.054 C 
ATOM      7  C   UNL     1      51.813  17.231  20.329  0.00  0.00    -0.141 C 
ATOM      8  C   UNL     1      51.742  18.307  21.381  0.00  0.00    +0.066 C 
ATOM      9  C   UNL     1      51.429  15.815  20.672  0.00  0.00    +0.071 C 
ENDBRANCH   5   6
ENDBRANCH   4   5
ENDBRANCH   3   4
BRANCH  13  14
ATOM     14  C   UNL     1      48.631  20.101  20.302  0.00  0.00    +0.060 C 
BRANCH  14  15
ATOM     15  C   UNL     1      49.775  21.057  19.957  0.00  0.00    +0.041 C 
BRANCH  15  16
ATOM     16  C   UNL     1      50.081  20.962  18.484  0.00  0.00    -0.047 C 
ATOM     17  C   UNL     1      51.322  21.016  18.069  0.00  0.00    -0.141 C 
ATOM     18  C   UNL     1      51.625  20.956  16.594  0.00  0.00    +0.069 C 
ATOM     19  C   UNL     1      52.446  21.137  19.064  0.00  0.00    +0.071 C 
ENDBRANCH  15  16
ENDBRANCH  14  15
ENDBRANCH  13  14
BRANCH  32  33
ATOM     33  C   UNL     1      48.972  12.201  17.158  0.00  0.00    +0.072 C 
BRANCH  33  34
ATOM     34  C   UNL     1      48.475  11.935  15.735  0.00  0.00    +0.055 C 
BRANCH  34  35
ATOM     35  C   UNL     1      49.411  10.975  15.047  0.00  0.00    -0.054 C 
ATOM     36  C   UNL     1      50.113  11.372  14.016  0.00  0.00    -0.141 C 
ATOM     37  C   UNL     1      51.173  10.471  13.433  0.00  0.00    +0.066 C 
ATOM     38  C   UNL     1      49.862  12.729  13.409  0.00  0.00    +0.070 C 
ENDBRANCH  34  35
ENDBRANCH  33  34
ENDBRANCH  32  33
TORSDOF 10
ENDMDL
MODEL 5
REMARK VINA RESULT:      -5.7      2.708      7.260
REMARK  Name = ZINC95485966
REMARK  17 active torsions:
REMARK  status: ('A' for Active; 'I' for Inactive)
REMARK    1  A    between atoms: C1_1  and  C2_2
REMARK    2  A    between atoms: C3_3  and  C28_33
REMARK    3  A    between atoms: C10_10  and  O1_18
REMARK    4  A    between atoms: C11_11  and  C12_12
REMARK    5  A    between atoms: C12_12  and  C13_13
REMARK    6  A    between atoms: C13_13  and  C14_14
REMARK    7  A    between atoms: C15_15  and  C16_16
REMARK    8  A    between atoms: C15_15  and  C17_17
REMARK    9  A    between atoms: C21_24  and  C22_26
REMARK   10  A    between atoms: C22_26  and  C23_27
REMARK   11  A    between atoms: C23_27  and  C24_28
REMARK   12  A    between atoms: C25_29  and  C26_30
REMARK   13  A    between atoms: C25_29  and  C27_31
REMARK   14  A    between atoms: C28_33  and  C29_34
REMARK   15  A    between atoms: C29_34  and  C30_35
REMARK   16  A    between atoms: C31_36  and  C32_37
REMARK   17  A    between atoms: C31_36  and  C33_38
REMARK                            x       y       z     vdW  Elec       q    Type
REMARK                         _______ _______ _______ _____ _____    ______ ____
ROOT
ATOM      1  C   UNL     1      48.707  12.969  19.641  0.00  0.00    +0.076 C 
ATOM      2  C   UNL     1      49.357  14.121  18.920  0.00  0.00    -0.042 A 
ATOM      3  C   UNL     1      49.282  15.374  19.453  0.00  0.00    -0.131 A 
ATOM     10  C   UNL     1      49.882  16.456  18.791  0.00  0.00    +0.053 A 
ATOM     11  C   UNL     1      49.809  17.759  19.318  0.00  0.00    -0.159 A 
ATOM     12  C   UNL     1      50.391  18.806  18.673  0.00  0.00    +0.050 A 
ATOM     13  C   UNL     1      50.244  20.179  19.278  0.00  0.00    +0.003 C 
ATOM     20  C   UNL     1      51.250  21.127  18.675  0.00  0.00    +0.386 C 
ATOM     21  O   UNL     1      51.906  21.865  19.371  0.00  0.00    -0.461 OA
ATOM     22  C   UNL     1      51.413  21.121  17.167  0.00  0.00    +0.003 C 
ATOM     23  C   UNL     1      51.763  19.702  16.775  0.00  0.00    +0.406 C 
ATOM     24  O   UNL     1      52.580  19.483  15.905  0.00  0.00    -0.457 OA
ATOM     25  C   UNL     1      51.093  18.595  17.470  0.00  0.00    -0.382 A 
ATOM     26  C   UNL     1      51.178  17.313  16.915  0.00  0.00    +0.343 A 
ATOM     27  O   UNL     1      51.842  17.117  15.752  0.00  0.00    -0.615 OA
ATOM     28  C   UNL     1      50.568  16.230  17.572  0.00  0.00    -0.176 A 
ATOM     29  C   UNL     1      50.628  14.926  17.042  0.00  0.00    +0.184 A 
ATOM     32  C   UNL     1      50.027  13.889  17.724  0.00  0.00    -0.178 A 
ENDROOT
BRANCH  29  30
ATOM     30  O   UNL     1      51.275  14.692  15.873  0.00  0.00    -0.472 OA
ATOM     31  H   UNL     1      51.389  15.478  15.322  0.00  0.00    +0.382 HD
ENDBRANCH  29  30
BRANCH   3   4
ATOM      4  C   UNL     1      48.555  15.597  20.754  0.00  0.00    +0.072 C 
BRANCH   4   5
ATOM      5  C   UNL     1      47.047  15.592  20.502  0.00  0.00    +0.053 C 
BRANCH   5   6
ATOM      6  C   UNL     1      46.626  16.928  19.947  0.00  0.00    -0.054 C 
ATOM      7  C   UNL     1      46.260  17.031  18.693  0.00  0.00    -0.141 C 
ATOM      8  C   UNL     1      45.823  18.364  18.143  0.00  0.00    +0.066 C 
ATOM      9  C   UNL     1      46.276  15.817  17.801  0.00  0.00    +0.071 C 
ENDBRANCH   5   6
ENDBRANCH   4   5
ENDBRANCH   3   4
BRANCH  13  14
ATOM     14  C   UNL     1      48.832  20.703  19.009  0.00  0.00    +0.060 C 
BRANCH  14  15
ATOM     15  C   UNL     1      48.135  20.998  20.339  0.00  0.00    +0.041 C 
BRANCH  15  16
ATOM     16  C   UNL     1      46.660  21.193  20.101  0.00  0.00    -0.047 C 
ATOM     17  C   UNL     1      45.789  20.677  20.931  0.00  0.00    -0.141 C 
ATOM     18  C   UNL     1      44.313  20.843  20.674  0.00  0.00    +0.069 C 
ATOM     19  C   UNL     1      46.261  19.917  22.143  0.00  0.00    +0.071 C 
ENDBRANCH  15  16
ENDBRANCH  14  15
ENDBRANCH  13  14
BRANCH  32  33
ATOM     33  C   UNL     1      50.093  12.491  17.166  0.00  0.00    +0.072 C 
BRANCH  33  34
ATOM     34  C   UNL     1      49.225  12.402  15.909  0.00  0.00    +0.055 C 
BRANCH  34  35
ATOM     35  C   UNL     1      47.809  12.793  16.247  0.00  0.00    -0.054 C 
ATOM     36  C   UNL     1      46.941  11.876  16.591  0.00  0.00    -0.141 C 
ATOM     37  C   UNL     1      45.578  12.278  17.094  0.00  0.00    +0.066 C 
ATOM     38  C   UNL     1      47.303  10.417  16.484  0.00  0.00    +0.070 C 
ENDBRANCH  34  35
ENDBRANCH  33  34
ENDBRANCH  32  33
TORSDOF 10
ENDMDL
MODEL 6
REMARK VINA RESULT:      -5.7      3.067      6.702
REMARK  Name = ZINC95485966
REMARK  17 active torsions:
REMARK  status: ('A' for Active; 'I' for Inactive)
REMARK    1  A    between atoms: C1_1  and  C2_2
REMARK    2  A    between atoms: C3_3  and  C28_33
REMARK    3  A    between atoms: C10_10  and  O1_18
REMARK    4  A    between atoms: C11_11  and  C12_12
REMARK    5  A    between atoms: C12_12  and  C13_13
REMARK    6  A    between atoms: C13_13  and  C14_14
REMARK    7  A    between atoms: C15_15  and  C16_16
REMARK    8  A    between atoms: C15_15  and  C17_17
REMARK    9  A    between atoms: C21_24  and  C22_26
REMARK   10  A    between atoms: C22_26  and  C23_27
REMARK   11  A    between atoms: C23_27  and  C24_28
REMARK   12  A    between atoms: C25_29  and  C26_30
REMARK   13  A    between atoms: C25_29  and  C27_31
REMARK   14  A    between atoms: C28_33  and  C29_34
REMARK   15  A    between atoms: C29_34  and  C30_35
REMARK   16  A    between atoms: C31_36  and  C32_37
REMARK   17  A    between atoms: C31_36  and  C33_38
REMARK                            x       y       z     vdW  Elec       q    Type
REMARK                         _______ _______ _______ _____ _____    ______ ____
ROOT
ATOM      1  C   UNL     1      52.769  17.776  20.790  0.00  0.00    +0.076 C 
ATOM      2  C   UNL     1      51.350  18.243  20.992  0.00  0.00    -0.042 A 
ATOM      3  C   UNL     1      50.332  17.338  20.944  0.00  0.00    -0.131 A 
ATOM     10  C   UNL     1      49.008  17.759  21.130  0.00  0.00    +0.053 A 
ATOM     11  C   UNL     1      47.940  16.842  21.075  0.00  0.00    -0.159 A 
ATOM     12  C   UNL     1      46.657  17.255  21.254  0.00  0.00    +0.050 A 
ATOM     13  C   UNL     1      45.561  16.223  21.149  0.00  0.00    +0.003 C 
ATOM     20  C   UNL     1      44.284  16.754  21.749  0.00  0.00    +0.386 C 
ATOM     21  O   UNL     1      43.623  16.080  22.503  0.00  0.00    -0.461 OA
ATOM     22  C   UNL     1      43.857  18.161  21.376  0.00  0.00    +0.003 C 
ATOM     23  C   UNL     1      45.005  19.074  21.751  0.00  0.00    +0.406 C 
ATOM     24  O   UNL     1      44.794  20.166  22.236  0.00  0.00    -0.457 OA
ATOM     25  C   UNL     1      46.378  18.610  21.515  0.00  0.00    -0.382 A 
ATOM     26  C   UNL     1      47.415  19.549  21.568  0.00  0.00    +0.343 A 
ATOM     27  O   UNL     1      47.142  20.854  21.806  0.00  0.00    -0.615 OA
ATOM     28  C   UNL     1      48.742  19.129  21.372  0.00  0.00    -0.176 A 
ATOM     29  C   UNL     1      49.812  20.045  21.414  0.00  0.00    +0.184 A 
ATOM     32  C   UNL     1      51.101  19.591  21.229  0.00  0.00    -0.178 A 
ENDROOT
BRANCH  29  30
ATOM     30  O   UNL     1      49.577  21.362  21.638  0.00  0.00    -0.472 OA
ATOM     31  H   UNL     1      50.325  21.834  22.031  0.00  0.00    +0.382 HD
ENDBRANCH  29  30
BRANCH   3   4
ATOM      4  C   UNL     1      50.632  15.882  20.692  0.00  0.00    +0.072 C 
BRANCH   4   5
ATOM      5  C   UNL     1      50.895  15.666  19.201  0.00  0.00    +0.053 C 
BRANCH   5   6
ATOM      6  C   UNL     1      49.601  15.328  18.507  0.00  0.00    -0.054 C 
ATOM      7  C   UNL     1      49.080  16.169  17.646  0.00  0.00    -0.141 C 
ATOM      8  C   UNL     1      47.795  15.823  16.939  0.00  0.00    +0.066 C 
ATOM      9  C   UNL     1      49.767  17.480  17.363  0.00  0.00    +0.071 C 
ENDBRANCH   5   6
ENDBRANCH   4   5
ENDBRANCH   3   4
BRANCH  13  14
ATOM     14  C   UNL     1      45.325  15.884  19.675  0.00  0.00    +0.060 C 
BRANCH  14  15
ATOM     15  C   UNL     1      45.353  14.365  19.490  0.00  0.00    +0.041 C 
BRANCH  15  16
ATOM     16  C   UNL     1      46.535  13.791  20.228  0.00  0.00    -0.047 C 
ATOM     17  C   UNL     1      47.305  12.908  19.644  0.00  0.00    -0.141 C 
ATOM     18  C   UNL     1      48.467  12.309  20.393  0.00  0.00    +0.069 C 
ATOM     19  C   UNL     1      47.031  12.492  18.222  0.00  0.00    +0.071 C 
ENDBRANCH  15  16
ENDBRANCH  14  15
ENDBRANCH  13  14
BRANCH  32  33
ATOM     33  C   UNL     1      52.250  20.564  21.278  0.00  0.00    +0.072 C 
BRANCH  33  34
ATOM     34  C   UNL     1      52.167  21.513  20.080  0.00  0.00    +0.055 C 
BRANCH  34  35
ATOM     35  C   UNL     1      52.580  20.781  18.829  0.00  0.00    -0.054 C 
ATOM     36  C   UNL     1      51.747  20.685  17.823  0.00  0.00    -0.141 C 
ATOM     37  C   UNL     1      52.214  20.107  16.511  0.00  0.00    +0.066 C 
ATOM     38  C   UNL     1      50.322  21.152  17.976  0.00  0.00    +0.070 C 
ENDBRANCH  34  35
ENDBRANCH  33  34
ENDBRANCH  32  33
TORSDOF 10
ENDMDL
MODEL 7
REMARK VINA RESULT:      -5.7      3.283      6.107
REMARK  Name = ZINC95485966
REMARK  17 active torsions:
REMARK  status: ('A' for Active; 'I' for Inactive)
REMARK    1  A    between atoms: C1_1  and  C2_2
REMARK    2  A    between atoms: C3_3  and  C28_33
REMARK    3  A    between atoms: C10_10  and  O1_18
REMARK    4  A    between atoms: C11_11  and  C12_12
REMARK    5  A    between atoms: C12_12  and  C13_13
REMARK    6  A    between atoms: C13_13  and  C14_14
REMARK    7  A    between atoms: C15_15  and  C16_16
REMARK    8  A    between atoms: C15_15  and  C17_17
REMARK    9  A    between atoms: C21_24  and  C22_26
REMARK   10  A    between atoms: C22_26  and  C23_27
REMARK   11  A    between atoms: C23_27  and  C24_28
REMARK   12  A    between atoms: C25_29  and  C26_30
REMARK   13  A    between atoms: C25_29  and  C27_31
REMARK   14  A    between atoms: C28_33  and  C29_34
REMARK   15  A    between atoms: C29_34  and  C30_35
REMARK   16  A    between atoms: C31_36  and  C32_37
REMARK   17  A    between atoms: C31_36  and  C33_38
REMARK                            x       y       z     vdW  Elec       q    Type
REMARK                         _______ _______ _______ _____ _____    ______ ____
ROOT
ATOM      1  C   UNL     1      48.995  20.753  19.489  0.00  0.00    +0.076 C 
ATOM      2  C   UNL     1      49.541  19.560  18.747  0.00  0.00    -0.042 A 
ATOM      3  C   UNL     1      48.896  18.362  18.837  0.00  0.00    -0.131 A 
ATOM     10  C   UNL     1      49.393  17.243  18.152  0.00  0.00    +0.053 A 
ATOM     11  C   UNL     1      48.750  15.994  18.239  0.00  0.00    -0.159 A 
ATOM     12  C   UNL     1      49.236  14.911  17.574  0.00  0.00    +0.050 A 
ATOM     13  C   UNL     1      48.514  13.597  17.740  0.00  0.00    +0.003 C 
ATOM     20  C   UNL     1      48.931  12.632  16.659  0.00  0.00    +0.386 C 
ATOM     21  O   UNL     1      48.111  11.986  16.050  0.00  0.00    -0.461 OA
ATOM     22  C   UNL     1      50.412  12.499  16.360  0.00  0.00    +0.003 C 
ATOM     23  C   UNL     1      50.908  13.887  16.013  0.00  0.00    +0.406 C 
ATOM     24  O   UNL     1      51.720  14.049  15.125  0.00  0.00    -0.457 OA
ATOM     25  C   UNL     1      50.387  15.030  16.771  0.00  0.00    -0.382 A 
ATOM     26  C   UNL     1      51.056  16.257  16.669  0.00  0.00    +0.343 A 
ATOM     27  O   UNL     1      52.170  16.364  15.908  0.00  0.00    -0.615 OA
ATOM     28  C   UNL     1      50.564  17.375  17.364  0.00  0.00    -0.176 A 
ATOM     29  C   UNL     1      51.211  18.624  17.290  0.00  0.00    +0.184 A 
ATOM     32  C   UNL     1      50.690  19.700  17.977  0.00  0.00    -0.178 A 
ENDROOT
BRANCH  29  30
ATOM     30  O   UNL     1      52.337  18.768  16.545  0.00  0.00    -0.472 OA
ATOM     31  H   UNL     1      52.492  19.673  16.239  0.00  0.00    +0.382 HD
ENDBRANCH  29  30
BRANCH   3   4
ATOM      4  C   UNL     1      47.648  18.239  19.674  0.00  0.00    +0.072 C 
BRANCH   4   5
ATOM      5  C   UNL     1      48.027  18.229  21.155  0.00  0.00    +0.053 C 
BRANCH   5   6
ATOM      6  C   UNL     1      47.979  16.815  21.676  0.00  0.00    -0.054 C 
ATOM      7  C   UNL     1      49.091  16.186  21.967  0.00  0.00    -0.141 C 
ATOM      8  C   UNL     1      49.042  14.779  22.503  0.00  0.00    +0.066 C 
ATOM      9  C   UNL     1      50.419  16.869  21.764  0.00  0.00    +0.071 C 
ENDBRANCH   5   6
ENDBRANCH   4   5
ENDBRANCH   3   4
BRANCH  13  14
ATOM     14  C   UNL     1      48.854  13.003  19.108  0.00  0.00    +0.060 C 
BRANCH  14  15
ATOM     15  C   UNL     1      47.571  12.516  19.785  0.00  0.00    +0.041 C 
BRANCH  15  16
ATOM     16  C   UNL     1      46.821  13.696  20.348  0.00  0.00    -0.047 C 
ATOM     17  C   UNL     1      45.636  14.001  19.882  0.00  0.00    -0.141 C 
ATOM     18  C   UNL     1      44.902  15.202  20.421  0.00  0.00    +0.069 C 
ATOM     19  C   UNL     1      45.007  13.153  18.808  0.00  0.00    +0.071 C 
ENDBRANCH  15  16
ENDBRANCH  14  15
ENDBRANCH  13  14
BRANCH  32  33
ATOM     33  C   UNL     1      51.374  21.040  17.897  0.00  0.00    +0.072 C 
BRANCH  33  34
ATOM     34  C   UNL     1      52.612  21.035  18.796  0.00  0.00    +0.055 C 
BRANCH  34  35
ATOM     35  C   UNL     1      52.311  21.781  20.070  0.00  0.00    -0.054 C 
ATOM     36  C   UNL     1      52.306  21.146  21.215  0.00  0.00    -0.141 C 
ATOM     37  C   UNL     1      52.176  21.916  22.505  0.00  0.00    +0.066 C 
ATOM     38  C   UNL     1      52.430  19.644  21.244  0.00  0.00    +0.070 C 
ENDBRANCH  34  35
ENDBRANCH  33  34
ENDBRANCH  32  33
TORSDOF 10
ENDMDL
MODEL 8
REMARK VINA RESULT:      -5.7      2.545      7.186
REMARK  Name = ZINC95485966
REMARK  17 active torsions:
REMARK  status: ('A' for Active; 'I' for Inactive)
REMARK    1  A    between atoms: C1_1  and  C2_2
REMARK    2  A    between atoms: C3_3  and  C28_33
REMARK    3  A    between atoms: C10_10  and  O1_18
REMARK    4  A    between atoms: C11_11  and  C12_12
REMARK    5  A    between atoms: C12_12  and  C13_13
REMARK    6  A    between atoms: C13_13  and  C14_14
REMARK    7  A    between atoms: C15_15  and  C16_16
REMARK    8  A    between atoms: C15_15  and  C17_17
REMARK    9  A    between atoms: C21_24  and  C22_26
REMARK   10  A    between atoms: C22_26  and  C23_27
REMARK   11  A    between atoms: C23_27  and  C24_28
REMARK   12  A    between atoms: C25_29  and  C26_30
REMARK   13  A    between atoms: C25_29  and  C27_31
REMARK   14  A    between atoms: C28_33  and  C29_34
REMARK   15  A    between atoms: C29_34  and  C30_35
REMARK   16  A    between atoms: C31_36  and  C32_37
REMARK   17  A    between atoms: C31_36  and  C33_38
REMARK                            x       y       z     vdW  Elec       q    Type
REMARK                         _______ _______ _______ _____ _____    ______ ____
ROOT
ATOM      1  C   UNL     1      48.993  13.932  17.968  0.00  0.00    +0.076 C 
ATOM      2  C   UNL     1      47.899  14.651  18.714  0.00  0.00    -0.042 A 
ATOM      3  C   UNL     1      47.391  15.810  18.206  0.00  0.00    -0.131 A 
ATOM     10  C   UNL     1      46.373  16.490  18.891  0.00  0.00    +0.053 A 
ATOM     11  C   UNL     1      45.841  17.694  18.390  0.00  0.00    -0.159 A 
ATOM     12  C   UNL     1      44.855  18.351  19.058  0.00  0.00    +0.050 A 
ATOM     13  C   UNL     1      44.355  19.651  18.480  0.00  0.00    +0.003 C 
ATOM     20  C   UNL     1      43.036  20.029  19.105  0.00  0.00    +0.386 C 
ATOM     21  O   UNL     1      42.109  20.401  18.426  0.00  0.00    -0.461 OA
ATOM     22  C   UNL     1      42.911  19.925  20.613  0.00  0.00    +0.003 C 
ATOM     23  C   UNL     1      43.248  18.495  20.976  0.00  0.00    +0.406 C 
ATOM     24  O   UNL     1      42.628  17.914  21.844  0.00  0.00    -0.457 OA
ATOM     25  C   UNL     1      44.338  17.824  20.258  0.00  0.00    -0.382 A 
ATOM     26  C   UNL     1      44.851  16.634  20.787  0.00  0.00    +0.343 A 
ATOM     27  O   UNL     1      44.362  16.139  21.948  0.00  0.00    -0.615 OA
ATOM     28  C   UNL     1      45.879  15.957  20.107  0.00  0.00    -0.176 A 
ATOM     29  C   UNL     1      46.423  14.760  20.611  0.00  0.00    +0.184 A 
ATOM     32  C   UNL     1      47.421  14.120  19.907  0.00  0.00    -0.178 A 
ENDROOT
BRANCH  29  30
ATOM     30  O   UNL     1      45.966  14.237  21.777  0.00  0.00    -0.472 OA
ATOM     31  H   UNL     1      45.047  14.465  21.976  0.00  0.00    +0.382 HD
ENDBRANCH  29  30
BRANCH   3   4
ATOM      4  C   UNL     1      47.923  16.360  16.908  0.00  0.00    +0.072 C 
BRANCH   4   5
ATOM      5  C   UNL     1      48.784  17.592  17.191  0.00  0.00    +0.053 C 
BRANCH   5   6
ATOM      6  C   UNL     1      50.024  17.176  17.941  0.00  0.00    -0.054 C 
ATOM      7  C   UNL     1      51.187  17.689  17.619  0.00  0.00    -0.141 C 
ATOM      8  C   UNL     1      52.423  17.286  18.380  0.00  0.00    +0.066 C 
ATOM      9  C   UNL     1      51.287  18.680  16.489  0.00  0.00    +0.071 C 
ENDBRANCH   5   6
ENDBRANCH   4   5
ENDBRANCH   3   4
BRANCH  13  14
ATOM     14  C   UNL     1      45.379  20.754  18.756  0.00  0.00    +0.060 C 
BRANCH  14  15
ATOM     15  C   UNL     1      46.343  20.293  19.851  0.00  0.00    +0.041 C 
BRANCH  15  16
ATOM     16  C   UNL     1      47.740  20.748  19.514  0.00  0.00    -0.047 C 
ATOM     17  C   UNL     1      48.772  20.079  19.966  0.00  0.00    -0.141 C 
ATOM     18  C   UNL     1      50.169  20.553  19.658  0.00  0.00    +0.069 C 
ATOM     19  C   UNL     1      48.564  18.838  20.792  0.00  0.00    +0.071 C 
ENDBRANCH  15  16
ENDBRANCH  14  15
ENDBRANCH  13  14
BRANCH  32  33
ATOM     33  C   UNL     1      48.003  12.835  20.437  0.00  0.00    +0.072 C 
BRANCH  33  34
ATOM     34  C   UNL     1      48.980  13.148  21.573  0.00  0.00    +0.055 C 
BRANCH  34  35
ATOM     35  C   UNL     1      50.388  13.155  21.037  0.00  0.00    -0.054 C 
ATOM     36  C   UNL     1      51.068  14.274  20.997  0.00  0.00    -0.141 C 
ATOM     37  C   UNL     1      52.528  14.256  20.625  0.00  0.00    +0.066 C 
ATOM     38  C   UNL     1      50.389  15.580  21.321  0.00  0.00    +0.070 C 
ENDBRANCH  34  35
ENDBRANCH  33  34
ENDBRANCH  32  33
TORSDOF 10
ENDMDL
MODEL 9
REMARK VINA RESULT:      -5.6      3.008      7.361
REMARK  Name = ZINC95485966
REMARK  17 active torsions:
REMARK  status: ('A' for Active; 'I' for Inactive)
REMARK    1  A    between atoms: C1_1  and  C2_2
REMARK    2  A    between atoms: C3_3  and  C28_33
REMARK    3  A    between atoms: C10_10  and  O1_18
REMARK    4  A    between atoms: C11_11  and  C12_12
REMARK    5  A    between atoms: C12_12  and  C13_13
REMARK    6  A    between atoms: C13_13  and  C14_14
REMARK    7  A    between atoms: C15_15  and  C16_16
REMARK    8  A    between atoms: C15_15  and  C17_17
REMARK    9  A    between atoms: C21_24  and  C22_26
REMARK   10  A    between atoms: C22_26  and  C23_27
REMARK   11  A    between atoms: C23_27  and  C24_28
REMARK   12  A    between atoms: C25_29  and  C26_30
REMARK   13  A    between atoms: C25_29  and  C27_31
REMARK   14  A    between atoms: C28_33  and  C29_34
REMARK   15  A    between atoms: C29_34  and  C30_35
REMARK   16  A    between atoms: C31_36  and  C32_37
REMARK   17  A    between atoms: C31_36  and  C33_38
REMARK                            x       y       z     vdW  Elec       q    Type
REMARK                         _______ _______ _______ _____ _____    ______ ____
ROOT
ATOM      1  C   UNL     1      49.247  12.845  19.829  0.00  0.00    +0.076 C 
ATOM      2  C   UNL     1      49.781  14.059  19.113  0.00  0.00    -0.042 A 
ATOM      3  C   UNL     1      49.747  15.272  19.732  0.00  0.00    -0.131 A 
ATOM     10  C   UNL     1      50.239  16.410  19.077  0.00  0.00    +0.053 A 
ATOM     11  C   UNL     1      50.204  17.675  19.694  0.00  0.00    -0.159 A 
ATOM     12  C   UNL     1      50.682  18.777  19.054  0.00  0.00    +0.050 A 
ATOM     13  C   UNL     1      50.582  20.104  19.762  0.00  0.00    +0.003 C 
ATOM     20  C   UNL     1      51.488  21.116  19.106  0.00  0.00    +0.386 C 
ATOM     21  O   UNL     1      52.208  21.827  19.765  0.00  0.00    -0.461 OA
ATOM     22  C   UNL     1      51.465  21.211  17.592  0.00  0.00    +0.003 C 
ATOM     23  C   UNL     1      51.794  19.829  17.069  0.00  0.00    +0.406 C 
ATOM     24  O   UNL     1      52.503  19.689  16.094  0.00  0.00    -0.457 OA
ATOM     25  C   UNL     1      51.236  18.663  17.764  0.00  0.00    -0.382 A 
ATOM     26  C   UNL     1      51.279  17.420  17.119  0.00  0.00    +0.343 A 
ATOM     27  O   UNL     1      51.800  17.317  15.874  0.00  0.00    -0.615 OA
ATOM     28  C   UNL     1      50.775  16.282  17.772  0.00  0.00    -0.176 A 
ATOM     29  C   UNL     1      50.797  15.016  17.153  0.00  0.00    +0.184 A 
ATOM     32  C   UNL     1      50.305  13.921  17.832  0.00  0.00    -0.178 A 
ENDROOT
BRANCH  29  30
ATOM     30  O   UNL     1      51.301  14.874  15.901  0.00  0.00    -0.472 OA
ATOM     31  H   UNL     1      51.268  15.682  15.370  0.00  0.00    +0.382 HD
ENDBRANCH  29  30
BRANCH   3   4
ATOM      4  C   UNL     1      49.179  15.392  21.124  0.00  0.00    +0.072 C 
BRANCH   4   5
ATOM      5  C   UNL     1      47.708  15.800  21.041  0.00  0.00    +0.053 C 
BRANCH   5   6
ATOM      6  C   UNL     1      46.883  14.887  21.911  0.00  0.00    -0.054 C 
ATOM      7  C   UNL     1      45.939  14.151  21.377  0.00  0.00    -0.141 C 
ATOM      8  C   UNL     1      45.125  13.225  22.244  0.00  0.00    +0.066 C 
ATOM      9  C   UNL     1      45.667  14.229  19.897  0.00  0.00    +0.071 C 
ENDBRANCH   5   6
ENDBRANCH   4   5
ENDBRANCH   3   4
BRANCH  13  14
ATOM     14  C   UNL     1      49.137  20.604  19.700  0.00  0.00    +0.060 C 
BRANCH  14  15
ATOM     15  C   UNL     1      48.359  19.789  18.665  0.00  0.00    +0.041 C 
BRANCH  15  16
ATOM     16  C   UNL     1      47.046  19.346  19.257  0.00  0.00    -0.047 C 
ATOM     17  C   UNL     1      46.420  18.310  18.759  0.00  0.00    -0.141 C 
ATOM     18  C   UNL     1      45.091  17.888  19.329  0.00  0.00    +0.069 C 
ATOM     19  C   UNL     1      47.028  17.539  17.616  0.00  0.00    +0.071 C 
ENDBRANCH  15  16
ENDBRANCH  14  15
ENDBRANCH  13  14
BRANCH  32  33
ATOM     33  C   UNL     1      50.330  12.564  17.179  0.00  0.00    +0.072 C 
BRANCH  33  34
ATOM     34  C   UNL     1      49.312  12.528  16.037  0.00  0.00    +0.055 C 
BRANCH  34  35
ATOM     35  C   UNL     1      48.028  11.912  16.528  0.00  0.00    -0.054 C 
ATOM     36  C   UNL     1      46.943  12.640  16.613  0.00  0.00    -0.141 C 
ATOM     37  C   UNL     1      45.622  11.991  16.938  0.00  0.00    +0.066 C 
ATOM     38  C   UNL     1      47.015  14.129  16.387  0.00  0.00    +0.070 C 
ENDBRANCH  34  35
ENDBRANCH  33  34
ENDBRANCH  32  33
TORSDOF 10
ENDMDL
