MODEL 1
REMARK VINA RESULT:      -7.2      0.000      0.000
REMARK  Name = ZINC95486241
REMARK  17 active torsions:
REMARK  status: ('A' for Active; 'I' for Inactive)
REMARK    1  A    between atoms: C1_1  and  C2_2
REMARK    2  A    between atoms: C6_7  and  C36_56
REMARK    3  A    between atoms: C11_13  and  C23_28
REMARK    4  A    between atoms: C14_16  and  C22_25
REMARK    5  A    between atoms: C17_20  and  C20_23
REMARK    6  A    between atoms: C17_20  and  C21_24
REMARK    7  A    between atoms: C25_30  and  O10_55
REMARK    8  A    between atoms: C26_32  and  O4_38
REMARK    9  A    between atoms: C27_34  and  C28_35
REMARK   10  A    between atoms: C27_34  and  C29_36
REMARK   11  A    between atoms: C29_36  and  O3_37
REMARK   12  A    between atoms: O4_38  and  C30_39
REMARK   13  A    between atoms: C31_41  and  O9_54
REMARK   14  A    between atoms: C32_43  and  O8_53
REMARK   15  A    between atoms: C33_45  and  O7_52
REMARK   16  A    between atoms: C34_47  and  C35_50
REMARK   17  A    between atoms: C35_50  and  O6_51
REMARK                            x       y       z     vdW  Elec       q    Type
REMARK                         _______ _______ _______ _____ _____    ______ ____
ROOT
ATOM      1  C   UNL     1      48.496  16.463  22.212  0.00  0.00    +0.013 C 
ATOM      2  C   UNL     1      48.639  15.819  20.826  0.00  0.00    -0.025 C 
ATOM      3  C   UNL     1      48.938  14.408  21.108  0.00  0.00    +0.015 C 
ATOM      4  C   UNL     1      48.630  13.461  19.951  0.00  0.00    -0.007 C 
ATOM      5  C   UNL     1      47.218  13.582  19.398  0.00  0.00    +0.039 C 
ATOM      6  C   UNL     1      46.687  14.965  19.245  0.00  0.00    -0.014 C 
ATOM      7  C   UNL     1      45.229  14.954  19.537  0.00  0.00    +0.008 C 
ATOM      8  C   UNL     1      46.842  15.656  17.892  0.00  0.00    +0.009 C 
ATOM      9  C   UNL     1      47.387  14.856  16.691  0.00  0.00    +0.138 C 
ATOM     12  C   UNL     1      47.988  13.470  17.005  0.00  0.00    +0.211 C 
ATOM     29  C   UNL     1      47.164  12.820  18.090  0.00  0.00    -0.053 C 
ATOM     33  C   UNL     1      45.707  12.597  17.585  0.00  0.00    +0.052 C 
ATOM     34  C   UNL     1      49.698  16.467  20.013  0.00  0.00    +0.033 C 
ATOM     35  C   UNL     1      49.889  15.766  18.698  0.00  0.00    +0.017 C 
ATOM     36  C   UNL     1      50.989  16.500  20.729  0.00  0.00    +0.015 C 
ATOM     37  C   UNL     1      52.022  17.451  20.105  0.00  0.00    +0.029 C 
ATOM     38  C   UNL     1      51.509  18.892  20.030  0.00  0.00    -0.128 C 
ATOM     42  C   UNL     1      50.218  18.987  19.234  0.00  0.00    +0.060 C 
ATOM     43  C   UNL     1      50.471  18.781  17.670  0.00  0.00    +0.006 C 
ATOM     44  C   UNL     1      51.501  19.758  17.166  0.00  0.00    -0.053 C 
ATOM     45  C   UNL     1      51.021  21.206  17.314  0.00  0.00    +0.010 C 
ATOM     46  C   UNL     1      51.774  19.492  15.741  0.00  0.00    +0.014 C 
ATOM     47  C   UNL     1      52.760  19.636  17.949  0.00  0.00    -0.015 C 
ATOM     48  C   UNL     1      52.547  19.901  19.469  0.00  0.00    +0.032 C 
ATOM     49  C   UNL     1      49.183  17.885  19.591  0.00  0.00    -0.051 C 
ATOM     50  C   UNL     1      47.926  18.262  19.548  0.00  0.00    -0.092 C 
ATOM     51  C   UNL     1      46.764  17.386  19.958  0.00  0.00    +0.043 C 
ATOM     52  C   UNL     1      47.145  15.912  20.302  0.00  0.00    -0.014 C 
ENDROOT
BRANCH  38  39
ATOM     39  C   UNL     1      51.159  19.468  21.424  0.00  0.00    +0.502 C 
ATOM     40  O   UNL     1      50.192  20.198  21.558  0.00  0.00    -0.685 OA
ATOM     41  O   UNL     1      51.852  19.192  22.388  0.00  0.00    -0.706 OA
ENDBRANCH  38  39
BRANCH   9  10
ATOM     10  O   UNL     1      46.398  14.820  15.642  0.00  0.00    -0.551 OA
ATOM     11  H   UNL     1      46.711  14.417  14.821  0.00  0.00    +0.367 HD
ENDBRANCH   9  10
BRANCH  12  13
ATOM     13  O   UNL     1      47.913  12.753  15.770  0.00  0.00    -0.309 OA
BRANCH  13  14
ATOM     14  C   UNL     1      49.149  12.162  15.364  0.00  0.00    +0.280 C 
ATOM     15  C   UNL     1      49.657  12.860  14.098  0.00  0.00    +0.146 C 
ATOM     18  C   UNL     1      51.011  12.262  13.704  0.00  0.00    +0.157 C 
ATOM     21  C   UNL     1      51.983  12.410  14.878  0.00  0.00    +0.168 C 
ATOM     24  C   UNL     1      51.386  11.731  16.113  0.00  0.00    +0.185 C 
ATOM     28  O   UNL     1      50.115  12.311  16.407  0.00  0.00    -0.366 OA
BRANCH  15  16
ATOM     16  O   UNL     1      48.719  12.664  13.038  0.00  0.00    -0.561 OA
ATOM     17  H   UNL     1      49.009  13.017  12.186  0.00  0.00    +0.398 HD
ENDBRANCH  15  16
BRANCH  18  19
ATOM     19  O   UNL     1      51.526  12.955  12.564  0.00  0.00    -0.559 OA
ATOM     20  H   UNL     1      52.055  12.401  11.975  0.00  0.00    +0.392 HD
ENDBRANCH  18  19
BRANCH  21  22
ATOM     22  O   UNL     1      53.229  11.792  14.547  0.00  0.00    -0.552 OA
ATOM     23  H   UNL     1      53.223  10.829  14.624  0.00  0.00    +0.390 HD
ENDBRANCH  21  22
BRANCH  24  25
ATOM     25  C   UNL     1      52.324  11.925  17.306  0.00  0.00    +0.214 C 
BRANCH  25  26
ATOM     26  O   UNL     1      53.317  10.896  17.304  0.00  0.00    -0.557 OA
ATOM     27  H   UNL     1      53.276  10.309  18.071  0.00  0.00    +0.379 HD
ENDBRANCH  25  26
ENDBRANCH  24  25
ENDBRANCH  13  14
ENDBRANCH  12  13
BRANCH  29  30
ATOM     30  C   UNL     1      47.777  11.402  18.262  0.00  0.00    +0.161 C 
BRANCH  30  31
ATOM     31  O   UNL     1      47.046  10.467  17.467  0.00  0.00    -0.552 OA
ATOM     32  H   UNL     1      46.231  10.824  17.089  0.00  0.00    +0.368 HD
ENDBRANCH  30  31
ENDBRANCH  29  30
TORSDOF 11
ENDMDL
MODEL 2
REMARK VINA RESULT:      -6.8      0.981      2.099
REMARK  Name = ZINC95486241
REMARK  17 active torsions:
REMARK  status: ('A' for Active; 'I' for Inactive)
REMARK    1  A    between atoms: C1_1  and  C2_2
REMARK    2  A    between atoms: C6_7  and  C36_56
REMARK    3  A    between atoms: C11_13  and  C23_28
REMARK    4  A    between atoms: C14_16  and  C22_25
REMARK    5  A    between atoms: C17_20  and  C20_23
REMARK    6  A    between atoms: C17_20  and  C21_24
REMARK    7  A    between atoms: C25_30  and  O10_55
REMARK    8  A    between atoms: C26_32  and  O4_38
REMARK    9  A    between atoms: C27_34  and  C28_35
REMARK   10  A    between atoms: C27_34  and  C29_36
REMARK   11  A    between atoms: C29_36  and  O3_37
REMARK   12  A    between atoms: O4_38  and  C30_39
REMARK   13  A    between atoms: C31_41  and  O9_54
REMARK   14  A    between atoms: C32_43  and  O8_53
REMARK   15  A    between atoms: C33_45  and  O7_52
REMARK   16  A    between atoms: C34_47  and  C35_50
REMARK   17  A    between atoms: C35_50  and  O6_51
REMARK                            x       y       z     vdW  Elec       q    Type
REMARK                         _______ _______ _______ _____ _____    ______ ____
ROOT
ATOM      1  C   UNL     1      48.148  17.415  22.108  0.00  0.00    +0.013 C 
ATOM      2  C   UNL     1      48.514  16.534  20.904  0.00  0.00    -0.025 C 
ATOM      3  C   UNL     1      48.840  15.228  21.496  0.00  0.00    +0.015 C 
ATOM      4  C   UNL     1      48.743  14.059  20.519  0.00  0.00    -0.007 C 
ATOM      5  C   UNL     1      47.417  13.966  19.779  0.00  0.00    +0.039 C 
ATOM      6  C   UNL     1      46.845  15.251  19.290  0.00  0.00    -0.014 C 
ATOM      7  C   UNL     1      45.363  15.185  19.392  0.00  0.00    +0.008 C 
ATOM      8  C   UNL     1      47.151  15.683  17.858  0.00  0.00    +0.009 C 
ATOM      9  C   UNL     1      47.895  14.714  16.917  0.00  0.00    +0.138 C 
ATOM     12  C   UNL     1      48.516  13.463  17.572  0.00  0.00    +0.211 C 
ATOM     29  C   UNL     1      47.583  12.968  18.651  0.00  0.00    -0.053 C 
ATOM     33  C   UNL     1      46.223  12.545  18.020  0.00  0.00    +0.052 C 
ATOM     34  C   UNL     1      49.641  17.095  20.120  0.00  0.00    +0.033 C 
ATOM     35  C   UNL     1      50.048  16.175  19.004  0.00  0.00    +0.017 C 
ATOM     36  C   UNL     1      50.818  17.360  20.973  0.00  0.00    +0.015 C 
ATOM     37  C   UNL     1      51.879  18.252  20.309  0.00  0.00    +0.029 C 
ATOM     38  C   UNL     1      51.310  19.609  19.886  0.00  0.00    -0.128 C 
ATOM     42  C   UNL     1      50.138  19.454  18.931  0.00  0.00    +0.060 C 
ATOM     43  C   UNL     1      50.615  18.976  17.483  0.00  0.00    +0.006 C 
ATOM     44  C   UNL     1      51.656  19.915  16.930  0.00  0.00    -0.053 C 
ATOM     45  C   UNL     1      51.089  21.324  16.728  0.00  0.00    +0.010 C 
ATOM     46  C   UNL     1      52.136  19.405  15.632  0.00  0.00    +0.014 C 
ATOM     47  C   UNL     1      52.799  20.038  17.875  0.00  0.00    -0.015 C 
ATOM     48  C   UNL     1      52.364  20.570  19.273  0.00  0.00    +0.032 C 
ATOM     49  C   UNL     1      49.120  18.364  19.365  0.00  0.00    -0.051 C 
ATOM     50  C   UNL     1      47.864  18.630  19.090  0.00  0.00    -0.092 C 
ATOM     51  C   UNL     1      46.701  17.762  19.515  0.00  0.00    +0.043 C 
ATOM     52  C   UNL     1      47.104  16.413  20.189  0.00  0.00    -0.014 C 
ENDROOT
BRANCH  38  39
ATOM     39  C   UNL     1      50.742  20.410  21.084  0.00  0.00    +0.502 C 
ATOM     40  O   UNL     1      51.424  20.585  22.079  0.00  0.00    -0.685 OA
ATOM     41  O   UNL     1      49.613  20.867  21.031  0.00  0.00    -0.706 OA
ENDBRANCH  38  39
BRANCH   9  10
ATOM     10  O   UNL     1      47.065  14.406  15.779  0.00  0.00    -0.551 OA
ATOM     11  H   UNL     1      46.273  14.956  15.710  0.00  0.00    +0.367 HD
ENDBRANCH   9  10
BRANCH  12  13
ATOM     13  O   UNL     1      48.648  12.521  16.503  0.00  0.00    -0.309 OA
BRANCH  13  14
ATOM     14  C   UNL     1      49.626  12.884  15.526  0.00  0.00    +0.280 C 
ATOM     15  C   UNL     1      50.770  11.866  15.547  0.00  0.00    +0.146 C 
ATOM     18  C   UNL     1      51.785  12.227  14.458  0.00  0.00    +0.157 C 
ATOM     21  C   UNL     1      51.069  12.269  13.105  0.00  0.00    +0.168 C 
ATOM     24  C   UNL     1      49.914  13.270  13.177  0.00  0.00    +0.185 C 
ATOM     28  O   UNL     1      49.025  12.894  14.230  0.00  0.00    -0.366 OA
BRANCH  15  16
ATOM     16  O   UNL     1      51.409  11.894  16.826  0.00  0.00    -0.561 OA
ATOM     17  H   UNL     1      51.793  12.751  17.055  0.00  0.00    +0.398 HD
ENDBRANCH  15  16
BRANCH  18  19
ATOM     19  O   UNL     1      52.820  11.243  14.423  0.00  0.00    -0.559 OA
ATOM     20  H   UNL     1      53.384  11.238  15.208  0.00  0.00    +0.392 HD
ENDBRANCH  18  19
BRANCH  21  22
ATOM     22  O   UNL     1      51.991  12.674  12.090  0.00  0.00    -0.552 OA
ATOM     23  H   UNL     1      51.586  13.172  11.366  0.00  0.00    +0.390 HD
ENDBRANCH  21  22
BRANCH  24  25
ATOM     25  C   UNL     1      49.157  13.275  11.847  0.00  0.00    +0.214 C 
BRANCH  25  26
ATOM     26  O   UNL     1      49.891  12.522  10.879  0.00  0.00    -0.557 OA
ATOM     27  H   UNL     1      50.334  13.064  10.213  0.00  0.00    +0.379 HD
ENDBRANCH  25  26
ENDBRANCH  24  25
ENDBRANCH  13  14
ENDBRANCH  12  13
BRANCH  29  30
ATOM     30  C   UNL     1      48.235  11.660  19.176  0.00  0.00    +0.161 C 
BRANCH  30  31
ATOM     31  O   UNL     1      49.631  11.668  18.871  0.00  0.00    -0.552 OA
ATOM     32  H   UNL     1      50.202  11.508  19.635  0.00  0.00    +0.368 HD
ENDBRANCH  30  31
ENDBRANCH  29  30
TORSDOF 11
ENDMDL
MODEL 3
REMARK VINA RESULT:      -6.5      2.308      7.513
REMARK  Name = ZINC95486241
REMARK  17 active torsions:
REMARK  status: ('A' for Active; 'I' for Inactive)
REMARK    1  A    between atoms: C1_1  and  C2_2
REMARK    2  A    between atoms: C6_7  and  C36_56
REMARK    3  A    between atoms: C11_13  and  C23_28
REMARK    4  A    between atoms: C14_16  and  C22_25
REMARK    5  A    between atoms: C17_20  and  C20_23
REMARK    6  A    between atoms: C17_20  and  C21_24
REMARK    7  A    between atoms: C25_30  and  O10_55
REMARK    8  A    between atoms: C26_32  and  O4_38
REMARK    9  A    between atoms: C27_34  and  C28_35
REMARK   10  A    between atoms: C27_34  and  C29_36
REMARK   11  A    between atoms: C29_36  and  O3_37
REMARK   12  A    between atoms: O4_38  and  C30_39
REMARK   13  A    between atoms: C31_41  and  O9_54
REMARK   14  A    between atoms: C32_43  and  O8_53
REMARK   15  A    between atoms: C33_45  and  O7_52
REMARK   16  A    between atoms: C34_47  and  C35_50
REMARK   17  A    between atoms: C35_50  and  O6_51
REMARK                            x       y       z     vdW  Elec       q    Type
REMARK                         _______ _______ _______ _____ _____    ______ ____
ROOT
ATOM      1  C   UNL     1      46.403  14.040  17.420  0.00  0.00    +0.013 C 
ATOM      2  C   UNL     1      46.994  15.339  17.987  0.00  0.00    -0.025 C 
ATOM      3  C   UNL     1      46.588  16.374  17.024  0.00  0.00    +0.015 C 
ATOM      4  C   UNL     1      46.600  17.792  17.589  0.00  0.00    -0.007 C 
ATOM      5  C   UNL     1      45.813  17.961  18.880  0.00  0.00    +0.039 C 
ATOM      6  C   UNL     1      45.960  16.875  19.888  0.00  0.00    -0.014 C 
ATOM      7  C   UNL     1      44.661  16.692  20.589  0.00  0.00    +0.008 C 
ATOM      8  C   UNL     1      47.011  17.038  20.983  0.00  0.00    +0.009 C 
ATOM      9  C   UNL     1      47.767  18.376  21.113  0.00  0.00    +0.138 C 
ATOM     12  C   UNL     1      47.594  19.378  19.953  0.00  0.00    +0.211 C 
ATOM     29  C   UNL     1      46.166  19.312  19.466  0.00  0.00    -0.053 C 
ATOM     33  C   UNL     1      45.199  19.742  20.609  0.00  0.00    +0.052 C 
ATOM     34  C   UNL     1      48.467  15.264  18.146  0.00  0.00    +0.033 C 
ATOM     35  C   UNL     1      49.038  16.573  18.612  0.00  0.00    +0.017 C 
ATOM     36  C   UNL     1      49.131  14.874  16.885  0.00  0.00    +0.015 C 
ATOM     37  C   UNL     1      50.594  14.441  17.062  0.00  0.00    +0.029 C 
ATOM     38  C   UNL     1      50.735  13.265  18.031  0.00  0.00    -0.128 C 
ATOM     42  C   UNL     1      50.157  13.591  19.398  0.00  0.00    +0.060 C 
ATOM     43  C   UNL     1      51.078  14.622  20.199  0.00  0.00    +0.006 C 
ATOM     44  C   UNL     1      52.488  14.102  20.308  0.00  0.00    -0.053 C 
ATOM     45  C   UNL     1      52.544  12.799  21.110  0.00  0.00    +0.010 C 
ATOM     46  C   UNL     1      53.331  15.110  20.977  0.00  0.00    +0.014 C 
ATOM     47  C   UNL     1      53.037  13.806  18.957  0.00  0.00    -0.015 C 
ATOM     48  C   UNL     1      52.191  12.748  18.186  0.00  0.00    +0.032 C 
ATOM     49  C   UNL     1      48.775  14.295  19.338  0.00  0.00    -0.051 C 
ATOM     50  C   UNL     1      47.940  13.975  20.300  0.00  0.00    -0.092 C 
ATOM     51  C   UNL     1      46.510  14.459  20.378  0.00  0.00    +0.043 C 
ATOM     52  C   UNL     1      46.116  15.514  19.297  0.00  0.00    -0.014 C 
ENDROOT
BRANCH  38  39
ATOM     39  C   UNL     1      49.956  12.013  17.559  0.00  0.00    +0.502 C 
ATOM     40  O   UNL     1      49.379  11.310  18.371  0.00  0.00    -0.685 OA
ATOM     41  O   UNL     1      49.918  11.730  16.373  0.00  0.00    -0.706 OA
ENDBRANCH  38  39
BRANCH   9  10
ATOM     10  O   UNL     1      47.510  18.957  22.407  0.00  0.00    -0.551 OA
ATOM     11  H   UNL     1      47.339  19.908  22.384  0.00  0.00    +0.367 HD
ENDBRANCH   9  10
BRANCH  12  13
ATOM     13  O   UNL     1      47.909  20.652  20.523  0.00  0.00    -0.309 OA
BRANCH  13  14
ATOM     14  C   UNL     1      49.199  21.149  20.158  0.00  0.00    +0.280 C 
ATOM     15  C   UNL     1      50.239  20.658  21.169  0.00  0.00    +0.146 C 
ATOM     18  C   UNL     1      51.627  21.145  20.738  0.00  0.00    +0.157 C 
ATOM     21  C   UNL     1      51.913  20.645  19.320  0.00  0.00    +0.168 C 
ATOM     24  C   UNL     1      50.808  21.135  18.381  0.00  0.00    +0.185 C 
ATOM     28  O   UNL     1      49.542  20.674  18.855  0.00  0.00    -0.366 OA
BRANCH  15  16
ATOM     16  O   UNL     1      49.929  21.178  22.463  0.00  0.00    -0.561 OA
ATOM     17  H   UNL     1      49.361  20.603  22.992  0.00  0.00    +0.398 HD
ENDBRANCH  15  16
BRANCH  18  19
ATOM     19  O   UNL     1      52.613  20.633  21.636  0.00  0.00    -0.559 OA
ATOM     20  H   UNL     1      52.489  20.908  22.555  0.00  0.00    +0.392 HD
ENDBRANCH  18  19
BRANCH  21  22
ATOM     22  O   UNL     1      53.175  21.152  18.880  0.00  0.00    -0.552 OA
ATOM     23  H   UNL     1      53.524  20.710  18.094  0.00  0.00    +0.390 HD
ENDBRANCH  21  22
BRANCH  24  25
ATOM     25  C   UNL     1      51.055  20.589  16.972  0.00  0.00    +0.214 C 
BRANCH  25  26
ATOM     26  O   UNL     1      51.839  21.527  16.230  0.00  0.00    -0.557 OA
ATOM     27  H   UNL     1      51.552  22.444  16.329  0.00  0.00    +0.379 HD
ENDBRANCH  25  26
ENDBRANCH  24  25
ENDBRANCH  13  14
ENDBRANCH  12  13
BRANCH  29  30
ATOM     30  C   UNL     1      46.062  20.419  18.380  0.00  0.00    +0.161 C 
BRANCH  30  31
ATOM     31  O   UNL     1      45.463  21.587  18.946  0.00  0.00    -0.552 OA
ATOM     32  H   UNL     1      44.595  21.431  19.343  0.00  0.00    +0.368 HD
ENDBRANCH  30  31
ENDBRANCH  29  30
TORSDOF 11
ENDMDL
MODEL 4
REMARK VINA RESULT:      -6.4      2.747      6.161
REMARK  Name = ZINC95486241
REMARK  17 active torsions:
REMARK  status: ('A' for Active; 'I' for Inactive)
REMARK    1  A    between atoms: C1_1  and  C2_2
REMARK    2  A    between atoms: C6_7  and  C36_56
REMARK    3  A    between atoms: C11_13  and  C23_28
REMARK    4  A    between atoms: C14_16  and  C22_25
REMARK    5  A    between atoms: C17_20  and  C20_23
REMARK    6  A    between atoms: C17_20  and  C21_24
REMARK    7  A    between atoms: C25_30  and  O10_55
REMARK    8  A    between atoms: C26_32  and  O4_38
REMARK    9  A    between atoms: C27_34  and  C28_35
REMARK   10  A    between atoms: C27_34  and  C29_36
REMARK   11  A    between atoms: C29_36  and  O3_37
REMARK   12  A    between atoms: O4_38  and  C30_39
REMARK   13  A    between atoms: C31_41  and  O9_54
REMARK   14  A    between atoms: C32_43  and  O8_53
REMARK   15  A    between atoms: C33_45  and  O7_52
REMARK   16  A    between atoms: C34_47  and  C35_50
REMARK   17  A    between atoms: C35_50  and  O6_51
REMARK                            x       y       z     vdW  Elec       q    Type
REMARK                         _______ _______ _______ _____ _____    ______ ____
ROOT
ATOM      1  C   UNL     1      49.376  20.764  18.928  0.00  0.00    +0.013 C 
ATOM      2  C   UNL     1      49.110  19.255  19.022  0.00  0.00    -0.025 C 
ATOM      3  C   UNL     1      49.716  18.702  17.802  0.00  0.00    +0.015 C 
ATOM      4  C   UNL     1      50.040  17.212  17.886  0.00  0.00    -0.007 C 
ATOM      5  C   UNL     1      50.876  16.818  19.094  0.00  0.00    +0.039 C 
ATOM      6  C   UNL     1      50.511  17.461  20.386  0.00  0.00    -0.014 C 
ATOM      7  C   UNL     1      51.751  17.694  21.174  0.00  0.00    +0.008 C 
ATOM      8  C   UNL     1      49.551  16.725  21.318  0.00  0.00    +0.009 C 
ATOM      9  C   UNL     1      49.122  15.284  20.977  0.00  0.00    +0.138 C 
ATOM     12  C   UNL     1      49.490  14.772  19.569  0.00  0.00    +0.211 C 
ATOM     29  C   UNL     1      50.853  15.307  19.202  0.00  0.00    -0.053 C 
ATOM     33  C   UNL     1      51.920  14.760  20.196  0.00  0.00    +0.052 C 
ATOM     34  C   UNL     1      47.663  18.945  19.122  0.00  0.00    +0.033 C 
ATOM     35  C   UNL     1      47.415  17.463  19.118  0.00  0.00    +0.017 C 
ATOM     36  C   UNL     1      46.898  19.561  18.019  0.00  0.00    +0.015 C 
ATOM     37  C   UNL     1      45.379  19.577  18.249  0.00  0.00    +0.029 C 
ATOM     38  C   UNL     1      44.997  20.317  19.534  0.00  0.00    -0.128 C 
ATOM     42  C   UNL     1      45.667  19.707  20.754  0.00  0.00    +0.060 C 
ATOM     43  C   UNL     1      45.024  18.295  21.137  0.00  0.00    +0.006 C 
ATOM     44  C   UNL     1      43.536  18.425  21.334  0.00  0.00    -0.053 C 
ATOM     45  C   UNL     1      43.205  19.355  22.505  0.00  0.00    +0.010 C 
ATOM     46  C   UNL     1      42.960  17.095  21.605  0.00  0.00    +0.014 C 
ATOM     47  C   UNL     1      42.901  19.010  20.122  0.00  0.00    -0.015 C 
ATOM     48  C   UNL     1      43.466  20.419  19.771  0.00  0.00    +0.032 C 
ATOM     49  C   UNL     1      47.172  19.385  20.543  0.00  0.00    -0.051 C 
ATOM     50  C   UNL     1      47.934  19.557  21.598  0.00  0.00    -0.092 C 
ATOM     51  C   UNL     1      49.439  19.405  21.590  0.00  0.00    +0.043 C 
ATOM     52  C   UNL     1      50.035  18.869  20.251  0.00  0.00    -0.014 C 
ENDROOT
BRANCH  38  39
ATOM     39  C   UNL     1      45.461  21.795  19.524  0.00  0.00    +0.502 C 
ATOM     40  O   UNL     1      45.826  22.327  20.558  0.00  0.00    -0.685 OA
ATOM     41  O   UNL     1      45.460  22.426  18.481  0.00  0.00    -0.706 OA
ENDBRANCH  38  39
BRANCH   9  10
ATOM     10  O   UNL     1      49.535  14.391  22.031  0.00  0.00    -0.551 OA
ATOM     11  H   UNL     1      50.144  14.789  22.668  0.00  0.00    +0.367 HD
ENDBRANCH   9  10
BRANCH  12  13
ATOM     13  O   UNL     1      49.486  13.347  19.688  0.00  0.00    -0.309 OA
BRANCH  13  14
ATOM     14  C   UNL     1      48.453  12.703  18.938  0.00  0.00    +0.280 C 
ATOM     15  C   UNL     1      47.096  13.295  19.328  0.00  0.00    +0.146 C 
ATOM     18  C   UNL     1      46.000  12.644  18.478  0.00  0.00    +0.157 C 
ATOM     21  C   UNL     1      46.324  12.858  16.997  0.00  0.00    +0.168 C 
ATOM     24  C   UNL     1      47.711  12.285  16.697  0.00  0.00    +0.185 C 
ATOM     28  O   UNL     1      48.678  12.910  17.542  0.00  0.00    -0.366 OA
BRANCH  15  16
ATOM     16  O   UNL     1      46.844  13.040  20.712  0.00  0.00    -0.561 OA
ATOM     17  H   UNL     1      47.296  13.647  21.312  0.00  0.00    +0.398 HD
ENDBRANCH  15  16
BRANCH  18  19
ATOM     19  O   UNL     1      44.738  13.240  18.785  0.00  0.00    -0.559 OA
ATOM     20  H   UNL     1      44.756  14.206  18.810  0.00  0.00    +0.392 HD
ENDBRANCH  18  19
BRANCH  21  22
ATOM     22  O   UNL     1      45.347  12.194  16.193  0.00  0.00    -0.552 OA
ATOM     23  H   UNL     1      44.702  11.682  16.700  0.00  0.00    +0.390 HD
ENDBRANCH  21  22
BRANCH  24  25
ATOM     25  C   UNL     1      48.067  12.548  15.232  0.00  0.00    +0.214 C 
BRANCH  25  26
ATOM     26  O   UNL     1      47.309  13.660  14.750  0.00  0.00    -0.557 OA
ATOM     27  H   UNL     1      47.604  14.515  15.093  0.00  0.00    +0.379 HD
ENDBRANCH  25  26
ENDBRANCH  24  25
ENDBRANCH  13  14
ENDBRANCH  12  13
BRANCH  29  30
ATOM     30  C   UNL     1      51.180  14.660  17.827  0.00  0.00    +0.161 C 
BRANCH  30  31
ATOM     31  O   UNL     1      51.776  13.378  18.033  0.00  0.00    -0.552 OA
ATOM     32  H   UNL     1      51.260  12.642  17.676  0.00  0.00    +0.368 HD
ENDBRANCH  30  31
ENDBRANCH  29  30
TORSDOF 11
ENDMDL
MODEL 5
REMARK VINA RESULT:      -6.1      2.490      4.224
REMARK  Name = ZINC95486241
REMARK  17 active torsions:
REMARK  status: ('A' for Active; 'I' for Inactive)
REMARK    1  A    between atoms: C1_1  and  C2_2
REMARK    2  A    between atoms: C6_7  and  C36_56
REMARK    3  A    between atoms: C11_13  and  C23_28
REMARK    4  A    between atoms: C14_16  and  C22_25
REMARK    5  A    between atoms: C17_20  and  C20_23
REMARK    6  A    between atoms: C17_20  and  C21_24
REMARK    7  A    between atoms: C25_30  and  O10_55
REMARK    8  A    between atoms: C26_32  and  O4_38
REMARK    9  A    between atoms: C27_34  and  C28_35
REMARK   10  A    between atoms: C27_34  and  C29_36
REMARK   11  A    between atoms: C29_36  and  O3_37
REMARK   12  A    between atoms: O4_38  and  C30_39
REMARK   13  A    between atoms: C31_41  and  O9_54
REMARK   14  A    between atoms: C32_43  and  O8_53
REMARK   15  A    between atoms: C33_45  and  O7_52
REMARK   16  A    between atoms: C34_47  and  C35_50
REMARK   17  A    between atoms: C35_50  and  O6_51
REMARK                            x       y       z     vdW  Elec       q    Type
REMARK                         _______ _______ _______ _____ _____    ______ ____
ROOT
ATOM      1  C   UNL     1      45.564  16.533  19.414  0.00  0.00    +0.013 C 
ATOM      2  C   UNL     1      46.952  15.875  19.410  0.00  0.00    -0.025 C 
ATOM      3  C   UNL     1      46.871  14.849  20.460  0.00  0.00    +0.015 C 
ATOM      4  C   UNL     1      47.907  13.735  20.325  0.00  0.00    -0.007 C 
ATOM      5  C   UNL     1      47.936  13.066  18.959  0.00  0.00    +0.039 C 
ATOM      6  C   UNL     1      47.818  13.968  17.781  0.00  0.00    -0.014 C 
ATOM      7  C   UNL     1      47.046  13.270  16.718  0.00  0.00    +0.008 C 
ATOM      8  C   UNL     1      49.099  14.465  17.116  0.00  0.00    +0.009 C 
ATOM      9  C   UNL     1      50.458  13.896  17.571  0.00  0.00    +0.138 C 
ATOM     12  C   UNL     1      50.450  13.048  18.860  0.00  0.00    +0.211 C 
ATOM     29  C   UNL     1      49.189  12.218  18.884  0.00  0.00    -0.053 C 
ATOM     33  C   UNL     1      49.179  11.237  17.674  0.00  0.00    +0.052 C 
ATOM     34  C   UNL     1      48.038  16.854  19.661  0.00  0.00    +0.033 C 
ATOM     35  C   UNL     1      49.378  16.180  19.748  0.00  0.00    +0.017 C 
ATOM     36  C   UNL     1      47.805  17.617  20.905  0.00  0.00    +0.015 C 
ATOM     37  C   UNL     1      48.688  18.867  21.041  0.00  0.00    +0.029 C 
ATOM     38  C   UNL     1      48.499  19.837  19.872  0.00  0.00    -0.128 C 
ATOM     42  C   UNL     1      48.799  19.174  18.538  0.00  0.00    +0.060 C 
ATOM     43  C   UNL     1      50.364  18.924  18.340  0.00  0.00    +0.006 C 
ATOM     44  C   UNL     1      51.132  20.211  18.500  0.00  0.00    -0.053 C 
ATOM     45  C   UNL     1      50.744  21.232  17.427  0.00  0.00    +0.010 C 
ATOM     46  C   UNL     1      52.577  19.936  18.395  0.00  0.00    +0.014 C 
ATOM     47  C   UNL     1      50.834  20.833  19.819  0.00  0.00    -0.015 C 
ATOM     48  C   UNL     1      49.320  21.149  20.003  0.00  0.00    +0.032 C 
ATOM     49  C   UNL     1      48.175  17.760  18.390  0.00  0.00    -0.051 C 
ATOM     50  C   UNL     1      47.764  17.452  17.182  0.00  0.00    -0.092 C 
ATOM     51  C   UNL     1      47.033  16.174  16.835  0.00  0.00    +0.043 C 
ATOM     52  C   UNL     1      46.927  15.144  18.003  0.00  0.00    -0.014 C 
ENDROOT
BRANCH  38  39
ATOM     39  C   UNL     1      47.038  20.336  19.748  0.00  0.00    +0.502 C 
ATOM     40  O   UNL     1      46.381  20.557  20.751  0.00  0.00    -0.685 OA
ATOM     41  O   UNL     1      46.544  20.509  18.646  0.00  0.00    -0.706 OA
ENDBRANCH  38  39
BRANCH   9  10
ATOM     10  O   UNL     1      51.107  13.239  16.464  0.00  0.00    -0.551 OA
ATOM     11  H   UNL     1      50.736  13.466  15.600  0.00  0.00    +0.367 HD
ENDBRANCH   9  10
BRANCH  12  13
ATOM     13  O   UNL     1      51.625  12.237  18.768  0.00  0.00    -0.309 OA
BRANCH  13  14
ATOM     14  C   UNL     1      52.719  12.706  19.559  0.00  0.00    +0.280 C 
ATOM     15  C   UNL     1      54.033  12.171  18.982  0.00  0.00    +0.146 C 
ATOM     18  C   UNL     1      55.204  12.727  19.798  0.00  0.00    +0.157 C 
ATOM     21  C   UNL     1      55.142  14.257  19.782  0.00  0.00    +0.168 C 
ATOM     24  C   UNL     1      53.786  14.712  20.328  0.00  0.00    +0.185 C 
ATOM     28  O   UNL     1      52.741  14.135  19.543  0.00  0.00    -0.366 OA
BRANCH  15  16
ATOM     16  O   UNL     1      54.037  10.744  19.048  0.00  0.00    -0.561 OA
ATOM     17  H   UNL     1      54.040  10.310  18.185  0.00  0.00    +0.398 HD
ENDBRANCH  15  16
BRANCH  18  19
ATOM     19  O   UNL     1      56.437  12.290  19.224  0.00  0.00    -0.559 OA
ATOM     20  H   UNL     1      57.050  11.898  19.861  0.00  0.00    +0.392 HD
ENDBRANCH  18  19
BRANCH  21  22
ATOM     22  O   UNL     1      56.189  14.786  20.600  0.00  0.00    -0.552 OA
ATOM     23  H   UNL     1      56.448  15.689  20.372  0.00  0.00    +0.390 HD
ENDBRANCH  21  22
BRANCH  24  25
ATOM     25  C   UNL     1      53.694  16.237  20.260  0.00  0.00    +0.214 C 
BRANCH  25  26
ATOM     26  O   UNL     1      54.306  16.698  19.053  0.00  0.00    -0.557 OA
ATOM     27  H   UNL     1      53.707  17.181  18.468  0.00  0.00    +0.379 HD
ENDBRANCH  25  26
ENDBRANCH  24  25
ENDBRANCH  13  14
ENDBRANCH  12  13
BRANCH  29  30
ATOM     30  C   UNL     1      49.320  11.329  20.152  0.00  0.00    +0.161 C 
BRANCH  30  31
ATOM     31  O   UNL     1      50.255  10.278  19.904  0.00  0.00    -0.552 OA
ATOM     32  H   UNL     1      50.828  10.433  19.140  0.00  0.00    +0.368 HD
ENDBRANCH  30  31
ENDBRANCH  29  30
TORSDOF 11
ENDMDL
MODEL 6
REMARK VINA RESULT:      -5.8      2.695      5.959
REMARK  Name = ZINC95486241
REMARK  17 active torsions:
REMARK  status: ('A' for Active; 'I' for Inactive)
REMARK    1  A    between atoms: C1_1  and  C2_2
REMARK    2  A    between atoms: C6_7  and  C36_56
REMARK    3  A    between atoms: C11_13  and  C23_28
REMARK    4  A    between atoms: C14_16  and  C22_25
REMARK    5  A    between atoms: C17_20  and  C20_23
REMARK    6  A    between atoms: C17_20  and  C21_24
REMARK    7  A    between atoms: C25_30  and  O10_55
REMARK    8  A    between atoms: C26_32  and  O4_38
REMARK    9  A    between atoms: C27_34  and  C28_35
REMARK   10  A    between atoms: C27_34  and  C29_36
REMARK   11  A    between atoms: C29_36  and  O3_37
REMARK   12  A    between atoms: O4_38  and  C30_39
REMARK   13  A    between atoms: C31_41  and  O9_54
REMARK   14  A    between atoms: C32_43  and  O8_53
REMARK   15  A    between atoms: C33_45  and  O7_52
REMARK   16  A    between atoms: C34_47  and  C35_50
REMARK   17  A    between atoms: C35_50  and  O6_51
REMARK                            x       y       z     vdW  Elec       q    Type
REMARK                         _______ _______ _______ _____ _____    ______ ____
ROOT
ATOM      1  C   UNL     1      50.053  21.203  19.949  0.00  0.00    +0.013 C 
ATOM      2  C   UNL     1      49.656  19.815  19.425  0.00  0.00    -0.025 C 
ATOM      3  C   UNL     1      50.292  19.730  18.102  0.00  0.00    +0.015 C 
ATOM      4  C   UNL     1      50.485  18.303  17.593  0.00  0.00    -0.007 C 
ATOM      5  C   UNL     1      51.204  17.380  18.565  0.00  0.00    +0.039 C 
ATOM      6  C   UNL     1      50.811  17.495  19.996  0.00  0.00    -0.014 C 
ATOM      7  C   UNL     1      52.012  17.269  20.843  0.00  0.00    +0.008 C 
ATOM      8  C   UNL     1      49.734  16.554  20.530  0.00  0.00    +0.009 C 
ATOM      9  C   UNL     1      49.208  15.417  19.631  0.00  0.00    +0.138 C 
ATOM     12  C   UNL     1      49.624  15.468  18.146  0.00  0.00    +0.211 C 
ATOM     29  C   UNL     1      51.048  15.961  18.059  0.00  0.00    -0.053 C 
ATOM     33  C   UNL     1      51.999  14.959  18.780  0.00  0.00    +0.052 C 
ATOM     34  C   UNL     1      48.185  19.641  19.355  0.00  0.00    +0.033 C 
ATOM     35  C   UNL     1      47.815  18.315  18.752  0.00  0.00    +0.017 C 
ATOM     36  C   UNL     1      47.547  20.718  18.569  0.00  0.00    +0.015 C 
ATOM     37  C   UNL     1      46.023  20.797  18.747  0.00  0.00    +0.029 C 
ATOM     38  C   UNL     1      45.622  21.005  20.210  0.00  0.00    -0.128 C 
ATOM     42  C   UNL     1      46.158  19.898  21.101  0.00  0.00    +0.060 C 
ATOM     43  C   UNL     1      45.376  18.523  20.872  0.00  0.00    +0.006 C 
ATOM     44  C   UNL     1      43.894  18.717  21.065  0.00  0.00    -0.053 C 
ATOM     45  C   UNL     1      43.566  19.137  22.501  0.00  0.00    +0.010 C 
ATOM     46  C   UNL     1      43.192  17.455  20.767  0.00  0.00    +0.014 C 
ATOM     47  C   UNL     1      43.391  19.794  20.171  0.00  0.00    -0.015 C 
ATOM     48  C   UNL     1      44.093  21.161  20.427  0.00  0.00    +0.032 C 
ATOM     49  C   UNL     1      47.641  19.532  20.820  0.00  0.00    -0.051 C 
ATOM     50  C   UNL     1      48.345  19.194  21.875  0.00  0.00    -0.092 C 
ATOM     51  C   UNL     1      49.829  18.905  21.847  0.00  0.00    +0.043 C 
ATOM     52  C   UNL     1      50.464  18.882  20.422  0.00  0.00    -0.014 C 
ENDROOT
BRANCH  38  39
ATOM     39  C   UNL     1      46.207  22.311  20.803  0.00  0.00    +0.502 C 
ATOM     40  O   UNL     1      45.767  23.391  20.452  0.00  0.00    -0.685 OA
ATOM     41  O   UNL     1      47.108  22.257  21.623  0.00  0.00    -0.706 OA
ENDBRANCH  38  39
BRANCH   9  10
ATOM     10  O   UNL     1      49.476  14.142  20.251  0.00  0.00    -0.551 OA
ATOM     11  H   UNL     1      48.817  13.878  20.907  0.00  0.00    +0.367 HD
ENDBRANCH   9  10
BRANCH  12  13
ATOM     13  O   UNL     1      49.493  14.120  17.686  0.00  0.00    -0.309 OA
BRANCH  13  14
ATOM     14  C   UNL     1      48.231  13.832  17.079  0.00  0.00    +0.280 C 
ATOM     15  C   UNL     1      48.363  12.592  16.190  0.00  0.00    +0.146 C 
ATOM     18  C   UNL     1      46.994  12.255  15.591  0.00  0.00    +0.157 C 
ATOM     21  C   UNL     1      45.988  12.052  16.727  0.00  0.00    +0.168 C 
ATOM     24  C   UNL     1      45.948  13.311  17.595  0.00  0.00    +0.185 C 
ATOM     28  O   UNL     1      47.258  13.586  18.095  0.00  0.00    -0.366 OA
BRANCH  15  16
ATOM     16  O   UNL     1      49.295  12.855  15.139  0.00  0.00    -0.561 OA
ATOM     17  H   UNL     1      50.111  12.341  15.199  0.00  0.00    +0.398 HD
ENDBRANCH  15  16
BRANCH  18  19
ATOM     19  O   UNL     1      47.093  11.058  14.816  0.00  0.00    -0.559 OA
ATOM     20  H   UNL     1      46.265  10.562  14.753  0.00  0.00    +0.392 HD
ENDBRANCH  18  19
BRANCH  21  22
ATOM     22  O   UNL     1      44.691  11.806  16.178  0.00  0.00    -0.552 OA
ATOM     23  H   UNL     1      44.057  11.446  16.813  0.00  0.00    +0.390 HD
ENDBRANCH  21  22
BRANCH  24  25
ATOM     25  C   UNL     1      44.989  13.094  18.767  0.00  0.00    +0.214 C 
BRANCH  25  26
ATOM     26  O   UNL     1      44.869  14.306  19.516  0.00  0.00    -0.557 OA
ATOM     27  H   UNL     1      45.427  15.025  19.191  0.00  0.00    +0.379 HD
ENDBRANCH  25  26
ENDBRANCH  24  25
ENDBRANCH  13  14
ENDBRANCH  12  13
BRANCH  29  30
ATOM     30  C   UNL     1      51.408  15.879  16.550  0.00  0.00    +0.161 C 
BRANCH  30  31
ATOM     31  O   UNL     1      52.575  16.663  16.295  0.00  0.00    -0.552 OA
ATOM     32  H   UNL     1      52.400  17.609  16.192  0.00  0.00    +0.368 HD
ENDBRANCH  30  31
ENDBRANCH  29  30
TORSDOF 11
ENDMDL
MODEL 7
REMARK VINA RESULT:      -5.5      1.825      4.423
REMARK  Name = ZINC95486241
REMARK  17 active torsions:
REMARK  status: ('A' for Active; 'I' for Inactive)
REMARK    1  A    between atoms: C1_1  and  C2_2
REMARK    2  A    between atoms: C6_7  and  C36_56
REMARK    3  A    between atoms: C11_13  and  C23_28
REMARK    4  A    between atoms: C14_16  and  C22_25
REMARK    5  A    between atoms: C17_20  and  C20_23
REMARK    6  A    between atoms: C17_20  and  C21_24
REMARK    7  A    between atoms: C25_30  and  O10_55
REMARK    8  A    between atoms: C26_32  and  O4_38
REMARK    9  A    between atoms: C27_34  and  C28_35
REMARK   10  A    between atoms: C27_34  and  C29_36
REMARK   11  A    between atoms: C29_36  and  O3_37
REMARK   12  A    between atoms: O4_38  and  C30_39
REMARK   13  A    between atoms: C31_41  and  O9_54
REMARK   14  A    between atoms: C32_43  and  O8_53
REMARK   15  A    between atoms: C33_45  and  O7_52
REMARK   16  A    between atoms: C34_47  and  C35_50
REMARK   17  A    between atoms: C35_50  and  O6_51
REMARK                            x       y       z     vdW  Elec       q    Type
REMARK                         _______ _______ _______ _____ _____    ______ ____
ROOT
ATOM      1  C   UNL     1      52.880  17.596  20.659  0.00  0.00    +0.013 C 
ATOM      2  C   UNL     1      52.021  16.491  20.027  0.00  0.00    -0.025 C 
ATOM      3  C   UNL     1      52.884  15.907  18.991  0.00  0.00    +0.015 C 
ATOM      4  C   UNL     1      52.483  14.495  18.568  0.00  0.00    -0.007 C 
ATOM      5  C   UNL     1      52.334  13.513  19.721  0.00  0.00    +0.039 C 
ATOM      6  C   UNL     1      51.653  14.027  20.940  0.00  0.00    -0.014 C 
ATOM      7  C   UNL     1      52.279  13.406  22.138  0.00  0.00    +0.008 C 
ATOM      8  C   UNL     1      50.150  13.799  21.083  0.00  0.00    +0.009 C 
ATOM      9  C   UNL     1      49.418  12.911  20.057  0.00  0.00    +0.138 C 
ATOM     12  C   UNL     1      50.215  12.522  18.794  0.00  0.00    +0.211 C 
ATOM     29  C   UNL     1      51.651  12.270  19.187  0.00  0.00    -0.053 C 
ATOM     33  C   UNL     1      51.725  11.072  20.179  0.00  0.00    +0.052 C 
ATOM     34  C   UNL     1      50.750  17.017  19.472  0.00  0.00    +0.033 C 
ATOM     35  C   UNL     1      49.966  15.941  18.776  0.00  0.00    +0.017 C 
ATOM     36  C   UNL     1      50.988  18.124  18.523  0.00  0.00    +0.015 C 
ATOM     37  C   UNL     1      49.728  18.935  18.185  0.00  0.00    +0.029 C 
ATOM     38  C   UNL     1      49.077  19.539  19.433  0.00  0.00    -0.128 C 
ATOM     42  C   UNL     1      48.709  18.469  20.447  0.00  0.00    +0.060 C 
ATOM     43  C   UNL     1      47.455  17.604  19.966  0.00  0.00    +0.006 C 
ATOM     44  C   UNL     1      46.282  18.496  19.657  0.00  0.00    -0.053 C 
ATOM     45  C   UNL     1      45.803  19.246  20.904  0.00  0.00    +0.010 C 
ATOM     46  C   UNL     1      45.168  17.680  19.138  0.00  0.00    +0.014 C 
ATOM     47  C   UNL     1      46.662  19.524  18.650  0.00  0.00    -0.015 C 
ATOM     48  C   UNL     1      47.838  20.425  19.130  0.00  0.00    +0.032 C 
ATOM     49  C   UNL     1      49.825  17.413  20.673  0.00  0.00    -0.051 C 
ATOM     50  C   UNL     1      49.928  16.960  21.901  0.00  0.00    -0.092 C 
ATOM     51  C   UNL     1      51.009  16.010  22.366  0.00  0.00    +0.043 C 
ATOM     52  C   UNL     1      51.932  15.463  21.232  0.00  0.00    -0.014 C 
ENDROOT
BRANCH  38  39
ATOM     39  C   UNL     1      50.030  20.495  20.192  0.00  0.00    +0.502 C 
ATOM     40  O   UNL     1      49.922  20.634  21.398  0.00  0.00    -0.685 OA
ATOM     41  O   UNL     1      50.889  21.109  19.582  0.00  0.00    -0.706 OA
ENDBRANCH  38  39
BRANCH   9  10
ATOM     10  O   UNL     1      48.827  11.778  20.726  0.00  0.00    -0.551 OA
ATOM     11  H   UNL     1      47.876  11.862  20.874  0.00  0.00    +0.367 HD
ENDBRANCH   9  10
BRANCH  12  13
ATOM     13  O   UNL     1      49.574  11.338  18.311  0.00  0.00    -0.309 OA
BRANCH  13  14
ATOM     14  C   UNL     1      49.068  11.452  16.979  0.00  0.00    +0.280 C 
ATOM     15  C   UNL     1      48.203  12.710  16.868  0.00  0.00    +0.146 C 
ATOM     18  C   UNL     1      47.714  12.858  15.424  0.00  0.00    +0.157 C 
ATOM     21  C   UNL     1      48.925  12.902  14.489  0.00  0.00    +0.168 C 
ATOM     24  C   UNL     1      49.763  11.637  14.691  0.00  0.00    +0.185 C 
ATOM     28  O   UNL     1      50.159  11.544  16.061  0.00  0.00    -0.366 OA
BRANCH  15  16
ATOM     16  O   UNL     1      47.080  12.596  17.746  0.00  0.00    -0.561 OA
ATOM     17  H   UNL     1      46.298  12.207  17.334  0.00  0.00    +0.398 HD
ENDBRANCH  15  16
BRANCH  18  19
ATOM     19  O   UNL     1      46.964  14.068  15.295  0.00  0.00    -0.559 OA
ATOM     20  H   UNL     1      46.007  13.947  15.373  0.00  0.00    +0.392 HD
ENDBRANCH  18  19
BRANCH  21  22
ATOM     22  O   UNL     1      48.479  12.968  13.132  0.00  0.00    -0.552 OA
ATOM     23  H   UNL     1      49.194  13.047  12.486  0.00  0.00    +0.390 HD
ENDBRANCH  21  22
BRANCH  24  25
ATOM     25  C   UNL     1      51.007  11.700  13.803  0.00  0.00    +0.214 C 
BRANCH  25  26
ATOM     26  O   UNL     1      50.714  11.121  12.530  0.00  0.00    -0.557 OA
ATOM     27  H   UNL     1      49.848  10.693  12.483  0.00  0.00    +0.379 HD
ENDBRANCH  25  26
ENDBRANCH  24  25
ENDBRANCH  13  14
ENDBRANCH  12  13
BRANCH  29  30
ATOM     30  C   UNL     1      52.344  11.788  17.882  0.00  0.00    +0.161 C 
BRANCH  30  31
ATOM     31  O   UNL     1      52.298  10.361  17.817  0.00  0.00    -0.552 OA
ATOM     32  H   UNL     1      52.722   9.919  18.565  0.00  0.00    +0.368 HD
ENDBRANCH  30  31
ENDBRANCH  29  30
TORSDOF 11
ENDMDL
MODEL 8
REMARK VINA RESULT:      -3.9      2.691      6.076
REMARK  Name = ZINC95486241
REMARK  17 active torsions:
REMARK  status: ('A' for Active; 'I' for Inactive)
REMARK    1  A    between atoms: C1_1  and  C2_2
REMARK    2  A    between atoms: C6_7  and  C36_56
REMARK    3  A    between atoms: C11_13  and  C23_28
REMARK    4  A    between atoms: C14_16  and  C22_25
REMARK    5  A    between atoms: C17_20  and  C20_23
REMARK    6  A    between atoms: C17_20  and  C21_24
REMARK    7  A    between atoms: C25_30  and  O10_55
REMARK    8  A    between atoms: C26_32  and  O4_38
REMARK    9  A    between atoms: C27_34  and  C28_35
REMARK   10  A    between atoms: C27_34  and  C29_36
REMARK   11  A    between atoms: C29_36  and  O3_37
REMARK   12  A    between atoms: O4_38  and  C30_39
REMARK   13  A    between atoms: C31_41  and  O9_54
REMARK   14  A    between atoms: C32_43  and  O8_53
REMARK   15  A    between atoms: C33_45  and  O7_52
REMARK   16  A    between atoms: C34_47  and  C35_50
REMARK   17  A    between atoms: C35_50  and  O6_51
REMARK                            x       y       z     vdW  Elec       q    Type
REMARK                         _______ _______ _______ _____ _____    ______ ____
ROOT
ATOM      1  C   UNL     1      46.835  12.467  21.137  0.00  0.00    +0.013 C 
ATOM      2  C   UNL     1      47.896  13.378  20.503  0.00  0.00    -0.025 C 
ATOM      3  C   UNL     1      49.145  13.010  21.184  0.00  0.00    +0.015 C 
ATOM      4  C   UNL     1      50.410  13.384  20.414  0.00  0.00    -0.007 C 
ATOM      5  C   UNL     1      50.444  12.880  18.979  0.00  0.00    +0.039 C 
ATOM      6  C   UNL     1      49.174  12.997  18.210  0.00  0.00    -0.014 C 
ATOM      7  C   UNL     1      49.058  11.830  17.295  0.00  0.00    +0.008 C 
ATOM      8  C   UNL     1      48.963  14.235  17.343  0.00  0.00    +0.009 C 
ATOM      9  C   UNL     1      50.120  15.238  17.159  0.00  0.00    +0.138 C 
ATOM     12  C   UNL     1      51.342  15.053  18.083  0.00  0.00    +0.211 C 
ATOM     29  C   UNL     1      51.588  13.575  18.269  0.00  0.00    -0.053 C 
ATOM     33  C   UNL     1      51.930  12.919  16.898  0.00  0.00    +0.052 C 
ATOM     34  C   UNL     1      47.569  14.816  20.664  0.00  0.00    +0.033 C 
ATOM     35  C   UNL     1      48.663  15.694  20.123  0.00  0.00    +0.017 C 
ATOM     36  C   UNL     1      47.334  15.165  22.080  0.00  0.00    +0.015 C 
ATOM     37  C   UNL     1      46.659  16.531  22.280  0.00  0.00    +0.029 C 
ATOM     38  C   UNL     1      45.310  16.619  21.561  0.00  0.00    -0.128 C 
ATOM     42  C   UNL     1      45.450  16.360  20.070  0.00  0.00    +0.060 C 
ATOM     43  C   UNL     1      46.157  17.582  19.321  0.00  0.00    +0.006 C 
ATOM     44  C   UNL     1      45.418  18.867  19.589  0.00  0.00    -0.053 C 
ATOM     45  C   UNL     1      43.992  18.821  19.034  0.00  0.00    +0.010 C 
ATOM     46  C   UNL     1      46.139  19.987  18.955  0.00  0.00    +0.014 C 
ATOM     47  C   UNL     1      45.308  19.107  21.054  0.00  0.00    -0.015 C 
ATOM     48  C   UNL     1      44.559  17.958  21.793  0.00  0.00    +0.032 C 
ATOM     49  C   UNL     1      46.354  15.143  19.731  0.00  0.00    -0.051 C 
ATOM     50  C   UNL     1      45.984  14.446  18.682  0.00  0.00    -0.092 C 
ATOM     51  C   UNL     1      46.655  13.166  18.236  0.00  0.00    +0.043 C 
ATOM     52  C   UNL     1      47.945  12.792  19.030  0.00  0.00    -0.014 C 
ENDROOT
BRANCH  38  39
ATOM     39  C   UNL     1      44.305  15.550  22.057  0.00  0.00    +0.502 C 
ATOM     40  O   UNL     1      43.122  15.825  22.159  0.00  0.00    -0.685 OA
ATOM     41  O   UNL     1      44.698  14.432  22.345  0.00  0.00    -0.706 OA
ENDBRANCH  38  39
BRANCH   9  10
ATOM     10  O   UNL     1      50.473  15.324  15.763  0.00  0.00    -0.551 OA
ATOM     11  H   UNL     1      49.852  14.876  15.172  0.00  0.00    +0.367 HD
ENDBRANCH   9  10
BRANCH  12  13
ATOM     13  O   UNL     1      52.419  15.694  17.394  0.00  0.00    -0.309 OA
BRANCH  13  14
ATOM     14  C   UNL     1      52.662  17.038  17.815  0.00  0.00    +0.280 C 
ATOM     15  C   UNL     1      51.919  18.005  16.890  0.00  0.00    +0.146 C 
ATOM     18  C   UNL     1      52.134  19.439  17.384  0.00  0.00    +0.157 C 
ATOM     21  C   UNL     1      51.659  19.544  18.836  0.00  0.00    +0.168 C 
ATOM     24  C   UNL     1      52.411  18.517  19.686  0.00  0.00    +0.185 C 
ATOM     28  O   UNL     1      52.194  17.209  19.155  0.00  0.00    -0.366 OA
BRANCH  15  16
ATOM     16  O   UNL     1      52.424  17.875  15.559  0.00  0.00    -0.561 OA
ATOM     17  H   UNL     1      53.046  17.145  15.445  0.00  0.00    +0.398 HD
ENDBRANCH  15  16
BRANCH  18  19
ATOM     19  O   UNL     1      51.387  20.344  16.568  0.00  0.00    -0.559 OA
ATOM     20  H   UNL     1      51.883  21.128  16.295  0.00  0.00    +0.392 HD
ENDBRANCH  18  19
BRANCH  21  22
ATOM     22  O   UNL     1      51.920  20.859  19.330  0.00  0.00    -0.552 OA
ATOM     23  H   UNL     1      51.524  21.041  20.193  0.00  0.00    +0.390 HD
ENDBRANCH  21  22
BRANCH  24  25
ATOM     25  C   UNL     1      51.899  18.574  21.127  0.00  0.00    +0.214 C 
BRANCH  25  26
ATOM     26  O   UNL     1      50.531  18.989  21.131  0.00  0.00    -0.557 OA
ATOM     27  H   UNL     1      49.907  18.286  20.904  0.00  0.00    +0.379 HD
ENDBRANCH  25  26
ENDBRANCH  24  25
ENDBRANCH  13  14
ENDBRANCH  12  13
BRANCH  29  30
ATOM     30  C   UNL     1      52.886  13.490  19.119  0.00  0.00    +0.161 C 
BRANCH  30  31
ATOM     31  O   UNL     1      53.505  12.218  18.918  0.00  0.00    -0.552 OA
ATOM     32  H   UNL     1      53.099  11.689  18.217  0.00  0.00    +0.368 HD
ENDBRANCH  30  31
ENDBRANCH  29  30
TORSDOF 11
ENDMDL
MODEL 9
REMARK VINA RESULT:      -3.5      2.401      5.248
REMARK  Name = ZINC95486241
REMARK  17 active torsions:
REMARK  status: ('A' for Active; 'I' for Inactive)
REMARK    1  A    between atoms: C1_1  and  C2_2
REMARK    2  A    between atoms: C6_7  and  C36_56
REMARK    3  A    between atoms: C11_13  and  C23_28
REMARK    4  A    between atoms: C14_16  and  C22_25
REMARK    5  A    between atoms: C17_20  and  C20_23
REMARK    6  A    between atoms: C17_20  and  C21_24
REMARK    7  A    between atoms: C25_30  and  O10_55
REMARK    8  A    between atoms: C26_32  and  O4_38
REMARK    9  A    between atoms: C27_34  and  C28_35
REMARK   10  A    between atoms: C27_34  and  C29_36
REMARK   11  A    between atoms: C29_36  and  O3_37
REMARK   12  A    between atoms: O4_38  and  C30_39
REMARK   13  A    between atoms: C31_41  and  O9_54
REMARK   14  A    between atoms: C32_43  and  O8_53
REMARK   15  A    between atoms: C33_45  and  O7_52
REMARK   16  A    between atoms: C34_47  and  C35_50
REMARK   17  A    between atoms: C35_50  and  O6_51
REMARK                            x       y       z     vdW  Elec       q    Type
REMARK                         _______ _______ _______ _____ _____    ______ ____
ROOT
ATOM      1  C   UNL     1      54.100  17.274  19.777  0.00  0.00    +0.013 C 
ATOM      2  C   UNL     1      52.892  16.328  19.720  0.00  0.00    -0.025 C 
ATOM      3  C   UNL     1      53.268  15.318  18.721  0.00  0.00    +0.015 C 
ATOM      4  C   UNL     1      52.492  14.007  18.836  0.00  0.00    -0.007 C 
ATOM      5  C   UNL     1      52.513  13.384  20.223  0.00  0.00    +0.039 C 
ATOM      6  C   UNL     1      52.350  14.320  21.369  0.00  0.00    -0.014 C 
ATOM      7  C   UNL     1      53.178  13.837  22.505  0.00  0.00    +0.008 C 
ATOM      8  C   UNL     1      50.948  14.541  21.931  0.00  0.00    +0.009 C 
ATOM      9  C   UNL     1      49.780  13.675  21.415  0.00  0.00    +0.138 C 
ATOM     12  C   UNL     1      50.063  12.816  20.165  0.00  0.00    +0.211 C 
ATOM     29  C   UNL     1      51.473  12.283  20.254  0.00  0.00    -0.053 C 
ATOM     33  C   UNL     1      51.612  11.361  21.502  0.00  0.00    +0.052 C 
ATOM     34  C   UNL     1      51.640  17.037  19.362  0.00  0.00    +0.033 C 
ATOM     35  C   UNL     1      50.488  16.083  19.219  0.00  0.00    +0.017 C 
ATOM     36  C   UNL     1      51.787  17.799  18.105  0.00  0.00    +0.015 C 
ATOM     37  C   UNL     1      50.666  18.821  17.863  0.00  0.00    +0.029 C 
ATOM     38  C   UNL     1      50.556  19.839  19.001  0.00  0.00    -0.128 C 
ATOM     42  C   UNL     1      50.315  19.162  20.339  0.00  0.00    +0.060 C 
ATOM     43  C   UNL     1      48.831  18.579  20.448  0.00  0.00    +0.006 C 
ATOM     44  C   UNL     1      47.815  19.660  20.188  0.00  0.00    -0.053 C 
ATOM     45  C   UNL     1      47.894  20.770  21.241  0.00  0.00    +0.010 C 
ATOM     46  C   UNL     1      46.461  19.077  20.213  0.00  0.00    +0.014 C 
ATOM     47  C   UNL     1      48.062  20.298  18.866  0.00  0.00    -0.015 C 
ATOM     48  C   UNL     1      49.480  20.934  18.764  0.00  0.00    +0.032 C 
ATOM     49  C   UNL     1      51.220  17.924  20.583  0.00  0.00    -0.051 C 
ATOM     50  C   UNL     1      51.602  17.745  21.827  0.00  0.00    -0.092 C 
ATOM     51  C   UNL     1      52.567  16.669  22.271  0.00  0.00    +0.043 C 
ATOM     52  C   UNL     1      52.977  15.657  21.155  0.00  0.00    -0.014 C 
ENDROOT
BRANCH  38  39
ATOM     39  C   UNL     1      51.861  20.651  19.196  0.00  0.00    +0.502 C 
ATOM     40  O   UNL     1      52.891  20.288  18.655  0.00  0.00    -0.685 OA
ATOM     41  O   UNL     1      51.857  21.653  19.890  0.00  0.00    -0.706 OA
ENDBRANCH  38  39
BRANCH   9  10
ATOM     10  O   UNL     1      49.213  12.921  22.505  0.00  0.00    -0.551 OA
ATOM     11  H   UNL     1      48.577  13.417  23.038  0.00  0.00    +0.367 HD
ENDBRANCH   9  10
BRANCH  12  13
ATOM     13  O   UNL     1      49.089  11.769  20.216  0.00  0.00    -0.309 OA
BRANCH  13  14
ATOM     14  C   UNL     1      47.986  11.957  19.327  0.00  0.00    +0.280 C 
ATOM     15  C   UNL     1      47.156  13.157  19.790  0.00  0.00    +0.146 C 
ATOM     18  C   UNL     1      46.012  13.389  18.798  0.00  0.00    +0.157 C 
ATOM     21  C   UNL     1      46.597  13.593  17.398  0.00  0.00    +0.168 C 
ATOM     24  C   UNL     1      47.449  12.377  17.027  0.00  0.00    +0.185 C 
ATOM     28  O   UNL     1      48.475  12.199  18.006  0.00  0.00    -0.366 OA
BRANCH  15  16
ATOM     16  O   UNL     1      46.620  12.894  21.088  0.00  0.00    -0.561 OA
ATOM     17  H   UNL     1      47.291  12.787  21.776  0.00  0.00    +0.398 HD
ENDBRANCH  15  16
BRANCH  18  19
ATOM     19  O   UNL     1      45.273  14.550  19.184  0.00  0.00    -0.559 OA
ATOM     20  H   UNL     1      45.585  15.368  18.773  0.00  0.00    +0.392 HD
ENDBRANCH  18  19
BRANCH  21  22
ATOM     22  O   UNL     1      45.535  13.740  16.453  0.00  0.00    -0.552 OA
ATOM     23  H   UNL     1      45.735  13.381  15.578  0.00  0.00    +0.390 HD
ENDBRANCH  21  22
BRANCH  24  25
ATOM     25  C   UNL     1      48.086  12.599  15.654  0.00  0.00    +0.214 C 
BRANCH  25  26
ATOM     26  O   UNL     1      47.332  13.575  14.931  0.00  0.00    -0.557 OA
ATOM     27  H   UNL     1      46.983  14.288  15.482  0.00  0.00    +0.379 HD
ENDBRANCH  25  26
ENDBRANCH  24  25
ENDBRANCH  13  14
ENDBRANCH  12  13
BRANCH  29  30
ATOM     30  C   UNL     1      51.629  11.354  19.018  0.00  0.00    +0.161 C 
BRANCH  30  31
ATOM     31  O   UNL     1      51.098  12.006  17.862  0.00  0.00    -0.552 OA
ATOM     32  H   UNL     1      51.766  12.245  17.204  0.00  0.00    +0.368 HD
ENDBRANCH  30  31
ENDBRANCH  29  30
TORSDOF 11
ENDMDL
