MODEL 1
REMARK VINA RESULT:      -7.0      0.000      0.000
REMARK  Name = ZINC95486143
REMARK  10 active torsions:
REMARK  status: ('A' for Active; 'I' for Inactive)
REMARK    1  A    between atoms: C1_1  and  C2_2
REMARK    2  A    between atoms: C6_6  and  O3_27
REMARK    3  A    between atoms: C8_8  and  C21_26
REMARK    4  A    between atoms: C9_9  and  C10_10
REMARK    5  A    between atoms: C11_11  and  O2_25
REMARK    6  A    between atoms: C13_13  and  O1_24
REMARK    7  A    between atoms: C17_17  and  C20_23
REMARK    8  A    between atoms: C18_20  and  C19_22
REMARK    9  A    between atoms: C22_28  and  O4_30
REMARK   10  A    between atoms: O4_30  and  C24_31
REMARK                            x       y       z     vdW  Elec       q    Type
REMARK                         _______ _______ _______ _____ _____    ______ ____
ROOT
ATOM     16  C   UNL     1      44.035  18.588  20.600  0.00  0.00    -0.048 A 
ATOM     17  C   UNL     1      43.421  18.053  21.738  0.00  0.00    +0.171 A 
ATOM     20  C   UNL     1      43.642  16.730  22.077  0.00  0.00    -0.016 A 
ATOM     21  C   UNL     1      44.471  15.944  21.291  0.00  0.00    +0.159 A 
ATOM     24  C   UNL     1      45.085  16.474  20.158  0.00  0.00    -0.164 A 
ATOM     25  C   UNL     1      45.979  15.579  19.341  0.00  0.00    +0.239 C 
ATOM     26  C   UNL     1      45.338  14.193  19.230  0.00  0.00    +0.093 C 
ATOM     27  N   UNL     1      46.161  16.126  17.990  0.00  0.00    -0.504 N 
ATOM     28  H   UNL     1      46.838  15.569  17.491  0.00  0.00    +0.432 HD
ATOM     29  H   UNL     1      45.282  16.117  17.494  0.00  0.00    +0.429 HD
ATOM     30  C   UNL     1      46.650  17.508  18.105  0.00  0.00    +0.179 C 
ATOM     31  C   UNL     1      47.799  17.570  19.113  0.00  0.00    +0.089 C 
ATOM     32  C   UNL     1      45.498  18.393  18.584  0.00  0.00    +0.132 C 
ATOM     33  C   UNL     1      44.864  17.787  19.809  0.00  0.00    -0.041 A 
ENDROOT
BRANCH  16  15
ATOM      1  C   UNL     1      48.001  21.296  22.478  0.00  0.00    +0.094 C 
ATOM      2  C   UNL     1      46.765  21.655  21.694  0.00  0.00    -0.014 A 
ATOM      3  C   UNL     1      45.885  20.676  21.341  0.00  0.00    -0.059 A 
ATOM      4  C   UNL     1      44.732  21.001  20.612  0.00  0.00    +0.030 A 
ATOM      5  C   UNL     1      44.492  22.348  20.249  0.00  0.00    -0.113 A 
ATOM      6  C   UNL     1      45.417  23.340  20.629  0.00  0.00    +0.175 A 
ATOM      9  C   UNL     1      43.333  22.673  19.515  0.00  0.00    +0.172 A 
ATOM     12  C   UNL     1      42.446  21.682  19.159  0.00  0.00    -0.033 A 
ATOM     13  C   UNL     1      42.676  20.358  19.511  0.00  0.00    -0.012 A 
ATOM     14  C   UNL     1      41.685  19.297  19.107  0.00  0.00    +0.098 C 
ATOM     15  C   UNL     1      43.803  20.002  20.231  0.00  0.00    -0.090 A 
ATOM     34  C   UNL     1      46.535  22.983  21.348  0.00  0.00    -0.104 A 
BRANCH   6   7
ATOM      7  O   UNL     1      45.206  24.638  20.290  0.00  0.00    -0.293 OA
ATOM      8  C   UNL     1      45.999  25.621  20.959  0.00  0.00    +0.248 C 
ENDBRANCH   6   7
BRANCH   9  10
ATOM     10  O   UNL     1      43.092  23.963  19.163  0.00  0.00    -0.480 OA
ATOM     11  H   UNL     1      43.737  24.327  18.540  0.00  0.00    +0.399 HD
ENDBRANCH   9  10
ENDBRANCH  16  15
BRANCH  17  18
ATOM     18  O   UNL     1      42.611  18.828  22.505  0.00  0.00    -0.482 OA
ATOM     19  H   UNL     1      42.816  19.773  22.463  0.00  0.00    +0.403 HD
ENDBRANCH  17  18
BRANCH  21  22
ATOM     22  O   UNL     1      44.686  14.646  21.628  0.00  0.00    -0.490 OA
ATOM     23  H   UNL     1      45.122  14.530  22.483  0.00  0.00    +0.401 HD
ENDBRANCH  21  22
TORSDOF 5
ENDMDL
MODEL 2
REMARK VINA RESULT:      -6.0      3.462      7.137
REMARK  Name = ZINC95486143
REMARK  10 active torsions:
REMARK  status: ('A' for Active; 'I' for Inactive)
REMARK    1  A    between atoms: C1_1  and  C2_2
REMARK    2  A    between atoms: C6_6  and  O3_27
REMARK    3  A    between atoms: C8_8  and  C21_26
REMARK    4  A    between atoms: C9_9  and  C10_10
REMARK    5  A    between atoms: C11_11  and  O2_25
REMARK    6  A    between atoms: C13_13  and  O1_24
REMARK    7  A    between atoms: C17_17  and  C20_23
REMARK    8  A    between atoms: C18_20  and  C19_22
REMARK    9  A    between atoms: C22_28  and  O4_30
REMARK   10  A    between atoms: O4_30  and  C24_31
REMARK                            x       y       z     vdW  Elec       q    Type
REMARK                         _______ _______ _______ _____ _____    ______ ____
ROOT
ATOM     16  C   UNL     1      47.866  20.347  20.911  0.00  0.00    -0.048 A 
ATOM     17  C   UNL     1      48.423  21.251  21.823  0.00  0.00    +0.171 A 
ATOM     20  C   UNL     1      47.762  22.434  22.103  0.00  0.00    -0.016 A 
ATOM     21  C   UNL     1      46.555  22.716  21.482  0.00  0.00    +0.159 A 
ATOM     24  C   UNL     1      45.998  21.817  20.574  0.00  0.00    -0.164 A 
ATOM     25  C   UNL     1      44.683  22.170  19.930  0.00  0.00    +0.239 C 
ATOM     26  C   UNL     1      44.684  23.656  19.562  0.00  0.00    +0.093 C 
ATOM     27  N   UNL     1      44.479  21.379  18.709  0.00  0.00    -0.504 N 
ATOM     28  H   UNL     1      43.554  21.556  18.346  0.00  0.00    +0.432 HD
ATOM     29  H   UNL     1      45.168  21.632  18.017  0.00  0.00    +0.429 HD
ATOM     30  C   UNL     1      44.613  19.954  19.043  0.00  0.00    +0.179 C 
ATOM     31  C   UNL     1      43.800  19.637  20.300  0.00  0.00    +0.089 C 
ATOM     32  C   UNL     1      46.090  19.651  19.298  0.00  0.00    +0.132 C 
ATOM     33  C   UNL     1      46.653  20.642  20.284  0.00  0.00    -0.041 A 
ENDROOT
BRANCH  16  15
ATOM      1  C   UNL     1      51.142  21.341  17.056  0.00  0.00    +0.094 C 
ATOM      2  C   UNL     1      50.805  20.106  17.852  0.00  0.00    -0.014 A 
ATOM      3  C   UNL     1      49.863  20.177  18.834  0.00  0.00    -0.059 A 
ATOM      4  C   UNL     1      49.541  19.033  19.579  0.00  0.00    +0.030 A 
ATOM      5  C   UNL     1      50.201  17.812  19.303  0.00  0.00    -0.113 A 
ATOM      6  C   UNL     1      51.170  17.767  18.281  0.00  0.00    +0.175 A 
ATOM      9  C   UNL     1      49.879  16.663  20.054  0.00  0.00    +0.172 A 
ATOM     12  C   UNL     1      48.927  16.736  21.046  0.00  0.00    -0.033 A 
ATOM     13  C   UNL     1      48.276  17.932  21.323  0.00  0.00    -0.012 A 
ATOM     14  C   UNL     1      47.239  17.980  22.415  0.00  0.00    +0.098 C 
ATOM     15  C   UNL     1      48.568  19.080  20.606  0.00  0.00    -0.090 A 
ATOM     34  C   UNL     1      51.455  18.909  17.567  0.00  0.00    -0.104 A 
BRANCH   6   7
ATOM      7  O   UNL     1      51.815  16.605  18.001  0.00  0.00    -0.293 OA
ATOM      8  C   UNL     1      51.711  16.111  16.664  0.00  0.00    +0.248 C 
ENDBRANCH   6   7
BRANCH   9  10
ATOM     10  O   UNL     1      50.505  15.485  19.796  0.00  0.00    -0.480 OA
ATOM     11  H   UNL     1      51.401  15.430  20.155  0.00  0.00    +0.399 HD
ENDBRANCH   9  10
ENDBRANCH  16  15
BRANCH  17  18
ATOM     18  O   UNL     1      49.605  20.969  22.430  0.00  0.00    -0.482 OA
ATOM     19  H   UNL     1      50.112  20.268  21.997  0.00  0.00    +0.403 HD
ENDBRANCH  17  18
BRANCH  21  22
ATOM     22  O   UNL     1      45.909  23.878  21.761  0.00  0.00    -0.490 OA
ATOM     23  H   UNL     1      44.948  23.824  21.675  0.00  0.00    +0.401 HD
ENDBRANCH  21  22
TORSDOF 5
ENDMDL
MODEL 3
REMARK VINA RESULT:      -5.9      3.718      7.607
REMARK  Name = ZINC95486143
REMARK  10 active torsions:
REMARK  status: ('A' for Active; 'I' for Inactive)
REMARK    1  A    between atoms: C1_1  and  C2_2
REMARK    2  A    between atoms: C6_6  and  O3_27
REMARK    3  A    between atoms: C8_8  and  C21_26
REMARK    4  A    between atoms: C9_9  and  C10_10
REMARK    5  A    between atoms: C11_11  and  O2_25
REMARK    6  A    between atoms: C13_13  and  O1_24
REMARK    7  A    between atoms: C17_17  and  C20_23
REMARK    8  A    between atoms: C18_20  and  C19_22
REMARK    9  A    between atoms: C22_28  and  O4_30
REMARK   10  A    between atoms: O4_30  and  C24_31
REMARK                            x       y       z     vdW  Elec       q    Type
REMARK                         _______ _______ _______ _____ _____    ______ ____
ROOT
ATOM     16  C   UNL     1      48.878  20.259  19.953  0.00  0.00    -0.048 A 
ATOM     17  C   UNL     1      49.486  20.744  21.116  0.00  0.00    +0.171 A 
ATOM     20  C   UNL     1      48.772  21.570  21.967  0.00  0.00    -0.016 A 
ATOM     21  C   UNL     1      47.463  21.909  21.665  0.00  0.00    +0.159 A 
ATOM     24  C   UNL     1      46.854  21.426  20.508  0.00  0.00    -0.164 A 
ATOM     25  C   UNL     1      45.428  21.821  20.229  0.00  0.00    +0.239 C 
ATOM     26  C   UNL     1      45.237  23.300  20.579  0.00  0.00    +0.093 C 
ATOM     27  N   UNL     1      45.108  21.626  18.808  0.00  0.00    -0.504 N 
ATOM     28  H   UNL     1      44.125  21.801  18.659  0.00  0.00    +0.432 HD
ATOM     29  H   UNL     1      45.655  22.257  18.243  0.00  0.00    +0.429 HD
ATOM     30  C   UNL     1      45.422  20.237  18.443  0.00  0.00    +0.179 C 
ATOM     31  C   UNL     1      44.848  19.282  19.491  0.00  0.00    +0.089 C 
ATOM     32  C   UNL     1      46.942  20.080  18.384  0.00  0.00    +0.132 C 
ATOM     33  C   UNL     1      47.559  20.612  19.652  0.00  0.00    -0.041 A 
ENDROOT
BRANCH  16  15
ATOM      1  C   UNL     1      47.575  15.412  21.131  0.00  0.00    +0.094 C 
ATOM      2  C   UNL     1      48.502  16.030  20.116  0.00  0.00    -0.014 A 
ATOM      3  C   UNL     1      48.627  17.385  20.059  0.00  0.00    -0.059 A 
ATOM      4  C   UNL     1      49.488  17.970  19.118  0.00  0.00    +0.030 A 
ATOM      5  C   UNL     1      50.220  17.143  18.233  0.00  0.00    -0.113 A 
ATOM      6  C   UNL     1      50.072  15.744  18.315  0.00  0.00    +0.175 A 
ATOM      9  C   UNL     1      51.083  17.731  17.287  0.00  0.00    +0.172 A 
ATOM     12  C   UNL     1      51.208  19.101  17.230  0.00  0.00    -0.033 A 
ATOM     13  C   UNL     1      50.492  19.919  18.096  0.00  0.00    -0.012 A 
ATOM     14  C   UNL     1      50.651  21.415  18.010  0.00  0.00    +0.098 C 
ATOM     15  C   UNL     1      49.635  19.376  19.037  0.00  0.00    -0.090 A 
ATOM     34  C   UNL     1      49.222  15.207  19.255  0.00  0.00    -0.104 A 
BRANCH   6   7
ATOM      7  O   UNL     1      50.765  14.933  17.475  0.00  0.00    -0.293 OA
ATOM      8  C   UNL     1      50.027  13.907  16.808  0.00  0.00    +0.248 C 
ENDBRANCH   6   7
BRANCH   9  10
ATOM     10  O   UNL     1      51.791  16.947  16.433  0.00  0.00    -0.480 OA
ATOM     11  H   UNL     1      51.327  16.744  15.610  0.00  0.00    +0.399 HD
ENDBRANCH   9  10
ENDBRANCH  16  15
BRANCH  17  18
ATOM     18  O   UNL     1      50.769  20.407  21.408  0.00  0.00    -0.482 OA
ATOM     19  H   UNL     1      51.156  19.764  20.797  0.00  0.00    +0.403 HD
ENDBRANCH  17  18
BRANCH  21  22
ATOM     22  O   UNL     1      46.766  22.718  22.505  0.00  0.00    -0.490 OA
ATOM     23  H   UNL     1      46.149  23.312  22.056  0.00  0.00    +0.401 HD
ENDBRANCH  21  22
TORSDOF 5
ENDMDL
MODEL 4
REMARK VINA RESULT:      -5.8      4.404      6.008
REMARK  Name = ZINC95486143
REMARK  10 active torsions:
REMARK  status: ('A' for Active; 'I' for Inactive)
REMARK    1  A    between atoms: C1_1  and  C2_2
REMARK    2  A    between atoms: C6_6  and  O3_27
REMARK    3  A    between atoms: C8_8  and  C21_26
REMARK    4  A    between atoms: C9_9  and  C10_10
REMARK    5  A    between atoms: C11_11  and  O2_25
REMARK    6  A    between atoms: C13_13  and  O1_24
REMARK    7  A    between atoms: C17_17  and  C20_23
REMARK    8  A    between atoms: C18_20  and  C19_22
REMARK    9  A    between atoms: C22_28  and  O4_30
REMARK   10  A    between atoms: O4_30  and  C24_31
REMARK                            x       y       z     vdW  Elec       q    Type
REMARK                         _______ _______ _______ _____ _____    ______ ____
ROOT
ATOM     16  C   UNL     1      48.079  17.057  18.174  0.00  0.00    -0.048 A 
ATOM     17  C   UNL     1      46.990  17.293  17.328  0.00  0.00    +0.171 A 
ATOM     20  C   UNL     1      46.553  16.290  16.480  0.00  0.00    -0.016 A 
ATOM     21  C   UNL     1      47.193  15.060  16.475  0.00  0.00    +0.159 A 
ATOM     24  C   UNL     1      48.278  14.822  17.317  0.00  0.00    -0.164 A 
ATOM     25  C   UNL     1      48.935  13.468  17.275  0.00  0.00    +0.239 C 
ATOM     26  C   UNL     1      49.039  13.003  15.820  0.00  0.00    +0.093 C 
ATOM     27  N   UNL     1      50.286  13.533  17.849  0.00  0.00    -0.504 N 
ATOM     28  H   UNL     1      50.673  12.603  17.902  0.00  0.00    +0.432 HD
ATOM     29  H   UNL     1      50.877  14.113  17.272  0.00  0.00    +0.429 HD
ATOM     30  C   UNL     1      50.197  14.108  19.199  0.00  0.00    +0.179 C 
ATOM     31  C   UNL     1      49.070  13.427  19.978  0.00  0.00    +0.089 C 
ATOM     32  C   UNL     1      49.902  15.603  19.073  0.00  0.00    +0.132 C 
ATOM     33  C   UNL     1      48.724  15.817  18.157  0.00  0.00    -0.041 A 
ENDROOT
BRANCH  16  15
ATOM      1  C   UNL     1      51.911  19.501  15.740  0.00  0.00    +0.094 C 
ATOM      2  C   UNL     1      51.251  19.666  17.085  0.00  0.00    -0.014 A 
ATOM      3  C   UNL     1      50.233  18.832  17.441  0.00  0.00    -0.059 A 
ATOM      4  C   UNL     1      49.613  18.977  18.690  0.00  0.00    +0.030 A 
ATOM      5  C   UNL     1      50.052  19.992  19.573  0.00  0.00    -0.113 A 
ATOM      6  C   UNL     1      51.107  20.840  19.181  0.00  0.00    +0.175 A 
ATOM      9  C   UNL     1      49.427  20.138  20.828  0.00  0.00    +0.172 A 
ATOM     12  C   UNL     1      48.399  19.295  21.185  0.00  0.00    -0.033 A 
ATOM     13  C   UNL     1      47.963  18.296  20.323  0.00  0.00    -0.012 A 
ATOM     14  C   UNL     1      46.836  17.389  20.743  0.00  0.00    +0.098 C 
ATOM     15  C   UNL     1      48.553  18.125  19.083  0.00  0.00    -0.090 A 
ATOM     34  C   UNL     1      51.694  20.663  17.948  0.00  0.00    -0.104 A 
BRANCH   6   7
ATOM      7  O   UNL     1      51.542  21.820  20.013  0.00  0.00    -0.293 OA
ATOM      8  C   UNL     1      52.952  21.911  20.229  0.00  0.00    +0.248 C 
ENDBRANCH   6   7
BRANCH   9  10
ATOM     10  O   UNL     1      49.841  21.109  21.685  0.00  0.00    -0.480 OA
ATOM     11  H   UNL     1      50.785  21.075  21.890  0.00  0.00    +0.399 HD
ENDBRANCH   9  10
ENDBRANCH  16  15
BRANCH  17  18
ATOM     18  O   UNL     1      46.365  18.499  17.339  0.00  0.00    -0.482 OA
ATOM     19  H   UNL     1      46.178  18.853  16.459  0.00  0.00    +0.403 HD
ENDBRANCH  17  18
BRANCH  21  22
ATOM     22  O   UNL     1      46.759  14.079  15.642  0.00  0.00    -0.490 OA
ATOM     23  H   UNL     1      46.144  14.384  14.963  0.00  0.00    +0.401 HD
ENDBRANCH  21  22
TORSDOF 5
ENDMDL
MODEL 5
REMARK VINA RESULT:      -5.6      3.617      6.632
REMARK  Name = ZINC95486143
REMARK  10 active torsions:
REMARK  status: ('A' for Active; 'I' for Inactive)
REMARK    1  A    between atoms: C1_1  and  C2_2
REMARK    2  A    between atoms: C6_6  and  O3_27
REMARK    3  A    between atoms: C8_8  and  C21_26
REMARK    4  A    between atoms: C9_9  and  C10_10
REMARK    5  A    between atoms: C11_11  and  O2_25
REMARK    6  A    between atoms: C13_13  and  O1_24
REMARK    7  A    between atoms: C17_17  and  C20_23
REMARK    8  A    between atoms: C18_20  and  C19_22
REMARK    9  A    between atoms: C22_28  and  O4_30
REMARK   10  A    between atoms: O4_30  and  C24_31
REMARK                            x       y       z     vdW  Elec       q    Type
REMARK                         _______ _______ _______ _____ _____    ______ ____
ROOT
ATOM     16  C   UNL     1      48.919  17.636  18.719  0.00  0.00    -0.048 A 
ATOM     17  C   UNL     1      49.033  17.436  17.338  0.00  0.00    +0.171 A 
ATOM     20  C   UNL     1      50.171  17.865  16.677  0.00  0.00    -0.016 A 
ATOM     21  C   UNL     1      51.188  18.487  17.384  0.00  0.00    +0.159 A 
ATOM     24  C   UNL     1      51.078  18.687  18.758  0.00  0.00    -0.164 A 
ATOM     25  C   UNL     1      52.214  19.364  19.478  0.00  0.00    +0.239 C 
ATOM     26  C   UNL     1      52.734  20.522  18.623  0.00  0.00    +0.093 C 
ATOM     27  N   UNL     1      51.761  19.896  20.771  0.00  0.00    -0.504 N 
ATOM     28  H   UNL     1      52.553  20.257  21.281  0.00  0.00    +0.432 HD
ATOM     29  H   UNL     1      51.088  20.633  20.622  0.00  0.00    +0.429 HD
ATOM     30  C   UNL     1      51.138  18.806  21.536  0.00  0.00    +0.179 C 
ATOM     31  C   UNL     1      52.034  17.566  21.494  0.00  0.00    +0.089 C 
ATOM     32  C   UNL     1      49.783  18.481  20.906  0.00  0.00    +0.132 C 
ATOM     33  C   UNL     1      49.947  18.271  19.422  0.00  0.00    -0.041 A 
ENDROOT
BRANCH  16  15
ATOM      1  C   UNL     1      45.640  21.614  18.781  0.00  0.00    +0.094 C 
ATOM      2  C   UNL     1      45.586  20.204  19.311  0.00  0.00    -0.014 A 
ATOM      3  C   UNL     1      46.652  19.376  19.125  0.00  0.00    -0.059 A 
ATOM      4  C   UNL     1      46.612  18.062  19.614  0.00  0.00    +0.030 A 
ATOM      5  C   UNL     1      45.460  17.608  20.300  0.00  0.00    -0.113 A 
ATOM      6  C   UNL     1      44.373  18.486  20.479  0.00  0.00    +0.175 A 
ATOM      9  C   UNL     1      45.420  16.287  20.790  0.00  0.00    +0.172 A 
ATOM     12  C   UNL     1      46.498  15.451  20.600  0.00  0.00    -0.033 A 
ATOM     13  C   UNL     1      47.631  15.890  19.928  0.00  0.00    -0.012 A 
ATOM     14  C   UNL     1      48.795  14.952  19.737  0.00  0.00    +0.098 C 
ATOM     15  C   UNL     1      47.705  17.181  19.433  0.00  0.00    -0.090 A 
ATOM     34  C   UNL     1      44.451  19.770  19.989  0.00  0.00    -0.104 A 
BRANCH   6   7
ATOM      7  O   UNL     1      43.258  18.069  21.134  0.00  0.00    -0.293 OA
ATOM      8  C   UNL     1      42.095  18.892  21.024  0.00  0.00    +0.248 C 
ENDBRANCH   6   7
BRANCH   9  10
ATOM     10  O   UNL     1      44.320  15.840  21.451  0.00  0.00    -0.480 OA
ATOM     11  H   UNL     1      43.621  15.510  20.870  0.00  0.00    +0.399 HD
ENDBRANCH   9  10
ENDBRANCH  16  15
BRANCH  17  18
ATOM     18  O   UNL     1      48.034  16.824  16.652  0.00  0.00    -0.482 OA
ATOM     19  H   UNL     1      47.165  17.233  16.774  0.00  0.00    +0.403 HD
ENDBRANCH  17  18
BRANCH  21  22
ATOM     22  O   UNL     1      52.304  18.905  16.730  0.00  0.00    -0.490 OA
ATOM     23  H   UNL     1      52.210  18.929  15.768  0.00  0.00    +0.401 HD
ENDBRANCH  21  22
TORSDOF 5
ENDMDL
MODEL 6
REMARK VINA RESULT:      -5.5      1.548      3.335
REMARK  Name = ZINC95486143
REMARK  10 active torsions:
REMARK  status: ('A' for Active; 'I' for Inactive)
REMARK    1  A    between atoms: C1_1  and  C2_2
REMARK    2  A    between atoms: C6_6  and  O3_27
REMARK    3  A    between atoms: C8_8  and  C21_26
REMARK    4  A    between atoms: C9_9  and  C10_10
REMARK    5  A    between atoms: C11_11  and  O2_25
REMARK    6  A    between atoms: C13_13  and  O1_24
REMARK    7  A    between atoms: C17_17  and  C20_23
REMARK    8  A    between atoms: C18_20  and  C19_22
REMARK    9  A    between atoms: C22_28  and  O4_30
REMARK   10  A    between atoms: O4_30  and  C24_31
REMARK                            x       y       z     vdW  Elec       q    Type
REMARK                         _______ _______ _______ _____ _____    ______ ____
ROOT
ATOM     16  C   UNL     1      45.835  17.612  20.220  0.00  0.00    -0.048 A 
ATOM     17  C   UNL     1      45.048  16.827  21.069  0.00  0.00    +0.171 A 
ATOM     20  C   UNL     1      44.905  15.474  20.813  0.00  0.00    -0.016 A 
ATOM     21  C   UNL     1      45.543  14.906  19.721  0.00  0.00    +0.159 A 
ATOM     24  C   UNL     1      46.329  15.685  18.875  0.00  0.00    -0.164 A 
ATOM     25  C   UNL     1      47.004  15.018  17.705  0.00  0.00    +0.239 C 
ATOM     26  C   UNL     1      46.035  14.017  17.069  0.00  0.00    +0.093 C 
ATOM     27  N   UNL     1      47.388  16.013  16.695  0.00  0.00    -0.504 N 
ATOM     28  H   UNL     1      47.923  15.563  15.968  0.00  0.00    +0.432 HD
ATOM     29  H   UNL     1      46.562  16.435  16.297  0.00  0.00    +0.429 HD
ATOM     30  C   UNL     1      48.208  17.047  17.342  0.00  0.00    +0.179 C 
ATOM     31  C   UNL     1      49.282  16.390  18.210  0.00  0.00    +0.089 C 
ATOM     32  C   UNL     1      47.299  17.912  18.218  0.00  0.00    +0.132 C 
ATOM     33  C   UNL     1      46.469  17.033  19.117  0.00  0.00    -0.041 A 
ENDROOT
BRANCH  16  15
ATOM      1  C   UNL     1      41.714  19.960  18.200  0.00  0.00    +0.094 C 
ATOM      2  C   UNL     1      42.934  20.441  18.943  0.00  0.00    -0.014 A 
ATOM      3  C   UNL     1      43.868  19.539  19.355  0.00  0.00    -0.059 A 
ATOM      4  C   UNL     1      45.007  19.977  20.047  0.00  0.00    +0.030 A 
ATOM      5  C   UNL     1      45.175  21.356  20.312  0.00  0.00    -0.113 A 
ATOM      6  C   UNL     1      44.194  22.268  19.874  0.00  0.00    +0.175 A 
ATOM      9  C   UNL     1      46.319  21.796  21.009  0.00  0.00    +0.172 A 
ATOM     12  C   UNL     1      47.262  20.882  21.425  0.00  0.00    -0.033 A 
ATOM     13  C   UNL     1      47.103  19.526  21.168  0.00  0.00    -0.012 A 
ATOM     14  C   UNL     1      48.153  18.551  21.636  0.00  0.00    +0.098 C 
ATOM     15  C   UNL     1      45.992  19.060  20.487  0.00  0.00    -0.090 A 
ATOM     34  C   UNL     1      43.092  21.801  19.193  0.00  0.00    -0.104 A 
BRANCH   6   7
ATOM      7  O   UNL     1      44.336  23.596  20.119  0.00  0.00    -0.293 OA
ATOM      8  C   UNL     1      44.453  24.456  18.984  0.00  0.00    +0.248 C 
ENDBRANCH   6   7
BRANCH   9  10
ATOM     10  O   UNL     1      46.491  23.118  21.268  0.00  0.00    -0.480 OA
ATOM     11  H   UNL     1      46.105  23.407  22.107  0.00  0.00    +0.399 HD
ENDBRANCH   9  10
ENDBRANCH  16  15
BRANCH  17  18
ATOM     18  O   UNL     1      44.427  17.389  22.138  0.00  0.00    -0.482 OA
ATOM     19  H   UNL     1      44.215  16.762  22.844  0.00  0.00    +0.403 HD
ENDBRANCH  17  18
BRANCH  21  22
ATOM     22  O   UNL     1      45.401  13.578  19.475  0.00  0.00    -0.490 OA
ATOM     23  H   UNL     1      46.065  13.216  18.873  0.00  0.00    +0.401 HD
ENDBRANCH  21  22
TORSDOF 5
ENDMDL
MODEL 7
REMARK VINA RESULT:      -5.5      3.310      5.414
REMARK  Name = ZINC95486143
REMARK  10 active torsions:
REMARK  status: ('A' for Active; 'I' for Inactive)
REMARK    1  A    between atoms: C1_1  and  C2_2
REMARK    2  A    between atoms: C6_6  and  O3_27
REMARK    3  A    between atoms: C8_8  and  C21_26
REMARK    4  A    between atoms: C9_9  and  C10_10
REMARK    5  A    between atoms: C11_11  and  O2_25
REMARK    6  A    between atoms: C13_13  and  O1_24
REMARK    7  A    between atoms: C17_17  and  C20_23
REMARK    8  A    between atoms: C18_20  and  C19_22
REMARK    9  A    between atoms: C22_28  and  O4_30
REMARK   10  A    between atoms: O4_30  and  C24_31
REMARK                            x       y       z     vdW  Elec       q    Type
REMARK                         _______ _______ _______ _____ _____    ______ ____
ROOT
ATOM     16  C   UNL     1      49.092  19.539  20.723  0.00  0.00    -0.048 A 
ATOM     17  C   UNL     1      49.011  18.382  21.506  0.00  0.00    +0.171 A 
ATOM     20  C   UNL     1      49.871  17.326  21.258  0.00  0.00    -0.016 A 
ATOM     21  C   UNL     1      50.806  17.421  20.238  0.00  0.00    +0.159 A 
ATOM     24  C   UNL     1      50.890  18.572  19.457  0.00  0.00    -0.164 A 
ATOM     25  C   UNL     1      51.926  18.624  18.366  0.00  0.00    +0.239 C 
ATOM     26  C   UNL     1      51.980  17.268  17.657  0.00  0.00    +0.093 C 
ATOM     27  N   UNL     1      51.585  19.660  17.381  0.00  0.00    -0.504 N 
ATOM     28  H   UNL     1      52.336  19.748  16.714  0.00  0.00    +0.432 HD
ATOM     29  H   UNL     1      50.733  19.411  16.902  0.00  0.00    +0.429 HD
ATOM     30  C   UNL     1      51.400  20.937  18.087  0.00  0.00    +0.179 C 
ATOM     31  C   UNL     1      52.558  21.163  19.061  0.00  0.00    +0.089 C 
ATOM     32  C   UNL     1      50.083  20.879  18.861  0.00  0.00    +0.132 C 
ATOM     33  C   UNL     1      50.033  19.623  19.692  0.00  0.00    -0.041 A 
ENDROOT
BRANCH  16  15
ATOM      1  C   UNL     1      44.828  18.677  17.956  0.00  0.00    +0.094 C 
ATOM      2  C   UNL     1      45.265  19.774  18.892  0.00  0.00    -0.014 A 
ATOM      3  C   UNL     1      46.491  19.704  19.482  0.00  0.00    -0.059 A 
ATOM      4  C   UNL     1      46.907  20.721  20.355  0.00  0.00    +0.030 A 
ATOM      5  C   UNL     1      46.045  21.812  20.616  0.00  0.00    -0.113 A 
ATOM      6  C   UNL     1      44.783  21.859  19.991  0.00  0.00    +0.175 A 
ATOM      9  C   UNL     1      46.463  22.833  21.494  0.00  0.00    +0.172 A 
ATOM     12  C   UNL     1      47.703  22.760  22.090  0.00  0.00    -0.033 A 
ATOM     13  C   UNL     1      48.554  21.691  21.838  0.00  0.00    -0.012 A 
ATOM     14  C   UNL     1      49.904  21.642  22.505  0.00  0.00    +0.098 C 
ATOM     15  C   UNL     1      48.176  20.672  20.982  0.00  0.00    -0.090 A 
ATOM     34  C   UNL     1      44.412  20.846  19.137  0.00  0.00    -0.104 A 
BRANCH   6   7
ATOM      7  O   UNL     1      43.941  22.898  20.229  0.00  0.00    -0.293 OA
ATOM      8  C   UNL     1      42.881  23.101  19.292  0.00  0.00    +0.248 C 
ENDBRANCH   6   7
BRANCH   9  10
ATOM     10  O   UNL     1      45.644  23.886  21.751  0.00  0.00    -0.480 OA
ATOM     11  H   UNL     1      46.048  24.573  22.299  0.00  0.00    +0.399 HD
ENDBRANCH   9  10
ENDBRANCH  16  15
BRANCH  17  18
ATOM     18  O   UNL     1      48.095  18.296  22.505  0.00  0.00    -0.482 OA
ATOM     19  H   UNL     1      47.275  18.780  22.329  0.00  0.00    +0.403 HD
ENDBRANCH  17  18
BRANCH  21  22
ATOM     22  O   UNL     1      51.649  16.382  20.000  0.00  0.00    -0.490 OA
ATOM     23  H   UNL     1      52.530  16.650  19.707  0.00  0.00    +0.401 HD
ENDBRANCH  21  22
TORSDOF 5
ENDMDL
MODEL 8
REMARK VINA RESULT:      -5.5      3.425      5.139
REMARK  Name = ZINC95486143
REMARK  10 active torsions:
REMARK  status: ('A' for Active; 'I' for Inactive)
REMARK    1  A    between atoms: C1_1  and  C2_2
REMARK    2  A    between atoms: C6_6  and  O3_27
REMARK    3  A    between atoms: C8_8  and  C21_26
REMARK    4  A    between atoms: C9_9  and  C10_10
REMARK    5  A    between atoms: C11_11  and  O2_25
REMARK    6  A    between atoms: C13_13  and  O1_24
REMARK    7  A    between atoms: C17_17  and  C20_23
REMARK    8  A    between atoms: C18_20  and  C19_22
REMARK    9  A    between atoms: C22_28  and  O4_30
REMARK   10  A    between atoms: O4_30  and  C24_31
REMARK                            x       y       z     vdW  Elec       q    Type
REMARK                         _______ _______ _______ _____ _____    ______ ____
ROOT
ATOM     16  C   UNL     1      48.999  17.735  19.954  0.00  0.00    -0.048 A 
ATOM     17  C   UNL     1      48.997  16.911  21.086  0.00  0.00    +0.171 A 
ATOM     20  C   UNL     1      50.192  16.401  21.562  0.00  0.00    -0.016 A 
ATOM     21  C   UNL     1      51.381  16.708  20.918  0.00  0.00    +0.159 A 
ATOM     24  C   UNL     1      51.386  17.528  19.792  0.00  0.00    -0.164 A 
ATOM     25  C   UNL     1      52.706  17.833  19.133  0.00  0.00    +0.239 C 
ATOM     26  C   UNL     1      53.560  16.563  19.102  0.00  0.00    +0.093 C 
ATOM     27  N   UNL     1      52.498  18.298  17.755  0.00  0.00    -0.504 N 
ATOM     28  H   UNL     1      53.381  18.591  17.363  0.00  0.00    +0.432 HD
ATOM     29  H   UNL     1      52.109  17.554  17.196  0.00  0.00    +0.429 HD
ATOM     30  C   UNL     1      51.568  19.437  17.778  0.00  0.00    +0.179 C 
ATOM     31  C   UNL     1      51.991  20.430  18.862  0.00  0.00    +0.089 C 
ATOM     32  C   UNL     1      50.164  18.912  18.083  0.00  0.00    +0.132 C 
ATOM     33  C   UNL     1      50.202  18.033  19.307  0.00  0.00    -0.041 A 
ENDROOT
BRANCH  16  15
ATOM      1  C   UNL     1      48.213  22.215  22.380  0.00  0.00    +0.094 C 
ATOM      2  C   UNL     1      47.448  21.440  21.338  0.00  0.00    -0.014 A 
ATOM      3  C   UNL     1      47.940  20.251  20.890  0.00  0.00    -0.059 A 
ATOM      4  C   UNL     1      47.236  19.522  19.921  0.00  0.00    +0.030 A 
ATOM      5  C   UNL     1      46.016  20.031  19.415  0.00  0.00    -0.113 A 
ATOM      6  C   UNL     1      45.530  21.262  19.896  0.00  0.00    +0.175 A 
ATOM      9  C   UNL     1      45.309  19.298  18.440  0.00  0.00    +0.172 A 
ATOM     12  C   UNL     1      45.808  18.097  17.989  0.00  0.00    -0.033 A 
ATOM     13  C   UNL     1      47.005  17.592  18.481  0.00  0.00    -0.012 A 
ATOM     14  C   UNL     1      47.525  16.274  17.967  0.00  0.00    +0.098 C 
ATOM     15  C   UNL     1      47.726  18.284  19.438  0.00  0.00    -0.090 A 
ATOM     34  C   UNL     1      46.247  21.947  20.852  0.00  0.00    -0.104 A 
BRANCH   6   7
ATOM      7  O   UNL     1      44.362  21.769  19.423  0.00  0.00    -0.293 OA
ATOM      8  C   UNL     1      44.044  23.114  19.784  0.00  0.00    +0.248 C 
ENDBRANCH   6   7
BRANCH   9  10
ATOM     10  O   UNL     1      44.137  19.777  17.948  0.00  0.00    -0.480 OA
ATOM     11  H   UNL     1      44.220  20.213  17.089  0.00  0.00    +0.399 HD
ENDBRANCH   9  10
ENDBRANCH  16  15
BRANCH  17  18
ATOM     18  O   UNL     1      47.830  16.616  21.713  0.00  0.00    -0.482 OA
ATOM     19  H   UNL     1      47.080  17.155  21.425  0.00  0.00    +0.403 HD
ENDBRANCH  17  18
BRANCH  21  22
ATOM     22  O   UNL     1      52.551  16.205  21.391  0.00  0.00    -0.490 OA
ATOM     23  H   UNL     1      52.843  15.400  20.942  0.00  0.00    +0.401 HD
ENDBRANCH  21  22
TORSDOF 5
ENDMDL
MODEL 9
REMARK VINA RESULT:      -5.4      3.939      5.913
REMARK  Name = ZINC95486143
REMARK  10 active torsions:
REMARK  status: ('A' for Active; 'I' for Inactive)
REMARK    1  A    between atoms: C1_1  and  C2_2
REMARK    2  A    between atoms: C6_6  and  O3_27
REMARK    3  A    between atoms: C8_8  and  C21_26
REMARK    4  A    between atoms: C9_9  and  C10_10
REMARK    5  A    between atoms: C11_11  and  O2_25
REMARK    6  A    between atoms: C13_13  and  O1_24
REMARK    7  A    between atoms: C17_17  and  C20_23
REMARK    8  A    between atoms: C18_20  and  C19_22
REMARK    9  A    between atoms: C22_28  and  O4_30
REMARK   10  A    between atoms: O4_30  and  C24_31
REMARK                            x       y       z     vdW  Elec       q    Type
REMARK                         _______ _______ _______ _____ _____    ______ ____
ROOT
ATOM     16  C   UNL     1      47.512  15.768  18.085  0.00  0.00    -0.048 A 
ATOM     17  C   UNL     1      46.880  15.549  16.856  0.00  0.00    +0.171 A 
ATOM     20  C   UNL     1      46.673  14.254  16.414  0.00  0.00    -0.016 A 
ATOM     21  C   UNL     1      47.091  13.184  17.189  0.00  0.00    +0.159 A 
ATOM     24  C   UNL     1      47.721  13.398  18.413  0.00  0.00    -0.164 A 
ATOM     25  C   UNL     1      48.151  12.200  19.218  0.00  0.00    +0.239 C 
ATOM     26  C   UNL     1      48.747  11.149  18.278  0.00  0.00    +0.093 C 
ATOM     27  N   UNL     1      49.169  12.582  20.206  0.00  0.00    -0.504 N 
ATOM     28  H   UNL     1      49.373  11.792  20.800  0.00  0.00    +0.432 HD
ATOM     29  H   UNL     1      50.010  12.880  19.736  0.00  0.00    +0.429 HD
ATOM     30  C   UNL     1      48.642  13.687  21.021  0.00  0.00    +0.179 C 
ATOM     31  C   UNL     1      47.220  13.360  21.480  0.00  0.00    +0.089 C 
ATOM     32  C   UNL     1      48.627  14.957  20.169  0.00  0.00    +0.132 C 
ATOM     33  C   UNL     1      47.938  14.683  18.857  0.00  0.00    -0.041 A 
ENDROOT
BRANCH  16  15
ATOM      1  C   UNL     1      52.007  17.326  16.097  0.00  0.00    +0.094 C 
ATOM      2  C   UNL     1      50.980  17.968  16.995  0.00  0.00    -0.014 A 
ATOM      3  C   UNL     1      49.866  17.268  17.348  0.00  0.00    -0.059 A 
ATOM      4  C   UNL     1      48.905  17.856  18.183  0.00  0.00    +0.030 A 
ATOM      5  C   UNL     1      49.101  19.177  18.651  0.00  0.00    -0.113 A 
ATOM      6  C   UNL     1      50.263  19.877  18.271  0.00  0.00    +0.175 A 
ATOM      9  C   UNL     1      48.134  19.768  19.489  0.00  0.00    +0.172 A 
ATOM     12  C   UNL     1      47.009  19.058  19.845  0.00  0.00    -0.033 A 
ATOM     13  C   UNL     1      46.809  17.761  19.388  0.00  0.00    -0.012 A 
ATOM     14  C   UNL     1      45.567  17.011  19.796  0.00  0.00    +0.098 C 
ATOM     15  C   UNL     1      47.738  17.150  18.564  0.00  0.00    -0.090 A 
ATOM     34  C   UNL     1      51.187  19.265  17.455  0.00  0.00    -0.104 A 
BRANCH   6   7
ATOM      7  O   UNL     1      50.471  21.146  18.709  0.00  0.00    -0.293 OA
ATOM      8  C   UNL     1      51.753  21.438  19.267  0.00  0.00    +0.248 C 
ENDBRANCH   6   7
BRANCH   9  10
ATOM     10  O   UNL     1      48.313  21.034  19.946  0.00  0.00    -0.480 OA
ATOM     11  H   UNL     1      48.606  21.659  19.268  0.00  0.00    +0.399 HD
ENDBRANCH   9  10
ENDBRANCH  16  15
BRANCH  17  18
ATOM     18  O   UNL     1      46.471  16.602  16.101  0.00  0.00    -0.482 OA
ATOM     19  H   UNL     1      45.770  17.130  16.509  0.00  0.00    +0.403 HD
ENDBRANCH  17  18
BRANCH  21  22
ATOM     22  O   UNL     1      46.885  11.915  16.751  0.00  0.00    -0.490 OA
ATOM     23  H   UNL     1      47.460  11.653  16.019  0.00  0.00    +0.401 HD
ENDBRANCH  21  22
TORSDOF 5
ENDMDL
