MODEL 1
REMARK VINA RESULT:      -6.3      0.000      0.000
REMARK  Name = ZINC95486352
REMARK  6 active torsions:
REMARK  status: ('A' for Active; 'I' for Inactive)
REMARK    1  A    between atoms: C3_3  and  O6_22
REMARK    2  A    between atoms: C4_4  and  O5_21
REMARK    3  A    between atoms: C6_6  and  C7_7
REMARK    4  A    between atoms: C8_8  and  O4_20
REMARK    5  A    between atoms: C13_14  and  O3_18
REMARK    6  A    between atoms: C15_16  and  O2_17
REMARK                            x       y       z     vdW  Elec       q    Type
REMARK                         _______ _______ _______ _____ _____    ______ ____
ROOT
ATOM     11  C   UNL     1      44.889  18.626  19.327  0.00  0.00    -0.088 C 
ATOM     12  C   UNL     1      44.369  17.908  20.342  0.00  0.00    +0.043 C 
ATOM     15  C   UNL     1      43.117  18.344  20.977  0.00  0.00    +0.413 C 
ATOM     16  C   UNL     1      42.285  19.326  20.254  0.00  0.00    -0.204 A 
ATOM     17  C   UNL     1      42.842  20.055  19.200  0.00  0.00    +0.003 A 
ATOM     18  C   UNL     1      42.063  20.955  18.523  0.00  0.00    -0.024 A 
ATOM     19  C   UNL     1      40.733  21.152  18.880  0.00  0.00    +0.169 A 
ATOM     22  C   UNL     1      40.175  20.439  19.930  0.00  0.00    -0.045 A 
ATOM     23  C   UNL     1      40.947  19.523  20.624  0.00  0.00    +0.195 A 
ATOM     26  O   UNL     1      42.778  17.910  22.063  0.00  0.00    -0.433 OA
ATOM     27  C   UNL     1      44.282  19.886  18.805  0.00  0.00    +0.187 C 
ENDROOT
BRANCH  11  10
ATOM      1  C   UNL     1      47.366  18.647  19.117  0.00  0.00    +0.036 A 
ATOM      2  C   UNL     1      48.527  18.192  18.529  0.00  0.00    +0.006 A 
ATOM      3  C   UNL     1      48.472  17.233  17.526  0.00  0.00    +0.084 A 
ATOM      6  C   UNL     1      47.243  16.726  17.107  0.00  0.00    +0.082 A 
ATOM      9  C   UNL     1      46.075  17.177  17.690  0.00  0.00    +0.032 A 
ATOM     10  C   UNL     1      46.129  18.143  18.702  0.00  0.00    -0.035 A 
BRANCH   3   4
ATOM      4  O   UNL     1      49.620  16.789  16.952  0.00  0.00    -0.488 OA
ATOM      5  H   UNL     1      50.246  16.398  17.576  0.00  0.00    +0.388 HD
ENDBRANCH   3   4
BRANCH   6   7
ATOM      7  O   UNL     1      47.194  15.788  16.124  0.00  0.00    -0.486 OA
ATOM      8  H   UNL     1      47.536  16.094  15.272  0.00  0.00    +0.387 HD
ENDBRANCH   6   7
ENDBRANCH  11  10
BRANCH  12  13
ATOM     13  O   UNL     1      44.998  16.784  20.775  0.00  0.00    -0.454 OA
ATOM     14  H   UNL     1      44.756  15.985  20.286  0.00  0.00    +0.404 HD
ENDBRANCH  12  13
BRANCH  19  20
ATOM     20  O   UNL     1      39.977  22.047  18.195  0.00  0.00    -0.494 OA
ATOM     21  H   UNL     1      39.363  22.548  18.750  0.00  0.00    +0.402 HD
ENDBRANCH  19  20
BRANCH  23  24
ATOM     24  O   UNL     1      40.414  18.821  21.655  0.00  0.00    -0.482 OA
ATOM     25  H   UNL     1      40.846  18.981  22.505  0.00  0.00    +0.404 HD
ENDBRANCH  23  24
TORSDOF 6
ENDMDL
MODEL 2
REMARK VINA RESULT:      -6.1      2.827      7.894
REMARK  Name = ZINC95486352
REMARK  6 active torsions:
REMARK  status: ('A' for Active; 'I' for Inactive)
REMARK    1  A    between atoms: C3_3  and  O6_22
REMARK    2  A    between atoms: C4_4  and  O5_21
REMARK    3  A    between atoms: C6_6  and  C7_7
REMARK    4  A    between atoms: C8_8  and  O4_20
REMARK    5  A    between atoms: C13_14  and  O3_18
REMARK    6  A    between atoms: C15_16  and  O2_17
REMARK                            x       y       z     vdW  Elec       q    Type
REMARK                         _______ _______ _______ _____ _____    ______ ____
ROOT
ATOM     11  C   UNL     1      47.719  19.415  18.913  0.00  0.00    -0.088 C 
ATOM     12  C   UNL     1      48.051  18.231  18.361  0.00  0.00    +0.043 C 
ATOM     15  C   UNL     1      49.391  18.044  17.788  0.00  0.00    +0.413 C 
ATOM     16  C   UNL     1      50.440  19.014  18.160  0.00  0.00    -0.204 A 
ATOM     17  C   UNL     1      50.075  20.233  18.737  0.00  0.00    +0.003 A 
ATOM     18  C   UNL     1      51.052  21.124  19.093  0.00  0.00    -0.024 A 
ATOM     19  C   UNL     1      52.394  20.829  18.879  0.00  0.00    +0.169 A 
ATOM     22  C   UNL     1      52.765  19.625  18.299  0.00  0.00    -0.045 A 
ATOM     23  C   UNL     1      51.790  18.711  17.934  0.00  0.00    +0.195 A 
ATOM     26  O   UNL     1      49.628  17.120  17.031  0.00  0.00    -0.433 OA
ATOM     27  C   UNL     1      48.634  20.595  18.958  0.00  0.00    +0.187 C 
ENDROOT
BRANCH  11  10
ATOM      1  C   UNL     1      46.168  19.257  20.849  0.00  0.00    +0.036 A 
ATOM      2  C   UNL     1      44.909  19.390  21.395  0.00  0.00    +0.006 A 
ATOM      3  C   UNL     1      43.849  19.818  20.608  0.00  0.00    +0.084 A 
ATOM      6  C   UNL     1      44.051  20.116  19.261  0.00  0.00    +0.082 A 
ATOM      9  C   UNL     1      45.308  19.986  18.706  0.00  0.00    +0.032 A 
ATOM     10  C   UNL     1      46.379  19.555  19.498  0.00  0.00    -0.035 A 
BRANCH   3   4
ATOM      4  O   UNL     1      42.611  19.947  21.154  0.00  0.00    -0.488 OA
ATOM      5  H   UNL     1      42.262  19.130  21.534  0.00  0.00    +0.388 HD
ENDBRANCH   3   4
BRANCH   6   7
ATOM      7  O   UNL     1      43.008  20.534  18.495  0.00  0.00    -0.486 OA
ATOM      8  H   UNL     1      42.406  19.825  18.230  0.00  0.00    +0.387 HD
ENDBRANCH   6   7
ENDBRANCH  11  10
BRANCH  12  13
ATOM     13  O   UNL     1      47.150  17.213  18.338  0.00  0.00    -0.454 OA
ATOM     14  H   UNL     1      46.230  17.504  18.267  0.00  0.00    +0.404 HD
ENDBRANCH  12  13
BRANCH  19  20
ATOM     20  O   UNL     1      53.347  21.725  19.241  0.00  0.00    -0.494 OA
ATOM     21  H   UNL     1      53.563  21.711  20.183  0.00  0.00    +0.402 HD
ENDBRANCH  19  20
BRANCH  23  24
ATOM     24  O   UNL     1      52.140  17.531  17.364  0.00  0.00    -0.482 OA
ATOM     25  H   UNL     1      52.700  17.623  16.582  0.00  0.00    +0.404 HD
ENDBRANCH  23  24
TORSDOF 6
ENDMDL
MODEL 3
REMARK VINA RESULT:      -6.1      3.218      4.355
REMARK  Name = ZINC95486352
REMARK  6 active torsions:
REMARK  status: ('A' for Active; 'I' for Inactive)
REMARK    1  A    between atoms: C3_3  and  O6_22
REMARK    2  A    between atoms: C4_4  and  O5_21
REMARK    3  A    between atoms: C6_6  and  C7_7
REMARK    4  A    between atoms: C8_8  and  O4_20
REMARK    5  A    between atoms: C13_14  and  O3_18
REMARK    6  A    between atoms: C15_16  and  O2_17
REMARK                            x       y       z     vdW  Elec       q    Type
REMARK                         _______ _______ _______ _____ _____    ______ ____
ROOT
ATOM     11  C   UNL     1      48.143  20.367  20.012  0.00  0.00    -0.088 C 
ATOM     12  C   UNL     1      47.803  19.066  20.099  0.00  0.00    +0.043 C 
ATOM     15  C   UNL     1      46.396  18.692  20.308  0.00  0.00    +0.413 C 
ATOM     16  C   UNL     1      45.366  19.717  20.048  0.00  0.00    -0.204 A 
ATOM     17  C   UNL     1      45.741  21.060  19.955  0.00  0.00    +0.003 A 
ATOM     18  C   UNL     1      44.785  22.007  19.699  0.00  0.00    -0.024 A 
ATOM     19  C   UNL     1      43.452  21.643  19.540  0.00  0.00    +0.169 A 
ATOM     22  C   UNL     1      43.070  20.313  19.640  0.00  0.00    -0.045 A 
ATOM     23  C   UNL     1      44.024  19.343  19.896  0.00  0.00    +0.195 A 
ATOM     26  O   UNL     1      46.091  17.575  20.685  0.00  0.00    -0.433 OA
ATOM     27  C   UNL     1      47.169  21.491  20.147  0.00  0.00    +0.187 C 
ENDROOT
BRANCH  11  10
ATOM      1  C   UNL     1      50.427  20.862  20.860  0.00  0.00    +0.036 A 
ATOM      2  C   UNL     1      51.751  21.172  20.637  0.00  0.00    +0.006 A 
ATOM      3  C   UNL     1      52.224  21.323  19.341  0.00  0.00    +0.084 A 
ATOM      6  C   UNL     1      51.361  21.162  18.257  0.00  0.00    +0.082 A 
ATOM      9  C   UNL     1      50.033  20.852  18.471  0.00  0.00    +0.032 A 
ATOM     10  C   UNL     1      49.555  20.699  19.778  0.00  0.00    -0.035 A 
BRANCH   3   4
ATOM      4  O   UNL     1      53.530  21.628  19.128  0.00  0.00    -0.488 OA
ATOM      5  H   UNL     1      54.112  21.404  19.867  0.00  0.00    +0.388 HD
ENDBRANCH   3   4
BRANCH   6   7
ATOM      7  O   UNL     1      51.829  21.312  16.989  0.00  0.00    -0.486 OA
ATOM      8  H   UNL     1      52.791  21.392  16.932  0.00  0.00    +0.387 HD
ENDBRANCH   6   7
ENDBRANCH  11  10
BRANCH  12  13
ATOM     13  O   UNL     1      48.755  18.103  19.992  0.00  0.00    -0.454 OA
ATOM     14  H   UNL     1      48.404  17.202  19.972  0.00  0.00    +0.404 HD
ENDBRANCH  12  13
BRANCH  19  20
ATOM     20  O   UNL     1      42.520  22.596  19.286  0.00  0.00    -0.494 OA
ATOM     21  H   UNL     1      42.349  23.187  20.032  0.00  0.00    +0.402 HD
ENDBRANCH  19  20
BRANCH  23  24
ATOM     24  O   UNL     1      43.663  18.040  19.998  0.00  0.00    -0.482 OA
ATOM     25  H   UNL     1      42.809  17.835  19.592  0.00  0.00    +0.404 HD
ENDBRANCH  23  24
TORSDOF 6
ENDMDL
MODEL 4
REMARK VINA RESULT:      -6.0      3.606      7.826
REMARK  Name = ZINC95486352
REMARK  6 active torsions:
REMARK  status: ('A' for Active; 'I' for Inactive)
REMARK    1  A    between atoms: C3_3  and  O6_22
REMARK    2  A    between atoms: C4_4  and  O5_21
REMARK    3  A    between atoms: C6_6  and  C7_7
REMARK    4  A    between atoms: C8_8  and  O4_20
REMARK    5  A    between atoms: C13_14  and  O3_18
REMARK    6  A    between atoms: C15_16  and  O2_17
REMARK                            x       y       z     vdW  Elec       q    Type
REMARK                         _______ _______ _______ _____ _____    ______ ____
ROOT
ATOM     11  C   UNL     1      47.035  20.774  19.948  0.00  0.00    -0.088 C 
ATOM     12  C   UNL     1      47.545  20.841  21.194  0.00  0.00    +0.043 C 
ATOM     15  C   UNL     1      48.990  20.667  21.401  0.00  0.00    +0.413 C 
ATOM     16  C   UNL     1      49.874  20.795  20.226  0.00  0.00    -0.204 A 
ATOM     17  C   UNL     1      49.324  20.729  18.942  0.00  0.00    +0.003 A 
ATOM     18  C   UNL     1      50.145  20.862  17.854  0.00  0.00    -0.024 A 
ATOM     19  C   UNL     1      51.513  21.053  18.017  0.00  0.00    +0.169 A 
ATOM     22  C   UNL     1      52.068  21.110  19.287  0.00  0.00    -0.045 A 
ATOM     23  C   UNL     1      51.252  20.980  20.398  0.00  0.00    +0.195 A 
ATOM     26  O   UNL     1      49.442  20.425  22.505  0.00  0.00    -0.433 OA
ATOM     27  C   UNL     1      47.854  20.498  18.730  0.00  0.00    +0.187 C 
ENDROOT
BRANCH  11  10
ATOM      1  C   UNL     1      44.723  19.880  19.769  0.00  0.00    +0.036 A 
ATOM      2  C   UNL     1      43.367  20.075  19.611  0.00  0.00    +0.006 A 
ATOM      3  C   UNL     1      42.859  21.359  19.464  0.00  0.00    +0.084 A 
ATOM      6  C   UNL     1      43.717  22.458  19.473  0.00  0.00    +0.082 A 
ATOM      9  C   UNL     1      45.076  22.272  19.630  0.00  0.00    +0.032 A 
ATOM     10  C   UNL     1      45.590  20.978  19.780  0.00  0.00    -0.035 A 
BRANCH   3   4
ATOM      4  O   UNL     1      41.522  21.543  19.310  0.00  0.00    -0.488 OA
ATOM      5  H   UNL     1      41.111  22.055  20.019  0.00  0.00    +0.388 HD
ENDBRANCH   3   4
BRANCH   6   7
ATOM      7  O   UNL     1      43.214  23.713  19.327  0.00  0.00    -0.486 OA
ATOM      8  H   UNL     1      43.889  24.395  19.210  0.00  0.00    +0.387 HD
ENDBRANCH   6   7
ENDBRANCH  11  10
BRANCH  12  13
ATOM     13  O   UNL     1      46.727  21.071  22.254  0.00  0.00    -0.454 OA
ATOM     14  H   UNL     1      46.903  20.505  23.018  0.00  0.00    +0.404 HD
ENDBRANCH  12  13
BRANCH  19  20
ATOM     20  O   UNL     1      52.310  21.183  16.926  0.00  0.00    -0.494 OA
ATOM     21  H   UNL     1      53.237  21.361  17.136  0.00  0.00    +0.402 HD
ENDBRANCH  19  20
BRANCH  23  24
ATOM     24  O   UNL     1      51.783  21.032  21.646  0.00  0.00    -0.482 OA
ATOM     25  H   UNL     1      52.677  21.399  21.678  0.00  0.00    +0.404 HD
ENDBRANCH  23  24
TORSDOF 6
ENDMDL
MODEL 5
REMARK VINA RESULT:      -6.0      2.722      6.088
REMARK  Name = ZINC95486352
REMARK  6 active torsions:
REMARK  status: ('A' for Active; 'I' for Inactive)
REMARK    1  A    between atoms: C3_3  and  O6_22
REMARK    2  A    between atoms: C4_4  and  O5_21
REMARK    3  A    between atoms: C6_6  and  C7_7
REMARK    4  A    between atoms: C8_8  and  O4_20
REMARK    5  A    between atoms: C13_14  and  O3_18
REMARK    6  A    between atoms: C15_16  and  O2_17
REMARK                            x       y       z     vdW  Elec       q    Type
REMARK                         _______ _______ _______ _____ _____    ______ ____
ROOT
ATOM     11  C   UNL     1      45.130  19.444  19.865  0.00  0.00    -0.088 C 
ATOM     12  C   UNL     1      44.752  18.615  20.859  0.00  0.00    +0.043 C 
ATOM     15  C   UNL     1      44.691  17.166  20.616  0.00  0.00    +0.413 C 
ATOM     16  C   UNL     1      45.389  16.637  19.428  0.00  0.00    -0.204 A 
ATOM     17  C   UNL     1      45.778  17.515  18.412  0.00  0.00    +0.003 A 
ATOM     18  C   UNL     1      46.439  17.023  17.318  0.00  0.00    -0.024 A 
ATOM     19  C   UNL     1      46.716  15.665  17.209  0.00  0.00    +0.169 A 
ATOM     22  C   UNL     1      46.326  14.785  18.208  0.00  0.00    -0.045 A 
ATOM     23  C   UNL     1      45.659  15.266  19.322  0.00  0.00    +0.195 A 
ATOM     26  O   UNL     1      44.083  16.427  21.369  0.00  0.00    -0.433 OA
ATOM     27  C   UNL     1      45.471  18.984  18.486  0.00  0.00    +0.187 C 
ENDROOT
BRANCH  11  10
ATOM      1  C   UNL     1      46.185  21.374  21.021  0.00  0.00    +0.036 A 
ATOM      2  C   UNL     1      46.252  22.725  21.291  0.00  0.00    +0.006 A 
ATOM      3  C   UNL     1      45.347  23.599  20.704  0.00  0.00    +0.084 A 
ATOM      6  C   UNL     1      44.365  23.116  19.839  0.00  0.00    +0.082 A 
ATOM      9  C   UNL     1      44.291  21.765  19.565  0.00  0.00    +0.032 A 
ATOM     10  C   UNL     1      45.203  20.882  20.155  0.00  0.00    -0.035 A 
BRANCH   3   4
ATOM      4  O   UNL     1      45.419  24.929  20.973  0.00  0.00    -0.488 OA
ATOM      5  H   UNL     1      44.787  25.465  20.476  0.00  0.00    +0.388 HD
ENDBRANCH   3   4
BRANCH   6   7
ATOM      7  O   UNL     1      43.481  23.976  19.268  0.00  0.00    -0.486 OA
ATOM      8  H   UNL     1      42.702  24.157  19.812  0.00  0.00    +0.387 HD
ENDBRANCH   6   7
ENDBRANCH  11  10
BRANCH  12  13
ATOM     13  O   UNL     1      44.432  19.116  22.081  0.00  0.00    -0.454 OA
ATOM     14  H   UNL     1      43.521  18.937  22.353  0.00  0.00    +0.404 HD
ENDBRANCH  12  13
BRANCH  19  20
ATOM     20  O   UNL     1      47.372  15.197  16.117  0.00  0.00    -0.494 OA
ATOM     21  H   UNL     1      47.766  14.322  16.240  0.00  0.00    +0.402 HD
ENDBRANCH  19  20
BRANCH  23  24
ATOM     24  O   UNL     1      45.270  14.416  20.306  0.00  0.00    -0.482 OA
ATOM     25  H   UNL     1      45.866  14.396  21.066  0.00  0.00    +0.404 HD
ENDBRANCH  23  24
TORSDOF 6
ENDMDL
MODEL 6
REMARK VINA RESULT:      -5.9      3.859      8.243
REMARK  Name = ZINC95486352
REMARK  6 active torsions:
REMARK  status: ('A' for Active; 'I' for Inactive)
REMARK    1  A    between atoms: C3_3  and  O6_22
REMARK    2  A    between atoms: C4_4  and  O5_21
REMARK    3  A    between atoms: C6_6  and  C7_7
REMARK    4  A    between atoms: C8_8  and  O4_20
REMARK    5  A    between atoms: C13_14  and  O3_18
REMARK    6  A    between atoms: C15_16  and  O2_17
REMARK                            x       y       z     vdW  Elec       q    Type
REMARK                         _______ _______ _______ _____ _____    ______ ____
ROOT
ATOM     11  C   UNL     1      48.246  20.553  20.119  0.00  0.00    -0.088 C 
ATOM     12  C   UNL     1      48.819  19.583  20.859  0.00  0.00    +0.043 C 
ATOM     15  C   UNL     1      49.986  18.859  20.333  0.00  0.00    +0.413 C 
ATOM     16  C   UNL     1      50.710  19.456  19.194  0.00  0.00    -0.204 A 
ATOM     17  C   UNL     1      50.100  20.465  18.444  0.00  0.00    +0.003 A 
ATOM     18  C   UNL     1      50.781  21.027  17.397  0.00  0.00    -0.024 A 
ATOM     19  C   UNL     1      52.063  20.597  17.072  0.00  0.00    +0.169 A 
ATOM     22  C   UNL     1      52.673  19.589  17.805  0.00  0.00    -0.045 A 
ATOM     23  C   UNL     1      52.000  19.012  18.869  0.00  0.00    +0.195 A 
ATOM     26  O   UNL     1      50.341  17.801  20.820  0.00  0.00    -0.433 OA
ATOM     27  C   UNL     1      48.706  20.936  18.751  0.00  0.00    +0.187 C 
ENDROOT
BRANCH  11  10
ATOM      1  C   UNL     1      47.306  22.367  21.536  0.00  0.00    +0.036 A 
ATOM      2  C   UNL     1      46.227  23.039  22.070  0.00  0.00    +0.006 A 
ATOM      3  C   UNL     1      44.934  22.632  21.771  0.00  0.00    +0.084 A 
ATOM      6  C   UNL     1      44.719  21.541  20.929  0.00  0.00    +0.082 A 
ATOM      9  C   UNL     1      45.794  20.862  20.390  0.00  0.00    +0.032 A 
ATOM     10  C   UNL     1      47.098  21.271  20.691  0.00  0.00    -0.035 A 
BRANCH   3   4
ATOM      4  O   UNL     1      43.875  23.299  22.300  0.00  0.00    -0.488 OA
ATOM      5  H   UNL     1      43.017  22.916  22.076  0.00  0.00    +0.388 HD
ENDBRANCH   3   4
BRANCH   6   7
ATOM      7  O   UNL     1      43.450  21.146  20.640  0.00  0.00    -0.486 OA
ATOM      8  H   UNL     1      43.158  21.383  19.749  0.00  0.00    +0.387 HD
ENDBRANCH   6   7
ENDBRANCH  11  10
BRANCH  12  13
ATOM     13  O   UNL     1      48.324  19.278  22.086  0.00  0.00    -0.454 OA
ATOM     14  H   UNL     1      48.970  18.876  22.683  0.00  0.00    +0.404 HD
ENDBRANCH  12  13
BRANCH  19  20
ATOM     20  O   UNL     1      52.722  21.166  16.032  0.00  0.00    -0.494 OA
ATOM     21  H   UNL     1      53.650  20.905  15.964  0.00  0.00    +0.402 HD
ENDBRANCH  19  20
BRANCH  23  24
ATOM     24  O   UNL     1      52.584  18.024  19.593  0.00  0.00    -0.482 OA
ATOM     25  H   UNL     1      51.995  17.608  20.236  0.00  0.00    +0.404 HD
ENDBRANCH  23  24
TORSDOF 6
ENDMDL
MODEL 7
REMARK VINA RESULT:      -5.8      3.192      7.565
REMARK  Name = ZINC95486352
REMARK  6 active torsions:
REMARK  status: ('A' for Active; 'I' for Inactive)
REMARK    1  A    between atoms: C3_3  and  O6_22
REMARK    2  A    between atoms: C4_4  and  O5_21
REMARK    3  A    between atoms: C6_6  and  C7_7
REMARK    4  A    between atoms: C8_8  and  O4_20
REMARK    5  A    between atoms: C13_14  and  O3_18
REMARK    6  A    between atoms: C15_16  and  O2_17
REMARK                            x       y       z     vdW  Elec       q    Type
REMARK                         _______ _______ _______ _____ _____    ______ ____
ROOT
ATOM     11  C   UNL     1      46.965  19.846  18.995  0.00  0.00    -0.088 C 
ATOM     12  C   UNL     1      46.308  18.798  18.460  0.00  0.00    +0.043 C 
ATOM     15  C   UNL     1      47.045  17.803  17.668  0.00  0.00    +0.413 C 
ATOM     16  C   UNL     1      48.516  17.777  17.793  0.00  0.00    -0.204 A 
ATOM     17  C   UNL     1      49.177  18.871  18.356  0.00  0.00    +0.003 A 
ATOM     18  C   UNL     1      50.541  18.837  18.483  0.00  0.00    -0.024 A 
ATOM     19  C   UNL     1      51.266  17.733  18.050  0.00  0.00    +0.169 A 
ATOM     22  C   UNL     1      50.618  16.646  17.481  0.00  0.00    -0.045 A 
ATOM     23  C   UNL     1      49.240  16.662  17.348  0.00  0.00    +0.195 A 
ATOM     26  O   UNL     1      46.462  17.026  16.934  0.00  0.00    -0.433 OA
ATOM     27  C   UNL     1      48.427  20.091  18.811  0.00  0.00    +0.187 C 
ENDROOT
BRANCH  11  10
ATOM      1  C   UNL     1      46.250  20.749  21.198  0.00  0.00    +0.036 A 
ATOM      2  C   UNL     1      45.529  21.651  21.951  0.00  0.00    +0.006 A 
ATOM      3  C   UNL     1      44.752  22.617  21.327  0.00  0.00    +0.084 A 
ATOM      6  C   UNL     1      44.695  22.680  19.935  0.00  0.00    +0.082 A 
ATOM      9  C   UNL     1      45.413  21.780  19.173  0.00  0.00    +0.032 A 
ATOM     10  C   UNL     1      46.198  20.806  19.801  0.00  0.00    -0.035 A 
BRANCH   3   4
ATOM      4  O   UNL     1      44.045  23.503  22.076  0.00  0.00    -0.488 OA
ATOM      5  H   UNL     1      43.369  23.986  21.580  0.00  0.00    +0.388 HD
ENDBRANCH   3   4
BRANCH   6   7
ATOM      7  O   UNL     1      43.930  23.627  19.329  0.00  0.00    -0.486 OA
ATOM      8  H   UNL     1      43.179  23.925  19.860  0.00  0.00    +0.387 HD
ENDBRANCH   6   7
ENDBRANCH  11  10
BRANCH  12  13
ATOM     13  O   UNL     1      44.970  18.661  18.654  0.00  0.00    -0.454 OA
ATOM     14  H   UNL     1      44.547  18.038  18.047  0.00  0.00    +0.404 HD
ENDBRANCH  12  13
BRANCH  19  20
ATOM     20  O   UNL     1      52.616  17.718  18.186  0.00  0.00    -0.494 OA
ATOM     21  H   UNL     1      52.954  18.360  18.825  0.00  0.00    +0.402 HD
ENDBRANCH  19  20
BRANCH  23  24
ATOM     24  O   UNL     1      48.595  15.606  16.791  0.00  0.00    -0.482 OA
ATOM     25  H   UNL     1      48.759  15.500  15.844  0.00  0.00    +0.404 HD
ENDBRANCH  23  24
TORSDOF 6
ENDMDL
MODEL 8
REMARK VINA RESULT:      -5.8      1.857      6.885
REMARK  Name = ZINC95486352
REMARK  6 active torsions:
REMARK  status: ('A' for Active; 'I' for Inactive)
REMARK    1  A    between atoms: C3_3  and  O6_22
REMARK    2  A    between atoms: C4_4  and  O5_21
REMARK    3  A    between atoms: C6_6  and  C7_7
REMARK    4  A    between atoms: C8_8  and  O4_20
REMARK    5  A    between atoms: C13_14  and  O3_18
REMARK    6  A    between atoms: C15_16  and  O2_17
REMARK                            x       y       z     vdW  Elec       q    Type
REMARK                         _______ _______ _______ _____ _____    ______ ____
ROOT
ATOM     11  C   UNL     1      44.214  19.746  19.869  0.00  0.00    -0.088 C 
ATOM     12  C   UNL     1      44.796  20.106  21.030  0.00  0.00    +0.043 C 
ATOM     15  C   UNL     1      46.133  19.594  21.365  0.00  0.00    +0.413 C 
ATOM     16  C   UNL     1      46.940  19.012  20.275  0.00  0.00    -0.204 A 
ATOM     17  C   UNL     1      46.318  18.652  19.076  0.00  0.00    +0.003 A 
ATOM     18  C   UNL     1      47.072  18.126  18.062  0.00  0.00    -0.024 A 
ATOM     19  C   UNL     1      48.442  17.942  18.218  0.00  0.00    +0.169 A 
ATOM     22  C   UNL     1      49.066  18.288  19.408  0.00  0.00    -0.045 A 
ATOM     23  C   UNL     1      48.319  18.824  20.443  0.00  0.00    +0.195 A 
ATOM     26  O   UNL     1      46.559  19.647  22.505  0.00  0.00    -0.433 OA
ATOM     27  C   UNL     1      44.836  18.813  18.883  0.00  0.00    +0.187 C 
ENDROOT
BRANCH  11  10
ATOM      1  C   UNL     1      41.734  19.585  19.896  0.00  0.00    +0.036 A 
ATOM      2  C   UNL     1      40.491  20.106  19.604  0.00  0.00    +0.006 A 
ATOM      3  C   UNL     1      40.383  21.340  18.977  0.00  0.00    +0.084 A 
ATOM      6  C   UNL     1      41.529  22.059  18.639  0.00  0.00    +0.082 A 
ATOM      9  C   UNL     1      42.777  21.543  18.927  0.00  0.00    +0.032 A 
ATOM     10  C   UNL     1      42.889  20.299  19.559  0.00  0.00    -0.035 A 
BRANCH   3   4
ATOM      4  O   UNL     1      39.155  21.849  18.694  0.00  0.00    -0.488 OA
ATOM      5  H   UNL     1      39.095  22.809  18.789  0.00  0.00    +0.388 HD
ENDBRANCH   3   4
BRANCH   6   7
ATOM      7  O   UNL     1      41.416  23.266  18.024  0.00  0.00    -0.486 OA
ATOM      8  H   UNL     1      42.215  23.544  17.555  0.00  0.00    +0.387 HD
ENDBRANCH   6   7
ENDBRANCH  11  10
BRANCH  12  13
ATOM     13  O   UNL     1      44.151  20.941  21.887  0.00  0.00    -0.454 OA
ATOM     14  H   UNL     1      44.533  20.965  22.775  0.00  0.00    +0.404 HD
ENDBRANCH  12  13
BRANCH  19  20
ATOM     20  O   UNL     1      49.172  17.420  17.201  0.00  0.00    -0.494 OA
ATOM     21  H   UNL     1      50.033  17.843  17.078  0.00  0.00    +0.402 HD
ENDBRANCH  19  20
BRANCH  23  24
ATOM     24  O   UNL     1      48.917  19.165  21.612  0.00  0.00    -0.482 OA
ATOM     25  H   UNL     1      48.496  19.907  22.067  0.00  0.00    +0.404 HD
ENDBRANCH  23  24
TORSDOF 6
ENDMDL
MODEL 9
REMARK VINA RESULT:      -5.8      2.788      6.443
REMARK  Name = ZINC95486352
REMARK  6 active torsions:
REMARK  status: ('A' for Active; 'I' for Inactive)
REMARK    1  A    between atoms: C3_3  and  O6_22
REMARK    2  A    between atoms: C4_4  and  O5_21
REMARK    3  A    between atoms: C6_6  and  C7_7
REMARK    4  A    between atoms: C8_8  and  O4_20
REMARK    5  A    between atoms: C13_14  and  O3_18
REMARK    6  A    between atoms: C15_16  and  O2_17
REMARK                            x       y       z     vdW  Elec       q    Type
REMARK                         _______ _______ _______ _____ _____    ______ ____
ROOT
ATOM     11  C   UNL     1      45.433  18.324  19.610  0.00  0.00    -0.088 C 
ATOM     12  C   UNL     1      45.728  17.830  18.392  0.00  0.00    +0.043 C 
ATOM     15  C   UNL     1      46.065  16.406  18.245  0.00  0.00    +0.413 C 
ATOM     16  C   UNL     1      45.711  15.498  19.353  0.00  0.00    -0.204 A 
ATOM     17  C   UNL     1      45.402  16.032  20.607  0.00  0.00    +0.003 A 
ATOM     18  C   UNL     1      45.060  15.187  21.629  0.00  0.00    -0.024 A 
ATOM     19  C   UNL     1      45.028  13.811  21.431  0.00  0.00    +0.169 A 
ATOM     22  C   UNL     1      45.343  13.271  20.192  0.00  0.00    -0.045 A 
ATOM     23  C   UNL     1      45.687  14.111  19.147  0.00  0.00    +0.195 A 
ATOM     26  O   UNL     1      46.617  15.990  17.242  0.00  0.00    -0.433 OA
ATOM     27  C   UNL     1      45.452  17.512  20.863  0.00  0.00    +0.187 C 
ENDROOT
BRANCH  11  10
ATOM      1  C   UNL     1      46.064  20.697  19.996  0.00  0.00    +0.036 A 
ATOM      2  C   UNL     1      45.727  22.031  20.091  0.00  0.00    +0.006 A 
ATOM      3  C   UNL     1      44.412  22.434  19.903  0.00  0.00    +0.084 A 
ATOM      6  C   UNL     1      43.424  21.492  19.619  0.00  0.00    +0.082 A 
ATOM      9  C   UNL     1      43.752  20.154  19.523  0.00  0.00    +0.032 A 
ATOM     10  C   UNL     1      45.078  19.746  19.712  0.00  0.00    -0.035 A 
BRANCH   3   4
ATOM      4  O   UNL     1      44.088  23.750  19.996  0.00  0.00    -0.488 OA
ATOM      5  H   UNL     1      43.167  23.945  19.777  0.00  0.00    +0.388 HD
ENDBRANCH   3   4
BRANCH   6   7
ATOM      7  O   UNL     1      42.137  21.892  19.437  0.00  0.00    -0.486 OA
ATOM      8  H   UNL     1      41.788  22.434  20.158  0.00  0.00    +0.387 HD
ENDBRANCH   6   7
ENDBRANCH  11  10
BRANCH  12  13
ATOM     13  O   UNL     1      45.713  18.643  17.303  0.00  0.00    -0.454 OA
ATOM     14  H   UNL     1      46.151  19.494  17.441  0.00  0.00    +0.404 HD
ENDBRANCH  12  13
BRANCH  19  20
ATOM     20  O   UNL     1      44.686  12.990  22.457  0.00  0.00    -0.494 OA
ATOM     21  H   UNL     1      44.581  12.063  22.200  0.00  0.00    +0.402 HD
ENDBRANCH  19  20
BRANCH  23  24
ATOM     24  O   UNL     1      45.999  13.597  17.931  0.00  0.00    -0.482 OA
ATOM     25  H   UNL     1      45.298  13.691  17.273  0.00  0.00    +0.404 HD
ENDBRANCH  23  24
TORSDOF 6
ENDMDL
