MODEL 1
REMARK VINA RESULT:      -4.8      0.000      0.000
REMARK  Name = ZINC00001504
REMARK  4 active torsions:
REMARK  status: ('A' for Active; 'I' for Inactive)
REMARK    1  A    between atoms: C2_2  and  C7_10
REMARK    2  A    between atoms: C4_4  and  O3_9
REMARK    3  A    between atoms: C5_5  and  O2_8
REMARK    4  A    between atoms: C6_6  and  O1_7
REMARK                            x       y       z     vdW  Elec       q    Type
REMARK                         _______ _______ _______ _____ _____    ______ ____
ROOT
ATOM      1  C   UNL     1      43.124  20.829  19.948  0.00  0.00    +0.041 A 
ATOM      2  C   UNL     1      42.011  19.992  20.088  0.00  0.00    -0.109 A 
ATOM      6  C   UNL     1      40.787  20.361  19.519  0.00  0.00    +0.040 A 
ATOM      7  C   UNL     1      40.680  21.548  18.822  0.00  0.00    +0.073 A 
ATOM     10  C   UNL     1      41.790  22.379  18.684  0.00  0.00    +0.042 A 
ATOM     13  C   UNL     1      43.010  22.016  19.250  0.00  0.00    +0.074 A 
ENDROOT
BRANCH   2   3
ATOM      3  C   UNL     1      42.129  18.726  20.830  0.00  0.00    +0.521 C 
ATOM      4  O   UNL     1      43.225  18.208  20.989  0.00  0.00    -0.681 OA
ATOM      5  O   UNL     1      41.128  18.191  21.288  0.00  0.00    -0.681 OA
ENDBRANCH   2   3
BRANCH   7   8
ATOM      8  O   UNL     1      39.491  21.906  18.269  0.00  0.00    -0.488 OA
ATOM      9  H   UNL     1      39.574  22.391  17.437  0.00  0.00    +0.380 HD
ENDBRANCH   7   8
BRANCH  10  11
ATOM     11  O   UNL     1      41.682  23.546  17.998  0.00  0.00    -0.485 OA
ATOM     12  H   UNL     1      41.428  23.435  17.071  0.00  0.00    +0.379 HD
ENDBRANCH  10  11
BRANCH  13  14
ATOM     14  O   UNL     1      44.091  22.830  19.115  0.00  0.00    -0.494 OA
ATOM     15  H   UNL     1      44.755  22.722  19.809  0.00  0.00    +0.386 HD
ENDBRANCH  13  14
TORSDOF 4
ENDMDL
MODEL 2
REMARK VINA RESULT:      -4.8      0.054      2.547
REMARK  Name = ZINC00001504
REMARK  4 active torsions:
REMARK  status: ('A' for Active; 'I' for Inactive)
REMARK    1  A    between atoms: C2_2  and  C7_10
REMARK    2  A    between atoms: C4_4  and  O3_9
REMARK    3  A    between atoms: C5_5  and  O2_8
REMARK    4  A    between atoms: C6_6  and  O1_7
REMARK                            x       y       z     vdW  Elec       q    Type
REMARK                         _______ _______ _______ _____ _____    ______ ____
ROOT
ATOM      1  C   UNL     1      40.780  20.402  19.503  0.00  0.00    +0.041 A 
ATOM      2  C   UNL     1      41.991  20.011  20.085  0.00  0.00    -0.109 A 
ATOM      6  C   UNL     1      43.120  20.827  19.956  0.00  0.00    +0.040 A 
ATOM      7  C   UNL     1      43.036  22.015  19.256  0.00  0.00    +0.073 A 
ATOM     10  C   UNL     1      41.829  22.402  18.679  0.00  0.00    +0.042 A 
ATOM     13  C   UNL     1      40.703  21.591  18.804  0.00  0.00    +0.074 A 
ENDROOT
BRANCH   2   3
ATOM      3  C   UNL     1      42.077  18.745  20.832  0.00  0.00    +0.521 C 
ATOM      4  O   UNL     1      41.065  18.236  21.293  0.00  0.00    -0.681 OA
ATOM      5  O   UNL     1      43.163  18.203  20.992  0.00  0.00    -0.681 OA
ENDBRANCH   2   3
BRANCH   7   8
ATOM      8  O   UNL     1      44.134  22.808  19.131  0.00  0.00    -0.488 OA
ATOM      9  H   UNL     1      43.950  23.752  19.231  0.00  0.00    +0.380 HD
ENDBRANCH   7   8
BRANCH  10  11
ATOM     11  O   UNL     1      41.750  23.570  17.991  0.00  0.00    -0.485 OA
ATOM     12  H   UNL     1      40.846  23.830  17.761  0.00  0.00    +0.379 HD
ENDBRANCH  10  11
BRANCH  13  14
ATOM     14  O   UNL     1      39.526  21.970  18.238  0.00  0.00    -0.494 OA
ATOM     15  H   UNL     1      39.577  22.116  17.284  0.00  0.00    +0.386 HD
ENDBRANCH  13  14
TORSDOF 4
ENDMDL
MODEL 3
REMARK VINA RESULT:      -4.6     20.818     22.266
REMARK  Name = ZINC00001504
REMARK  4 active torsions:
REMARK  status: ('A' for Active; 'I' for Inactive)
REMARK    1  A    between atoms: C2_2  and  C7_10
REMARK    2  A    between atoms: C4_4  and  O3_9
REMARK    3  A    between atoms: C5_5  and  O2_8
REMARK    4  A    between atoms: C6_6  and  O1_7
REMARK                            x       y       z     vdW  Elec       q    Type
REMARK                         _______ _______ _______ _____ _____    ______ ____
ROOT
ATOM      1  C   UNL     1      52.187  32.749   4.932  0.00  0.00    +0.041 A 
ATOM      2  C   UNL     1      53.521  32.635   4.522  0.00  0.00    -0.109 A 
ATOM      6  C   UNL     1      54.528  33.286   5.242  0.00  0.00    +0.040 A 
ATOM      7  C   UNL     1      54.204  34.038   6.355  0.00  0.00    +0.073 A 
ATOM     10  C   UNL     1      52.876  34.149   6.761  0.00  0.00    +0.042 A 
ATOM     13  C   UNL     1      51.870  33.502   6.045  0.00  0.00    +0.074 A 
ENDROOT
BRANCH   2   3
ATOM      3  C   UNL     1      53.863  31.831   3.337  0.00  0.00    +0.521 C 
ATOM      4  O   UNL     1      54.973  31.328   3.238  0.00  0.00    -0.681 OA
ATOM      5  O   UNL     1      53.036  31.668   2.450  0.00  0.00    -0.681 OA
ENDBRANCH   2   3
BRANCH   7   8
ATOM      8  O   UNL     1      55.183  34.671   7.055  0.00  0.00    -0.488 OA
ATOM      9  H   UNL     1      55.924  34.100   7.298  0.00  0.00    +0.380 HD
ENDBRANCH   7   8
BRANCH  10  11
ATOM     11  O   UNL     1      52.561  34.889   7.855  0.00  0.00    -0.485 OA
ATOM     12  H   UNL     1      53.038  34.629   8.656  0.00  0.00    +0.379 HD
ENDBRANCH  10  11
BRANCH  13  14
ATOM     14  O   UNL     1      50.575  33.613   6.443  0.00  0.00    -0.494 OA
ATOM     15  H   UNL     1      50.186  32.785   6.756  0.00  0.00    +0.386 HD
ENDBRANCH  13  14
TORSDOF 4
ENDMDL
MODEL 4
REMARK VINA RESULT:      -4.6     20.817     22.153
REMARK  Name = ZINC00001504
REMARK  4 active torsions:
REMARK  status: ('A' for Active; 'I' for Inactive)
REMARK    1  A    between atoms: C2_2  and  C7_10
REMARK    2  A    between atoms: C4_4  and  O3_9
REMARK    3  A    between atoms: C5_5  and  O2_8
REMARK    4  A    between atoms: C6_6  and  O1_7
REMARK                            x       y       z     vdW  Elec       q    Type
REMARK                         _______ _______ _______ _____ _____    ______ ____
ROOT
ATOM      1  C   UNL     1      54.535  33.291   5.249  0.00  0.00    +0.041 A 
ATOM      2  C   UNL     1      53.528  32.638   4.529  0.00  0.00    -0.109 A 
ATOM      6  C   UNL     1      52.195  32.750   4.940  0.00  0.00    +0.040 A 
ATOM      7  C   UNL     1      51.878  33.504   6.053  0.00  0.00    +0.073 A 
ATOM     10  C   UNL     1      52.883  34.154   6.766  0.00  0.00    +0.042 A 
ATOM     13  C   UNL     1      54.211  34.044   6.360  0.00  0.00    +0.074 A 
ENDROOT
BRANCH   2   3
ATOM      3  C   UNL     1      53.869  31.836   3.343  0.00  0.00    +0.521 C 
ATOM      4  O   UNL     1      53.053  31.695   2.443  0.00  0.00    -0.681 OA
ATOM      5  O   UNL     1      54.971  31.308   3.258  0.00  0.00    -0.681 OA
ENDBRANCH   2   3
BRANCH   7   8
ATOM      8  O   UNL     1      50.582  33.614   6.452  0.00  0.00    -0.488 OA
ATOM      9  H   UNL     1      50.312  34.517   6.668  0.00  0.00    +0.380 HD
ENDBRANCH   7   8
BRANCH  10  11
ATOM     11  O   UNL     1      52.567  34.895   7.860  0.00  0.00    -0.485 OA
ATOM     12  H   UNL     1      52.119  35.728   7.654  0.00  0.00    +0.379 HD
ENDBRANCH  10  11
BRANCH  13  14
ATOM     14  O   UNL     1      55.190  34.678   7.060  0.00  0.00    -0.494 OA
ATOM     15  H   UNL     1      55.435  34.235   7.883  0.00  0.00    +0.386 HD
ENDBRANCH  13  14
TORSDOF 4
ENDMDL
MODEL 5
REMARK VINA RESULT:      -4.4     19.991     22.006
REMARK  Name = ZINC00001504
REMARK  4 active torsions:
REMARK  status: ('A' for Active; 'I' for Inactive)
REMARK    1  A    between atoms: C2_2  and  C7_10
REMARK    2  A    between atoms: C4_4  and  O3_9
REMARK    3  A    between atoms: C5_5  and  O2_8
REMARK    4  A    between atoms: C6_6  and  O1_7
REMARK                            x       y       z     vdW  Elec       q    Type
REMARK                         _______ _______ _______ _____ _____    ______ ____
ROOT
ATOM      1  C   UNL     1      42.310  31.964  -0.567  0.00  0.00    +0.041 A 
ATOM      2  C   UNL     1      42.597  30.599  -0.460  0.00  0.00    -0.109 A 
ATOM      6  C   UNL     1      42.492  29.961   0.780  0.00  0.00    +0.040 A 
ATOM      7  C   UNL     1      42.105  30.679   1.895  0.00  0.00    +0.073 A 
ATOM     10  C   UNL     1      41.820  32.038   1.786  0.00  0.00    +0.042 A 
ATOM     13  C   UNL     1      41.924  32.677   0.552  0.00  0.00    +0.074 A 
ENDROOT
BRANCH   2   3
ATOM      3  C   UNL     1      43.007  29.836  -1.651  0.00  0.00    +0.521 C 
ATOM      4  O   UNL     1      43.797  30.322  -2.448  0.00  0.00    -0.681 OA
ATOM      5  O   UNL     1      42.556  28.714  -1.843  0.00  0.00    -0.681 OA
ENDBRANCH   2   3
BRANCH   7   8
ATOM      8  O   UNL     1      42.003  30.058   3.101  0.00  0.00    -0.488 OA
ATOM      9  H   UNL     1      42.234  30.620   3.853  0.00  0.00    +0.380 HD
ENDBRANCH   7   8
BRANCH  10  11
ATOM     11  O   UNL     1      41.440  32.741   2.883  0.00  0.00    -0.485 OA
ATOM     12  H   UNL     1      41.321  33.688   2.722  0.00  0.00    +0.379 HD
ENDBRANCH  10  11
BRANCH  13  14
ATOM     14  O   UNL     1      41.646  34.004   0.449  0.00  0.00    -0.494 OA
ATOM     15  H   UNL     1      40.947  34.212  -0.187  0.00  0.00    +0.386 HD
ENDBRANCH  13  14
TORSDOF 4
ENDMDL
MODEL 6
REMARK VINA RESULT:      -4.4     19.995     22.023
REMARK  Name = ZINC00001504
REMARK  4 active torsions:
REMARK  status: ('A' for Active; 'I' for Inactive)
REMARK    1  A    between atoms: C2_2  and  C7_10
REMARK    2  A    between atoms: C4_4  and  O3_9
REMARK    3  A    between atoms: C5_5  and  O2_8
REMARK    4  A    between atoms: C6_6  and  O1_7
REMARK                            x       y       z     vdW  Elec       q    Type
REMARK                         _______ _______ _______ _____ _____    ______ ____
ROOT
ATOM      1  C   UNL     1      42.510  29.993   0.784  0.00  0.00    +0.041 A 
ATOM      2  C   UNL     1      42.615  30.643  -0.451  0.00  0.00    -0.109 A 
ATOM      6  C   UNL     1      42.309  32.005  -0.549  0.00  0.00    +0.040 A 
ATOM      7  C   UNL     1      41.907  32.704   0.572  0.00  0.00    +0.073 A 
ATOM     10  C   UNL     1      41.804  32.055   1.800  0.00  0.00    +0.042 A 
ATOM     13  C   UNL     1      42.106  30.698   1.901  0.00  0.00    +0.074 A 
ENDROOT
BRANCH   2   3
ATOM      3  C   UNL     1      43.046  29.896  -1.644  0.00  0.00    +0.521 C 
ATOM      4  O   UNL     1      42.560  28.800  -1.889  0.00  0.00    -0.681 OA
ATOM      5  O   UNL     1      43.892  30.371  -2.391  0.00  0.00    -0.681 OA
ENDBRANCH   2   3
BRANCH   7   8
ATOM      8  O   UNL     1      41.610  34.028   0.477  0.00  0.00    -0.488 OA
ATOM      9  H   UNL     1      42.105  34.493  -0.211  0.00  0.00    +0.380 HD
ENDBRANCH   7   8
BRANCH  10  11
ATOM     11  O   UNL     1      41.408  32.745   2.901  0.00  0.00    -0.485 OA
ATOM     12  H   UNL     1      41.177  32.183   3.655  0.00  0.00    +0.379 HD
ENDBRANCH  10  11
BRANCH  13  14
ATOM     14  O   UNL     1      42.004  30.067   3.101  0.00  0.00    -0.494 OA
ATOM     15  H   UNL     1      42.358  29.167   3.104  0.00  0.00    +0.386 HD
ENDBRANCH  13  14
TORSDOF 4
ENDMDL
MODEL 7
REMARK VINA RESULT:      -4.4      1.547      4.318
REMARK  Name = ZINC00001504
REMARK  4 active torsions:
REMARK  status: ('A' for Active; 'I' for Inactive)
REMARK    1  A    between atoms: C2_2  and  C7_10
REMARK    2  A    between atoms: C4_4  and  O3_9
REMARK    3  A    between atoms: C5_5  and  O2_8
REMARK    4  A    between atoms: C6_6  and  O1_7
REMARK                            x       y       z     vdW  Elec       q    Type
REMARK                         _______ _______ _______ _____ _____    ______ ____
ROOT
ATOM      1  C   UNL     1      42.316  22.939  18.979  0.00  0.00    +0.041 A 
ATOM      2  C   UNL     1      43.583  22.611  19.473  0.00  0.00    -0.109 A 
ATOM      6  C   UNL     1      43.915  21.272  19.704  0.00  0.00    +0.040 A 
ATOM      7  C   UNL     1      42.993  20.278  19.442  0.00  0.00    +0.073 A 
ATOM     10  C   UNL     1      41.732  20.607  18.949  0.00  0.00    +0.042 A 
ATOM     13  C   UNL     1      41.398  21.940  18.719  0.00  0.00    +0.074 A 
ENDROOT
BRANCH   2   3
ATOM      3  C   UNL     1      44.565  23.673  19.750  0.00  0.00    +0.521 C 
ATOM      4  O   UNL     1      44.656  24.633  18.998  0.00  0.00    -0.681 OA
ATOM      5  O   UNL     1      45.291  23.593  20.732  0.00  0.00    -0.681 OA
ENDBRANCH   2   3
BRANCH   7   8
ATOM      8  O   UNL     1      43.315  18.976  19.665  0.00  0.00    -0.488 OA
ATOM      9  H   UNL     1      42.862  18.583  20.424  0.00  0.00    +0.380 HD
ENDBRANCH   7   8
BRANCH  10  11
ATOM     11  O   UNL     1      40.827  19.628  18.692  0.00  0.00    -0.485 OA
ATOM     12  H   UNL     1      41.225  18.773  18.474  0.00  0.00    +0.379 HD
ENDBRANCH  10  11
BRANCH  13  14
ATOM     14  O   UNL     1      40.166  22.259  18.238  0.00  0.00    -0.494 OA
ATOM     15  H   UNL     1      39.673  21.504  17.889  0.00  0.00    +0.386 HD
ENDBRANCH  13  14
TORSDOF 4
ENDMDL
MODEL 8
REMARK VINA RESULT:      -4.3      1.715      3.502
REMARK  Name = ZINC00001504
REMARK  4 active torsions:
REMARK  status: ('A' for Active; 'I' for Inactive)
REMARK    1  A    between atoms: C2_2  and  C7_10
REMARK    2  A    between atoms: C4_4  and  O3_9
REMARK    3  A    between atoms: C5_5  and  O2_8
REMARK    4  A    between atoms: C6_6  and  O1_7
REMARK                            x       y       z     vdW  Elec       q    Type
REMARK                         _______ _______ _______ _____ _____    ______ ____
ROOT
ATOM      1  C   UNL     1      41.891  22.553  18.754  0.00  0.00    +0.041 A 
ATOM      2  C   UNL     1      41.522  21.208  18.867  0.00  0.00    -0.109 A 
ATOM      6  C   UNL     1      42.389  20.297  19.480  0.00  0.00    +0.040 A 
ATOM      7  C   UNL     1      43.606  20.728  19.972  0.00  0.00    +0.073 A 
ATOM     10  C   UNL     1      43.971  22.068  19.859  0.00  0.00    +0.042 A 
ATOM     13  C   UNL     1      43.110  22.977  19.248  0.00  0.00    +0.074 A 
ENDROOT
BRANCH   2   3
ATOM      3  C   UNL     1      40.224  20.752  18.344  0.00  0.00    +0.521 C 
ATOM      4  O   UNL     1      39.210  21.395  18.577  0.00  0.00    -0.681 OA
ATOM      5  O   UNL     1      40.159  19.729  17.675  0.00  0.00    -0.681 OA
ENDBRANCH   2   3
BRANCH   7   8
ATOM      8  O   UNL     1      44.449  19.843  20.569  0.00  0.00    -0.488 OA
ATOM      9  H   UNL     1      45.172  19.545  20.000  0.00  0.00    +0.380 HD
ENDBRANCH   7   8
BRANCH  10  11
ATOM     11  O   UNL     1      45.168  22.488  20.344  0.00  0.00    -0.485 OA
ATOM     12  H   UNL     1      45.526  21.927  21.046  0.00  0.00    +0.379 HD
ENDBRANCH  10  11
BRANCH  13  14
ATOM     14  O   UNL     1      43.469  24.284  19.138  0.00  0.00    -0.494 OA
ATOM     15  H   UNL     1      44.003  24.481  18.356  0.00  0.00    +0.386 HD
ENDBRANCH  13  14
TORSDOF 4
ENDMDL
MODEL 9
REMARK VINA RESULT:      -4.3      1.432      4.353
REMARK  Name = ZINC00001504
REMARK  4 active torsions:
REMARK  status: ('A' for Active; 'I' for Inactive)
REMARK    1  A    between atoms: C2_2  and  C7_10
REMARK    2  A    between atoms: C4_4  and  O3_9
REMARK    3  A    between atoms: C5_5  and  O2_8
REMARK    4  A    between atoms: C6_6  and  O1_7
REMARK                            x       y       z     vdW  Elec       q    Type
REMARK                         _______ _______ _______ _____ _____    ______ ____
ROOT
ATOM      1  C   UNL     1      41.413  19.207  20.295  0.00  0.00    +0.041 A 
ATOM      2  C   UNL     1      41.642  20.215  19.352  0.00  0.00    -0.109 A 
ATOM      6  C   UNL     1      42.856  20.911  19.358  0.00  0.00    +0.040 A 
ATOM      7  C   UNL     1      43.823  20.602  20.294  0.00  0.00    +0.073 A 
ATOM     10  C   UNL     1      43.593  19.598  21.232  0.00  0.00    +0.042 A 
ATOM     13  C   UNL     1      42.385  18.903  21.229  0.00  0.00    +0.074 A 
ENDROOT
BRANCH   2   3
ATOM      3  C   UNL     1      40.610  20.541  18.354  0.00  0.00    +0.521 C 
ATOM      4  O   UNL     1      40.216  19.683  17.577  0.00  0.00    -0.681 OA
ATOM      5  O   UNL     1      40.146  21.673  18.302  0.00  0.00    -0.681 OA
ENDBRANCH   2   3
BRANCH   7   8
ATOM      8  O   UNL     1      45.003  21.278  20.300  0.00  0.00    -0.488 OA
ATOM      9  H   UNL     1      45.252  21.627  21.167  0.00  0.00    +0.380 HD
ENDBRANCH   7   8
BRANCH  10  11
ATOM     11  O   UNL     1      44.546  19.296  22.151  0.00  0.00    -0.485 OA
ATOM     12  H   UNL     1      44.802  18.363  22.159  0.00  0.00    +0.379 HD
ENDBRANCH  10  11
BRANCH  13  14
ATOM     14  O   UNL     1      42.162  17.924  22.146  0.00  0.00    -0.494 OA
ATOM     15  H   UNL     1      41.288  17.515  22.081  0.00  0.00    +0.386 HD
ENDBRANCH  13  14
TORSDOF 4
ENDMDL
