MODEL 1
REMARK VINA RESULT:      -3.9      0.000      0.000
REMARK  Name = ZINC95486369
REMARK  44 active torsions:
REMARK  status: ('A' for Active; 'I' for Inactive)
REMARK    1  A    between atoms: C1_1  and  C2_2
REMARK    2  A    between atoms: C2_2  and  C3_3
REMARK    3  A    between atoms: C3_3  and  C4_4
REMARK    4  A    between atoms: C4_4  and  C5_5
REMARK    5  A    between atoms: C5_5  and  C6_6
REMARK    6  A    between atoms: C6_6  and  C7_7
REMARK    7  A    between atoms: C7_7  and  C8_8
REMARK    8  A    between atoms: C8_8  and  C9_9
REMARK    9  A    between atoms: C9_9  and  C10_10
REMARK   10  A    between atoms: C10_10  and  C11_11
REMARK   11  A    between atoms: C11_11  and  C12_12
REMARK   12  A    between atoms: C12_12  and  C13_13
REMARK   13  A    between atoms: C13_13  and  C14_14
REMARK   14  A    between atoms: C14_14  and  C15_15
REMARK   15  A    between atoms: C15_15  and  C16_16
REMARK   16  A    between atoms: C16_16  and  C17_17
REMARK   17  A    between atoms: C17_17  and  C18_18
REMARK   18  A    between atoms: C18_18  and  C19_19
REMARK   19  A    between atoms: C20_20  and  C21_21
REMARK   20  A    between atoms: C21_21  and  C22_23
REMARK   21  A    between atoms: C21_21  and  O4_52
REMARK   22  A    between atoms: C22_23  and  C23_25
REMARK   23  A    between atoms: C22_23  and  N1_27
REMARK   24  A    between atoms: C23_25  and  O1_26
REMARK   25  A    between atoms: C24_28  and  C25_30
REMARK   26  A    between atoms: C25_30  and  C26_32
REMARK   27  A    between atoms: C25_30  and  O3_51
REMARK   28  A    between atoms: C27_33  and  C28_34
REMARK   29  A    between atoms: C28_34  and  C29_35
REMARK   30  A    between atoms: C29_35  and  C30_36
REMARK   31  A    between atoms: C30_36  and  C31_37
REMARK   32  A    between atoms: C31_37  and  C32_38
REMARK   33  A    between atoms: C32_38  and  C33_39
REMARK   34  A    between atoms: C33_39  and  C34_40
REMARK   35  A    between atoms: C34_40  and  C35_41
REMARK   36  A    between atoms: C35_41  and  C36_42
REMARK   37  A    between atoms: C36_42  and  C37_43
REMARK   38  A    between atoms: C37_43  and  C38_44
REMARK   39  A    between atoms: C38_44  and  C39_45
REMARK   40  A    between atoms: C39_45  and  C40_46
REMARK   41  A    between atoms: C40_46  and  C41_47
REMARK   42  A    between atoms: C41_47  and  C42_48
REMARK   43  A    between atoms: C42_48  and  C43_49
REMARK   44  A    between atoms: C43_49  and  C44_50
REMARK                            x       y       z     vdW  Elec       q    Type
REMARK                         _______ _______ _______ _____ _____    ______ ____
ROOT
ATOM     24  C   UNK A   1      50.323  12.970  13.378  0.00  0.00    +0.227 C 
ENDROOT
BRANCH  24  25
ATOM     25  N   UNK A   1      49.538  11.857  13.919  0.00  0.00    -0.709 N 
ATOM     26  H   UNK A   1      49.902  10.958  13.908  0.00  0.00    +0.399 HD
ATOM     27  C   UNK A   0      48.313  12.084  14.431  0.00  0.00    +0.495 C 
ATOM     50  O   UNK A   0      47.860  13.209  14.445  0.00  0.00    -0.532 OA
BRANCH  27  28
ATOM     28  C   UNK A   0      47.506  10.940  14.988  0.00  0.00    +0.258 C 
BRANCH  28  29
ATOM     29  O   UNK A   0      46.136  11.330  15.092  0.00  0.00    -0.533 OA
ATOM     30  H   UNK A   0      45.528  10.767  14.594  0.00  0.00    +0.384 HD
ENDBRANCH  28  29
BRANCH  28  31
ATOM     31  C   UNK A   0      48.029  10.572  16.352  0.00  0.00    -0.089 C 
ATOM     32  C   UNK A   0      47.679  11.276  17.400  0.00  0.00    -0.002 C 
BRANCH  32  33
ATOM     33  C   UNK A   0      48.202  10.909  18.765  0.00  0.00    +0.050 C 
BRANCH  33  34
ATOM     34  C   UNK A   0      49.699  11.222  18.838  0.00  0.00    +0.010 C 
BRANCH  34  35
ATOM     35  C   UNK A   0      49.906  12.555  19.561  0.00  0.00    +0.005 C 
BRANCH  35  36
ATOM     36  C   UNK A   0      50.084  13.671  18.530  0.00  0.00    +0.000 C 
BRANCH  36  37
ATOM     37  C   UNK A   0      48.960  14.697  18.690  0.00  0.00    +0.001 C 
BRANCH  37  38
ATOM     38  C   UNK A   0      48.562  15.236  17.314  0.00  0.00    -0.001 C 
BRANCH  38  39
ATOM     39  C   UNK A   0      47.041  15.165  17.159  0.00  0.00    +0.000 C 
BRANCH  39  40
ATOM     40  C   UNK A   0      46.531  16.465  16.534  0.00  0.00    -0.000 C 
BRANCH  40  41
ATOM     41  C   UNK A   0      47.242  17.655  17.179  0.00  0.00    +0.000 C 
BRANCH  41  42
ATOM     42  C   UNK A   0      46.238  18.467  17.999  0.00  0.00    -0.000 C 
BRANCH  42  43
ATOM     43  C   UNK A   0      46.836  18.784  19.371  0.00  0.00    +0.000 C 
BRANCH  43  44
ATOM     44  C   UNK A   0      46.758  17.542  20.261  0.00  0.00    +0.000 C 
BRANCH  44  45
ATOM     45  C   UNK A   0      45.292  17.195  20.526  0.00  0.00    +0.000 C 
BRANCH  45  46
ATOM     46  C   UNK A   0      45.036  15.736  20.140  0.00  0.00    -0.000 C 
BRANCH  46  47
ATOM     47  C   UNK A   0      45.792  14.816  21.102  0.00  0.00    -0.000 C 
BRANCH  47  48
ATOM     48  C   UNK A   0      46.122  13.499  20.396  0.00  0.00    -0.006 C 
ATOM     49  C   UNK A   0      45.047  13.199  19.349  0.00  0.00    +0.006 C 
ENDBRANCH  47  48
ENDBRANCH  46  47
ENDBRANCH  45  46
ENDBRANCH  44  45
ENDBRANCH  43  44
ENDBRANCH  42  43
ENDBRANCH  41  42
ENDBRANCH  40  41
ENDBRANCH  39  40
ENDBRANCH  38  39
ENDBRANCH  37  38
ENDBRANCH  36  37
ENDBRANCH  35  36
ENDBRANCH  34  35
ENDBRANCH  33  34
ENDBRANCH  32  33
ENDBRANCH  28  31
ENDBRANCH  27  28
ENDBRANCH  24  25
BRANCH  24  21
ATOM     21  C   UNK A   1      51.526  13.235  14.286  0.00  0.00    +0.253 C 
BRANCH  21  20
ATOM     19  C   UNK A   1      52.261  11.821  16.135  0.00  0.00    -0.022 C 
ATOM     20  C   UNK A   1      52.026  11.930  14.851  0.00  0.00    -0.088 C 
BRANCH  19  18
ATOM     18  C   UNK A   1      52.762  10.516  16.700  0.00  0.00    +0.044 C 
BRANCH  18  17
ATOM     17  C   UNK A   1      53.644  10.793  17.918  0.00  0.00    +0.010 C 
BRANCH  17  16
ATOM     16  C   UNK A   1      53.343  12.192  18.460  0.00  0.00    +0.001 C 
BRANCH  16  15
ATOM     15  C   UNK A   1      54.006  12.363  19.828  0.00  0.00    +0.002 C 
BRANCH  15  14
ATOM     14  C   UNK A   1      53.264  13.438  20.624  0.00  0.00    +0.000 C 
BRANCH  14  13
ATOM     13  C   UNK A   1      53.295  14.758  19.850  0.00  0.00    +0.001 C 
BRANCH  13  12
ATOM     12  C   UNK A   1      52.380  15.774  20.537  0.00  0.00    +0.000 C 
BRANCH  12  11
ATOM     11  C   UNK A   1      52.084  16.926  19.576  0.00  0.00    -0.000 C 
BRANCH  11  10
ATOM     10  C   UNK A   1      50.769  17.599  19.975  0.00  0.00    -0.000 C 
BRANCH  10   9
ATOM      9  C   UNK A   1      51.064  18.792  20.888  0.00  0.00    +0.000 C 
BRANCH   9   8
ATOM      8  C   UNK A   1      50.010  19.878  20.663  0.00  0.00    +0.000 C 
BRANCH   8   7
ATOM      7  C   UNK A   1      50.112  20.398  19.228  0.00  0.00    +0.000 C 
BRANCH   7   6
ATOM      6  C   UNK A   1      51.363  21.270  19.090  0.00  0.00    +0.000 C 
BRANCH   6   5
ATOM      5  C   UNK A   1      52.244  20.723  17.967  0.00  0.00    +0.000 C 
BRANCH   5   4
ATOM      4  C   UNK A   1      51.655  21.127  16.613  0.00  0.00    -0.000 C 
BRANCH   4   3
ATOM      3  C   UNK A   1      51.407  19.875  15.770  0.00  0.00    -0.000 C 
BRANCH   3   2
ATOM      1  C   UNK A   1      51.318  17.404  16.140  0.00  0.00    +0.006 C 
ATOM      2  C   UNK A   1      52.119  18.680  16.410  0.00  0.00    -0.006 C 
ENDBRANCH   3   2
ENDBRANCH   4   3
ENDBRANCH   5   4
ENDBRANCH   6   5
ENDBRANCH   7   6
ENDBRANCH   8   7
ENDBRANCH   9   8
ENDBRANCH  10   9
ENDBRANCH  11  10
ENDBRANCH  12  11
ENDBRANCH  13  12
ENDBRANCH  14  13
ENDBRANCH  15  14
ENDBRANCH  16  15
ENDBRANCH  17  16
ENDBRANCH  18  17
ENDBRANCH  19  18
ENDBRANCH  21  20
BRANCH  21  22
ATOM     22  O   UNK A   1      52.566  13.857  13.528  0.00  0.00    -0.528 OA
ATOM     23  H   UNK A   1      53.435  13.449  13.645  0.00  0.00    +0.368 HD
ENDBRANCH  21  22
ENDBRANCH  24  21
BRANCH  24  51
ATOM     51  C   UNK A   1      50.813  12.614  11.972  0.00  0.00    +0.172 C 
BRANCH  51  52
ATOM     52  O   UNK A   1      51.054  13.813  11.234  0.00  0.00    -0.553 OA
ATOM     53  H   UNK A   1      50.689  13.803  10.338  0.00  0.00    +0.376 HD
ENDBRANCH  51  52
ENDBRANCH  24  51
TORSDOF 42
ENDMDL
MODEL 2
REMARK VINA RESULT:      -3.8      1.546      2.271
REMARK  Name = ZINC95486369
REMARK  44 active torsions:
REMARK  status: ('A' for Active; 'I' for Inactive)
REMARK    1  A    between atoms: C1_1  and  C2_2
REMARK    2  A    between atoms: C2_2  and  C3_3
REMARK    3  A    between atoms: C3_3  and  C4_4
REMARK    4  A    between atoms: C4_4  and  C5_5
REMARK    5  A    between atoms: C5_5  and  C6_6
REMARK    6  A    between atoms: C6_6  and  C7_7
REMARK    7  A    between atoms: C7_7  and  C8_8
REMARK    8  A    between atoms: C8_8  and  C9_9
REMARK    9  A    between atoms: C9_9  and  C10_10
REMARK   10  A    between atoms: C10_10  and  C11_11
REMARK   11  A    between atoms: C11_11  and  C12_12
REMARK   12  A    between atoms: C12_12  and  C13_13
REMARK   13  A    between atoms: C13_13  and  C14_14
REMARK   14  A    between atoms: C14_14  and  C15_15
REMARK   15  A    between atoms: C15_15  and  C16_16
REMARK   16  A    between atoms: C16_16  and  C17_17
REMARK   17  A    between atoms: C17_17  and  C18_18
REMARK   18  A    between atoms: C18_18  and  C19_19
REMARK   19  A    between atoms: C20_20  and  C21_21
REMARK   20  A    between atoms: C21_21  and  C22_23
REMARK   21  A    between atoms: C21_21  and  O4_52
REMARK   22  A    between atoms: C22_23  and  C23_25
REMARK   23  A    between atoms: C22_23  and  N1_27
REMARK   24  A    between atoms: C23_25  and  O1_26
REMARK   25  A    between atoms: C24_28  and  C25_30
REMARK   26  A    between atoms: C25_30  and  C26_32
REMARK   27  A    between atoms: C25_30  and  O3_51
REMARK   28  A    between atoms: C27_33  and  C28_34
REMARK   29  A    between atoms: C28_34  and  C29_35
REMARK   30  A    between atoms: C29_35  and  C30_36
REMARK   31  A    between atoms: C30_36  and  C31_37
REMARK   32  A    between atoms: C31_37  and  C32_38
REMARK   33  A    between atoms: C32_38  and  C33_39
REMARK   34  A    between atoms: C33_39  and  C34_40
REMARK   35  A    between atoms: C34_40  and  C35_41
REMARK   36  A    between atoms: C35_41  and  C36_42
REMARK   37  A    between atoms: C36_42  and  C37_43
REMARK   38  A    between atoms: C37_43  and  C38_44
REMARK   39  A    between atoms: C38_44  and  C39_45
REMARK   40  A    between atoms: C39_45  and  C40_46
REMARK   41  A    between atoms: C40_46  and  C41_47
REMARK   42  A    between atoms: C41_47  and  C42_48
REMARK   43  A    between atoms: C42_48  and  C43_49
REMARK   44  A    between atoms: C43_49  and  C44_50
REMARK                            x       y       z     vdW  Elec       q    Type
REMARK                         _______ _______ _______ _____ _____    ______ ____
ROOT
ATOM     24  C   UNK A   1      50.239  13.065  13.350  0.00  0.00    +0.227 C 
ENDROOT
BRANCH  24  25
ATOM     25  N   UNK A   1      49.465  11.952  13.905  0.00  0.00    -0.709 N 
ATOM     26  H   UNK A   1      49.821  11.051  13.872  0.00  0.00    +0.399 HD
ATOM     27  C   UNK A   0      48.259  12.182  14.460  0.00  0.00    +0.495 C 
ATOM     50  O   UNK A   0      47.815  13.310  14.501  0.00  0.00    -0.532 OA
BRANCH  27  28
ATOM     28  C   UNK A   0      47.462  11.037  15.031  0.00  0.00    +0.258 C 
BRANCH  28  29
ATOM     29  O   UNK A   0      46.172  11.002  14.417  0.00  0.00    -0.533 OA
ATOM     30  H   UNK A   0      46.196  10.977  13.451  0.00  0.00    +0.384 HD
ENDBRANCH  28  29
BRANCH  28  31
ATOM     31  C   UNK A   0      47.307  11.223  16.518  0.00  0.00    -0.089 C 
ATOM     32  C   UNK A   0      48.356  11.153  17.300  0.00  0.00    -0.002 C 
BRANCH  32  33
ATOM     33  C   UNK A   0      48.202  11.338  18.787  0.00  0.00    +0.050 C 
BRANCH  33  34
ATOM     34  C   UNK A   0      49.573  11.237  19.458  0.00  0.00    +0.010 C 
BRANCH  34  35
ATOM     35  C   UNK A   0      49.872  12.538  20.206  0.00  0.00    +0.005 C 
BRANCH  35  36
ATOM     36  C   UNK A   0      48.629  13.430  20.194  0.00  0.00    +0.000 C 
BRANCH  36  37
ATOM     37  C   UNK A   0      49.020  14.845  19.765  0.00  0.00    +0.001 C 
BRANCH  37  38
ATOM     38  C   UNK A   0      49.296  14.865  18.260  0.00  0.00    -0.001 C 
BRANCH  38  39
ATOM     39  C   UNK A   0      47.981  15.067  17.503  0.00  0.00    +0.000 C 
BRANCH  39  40
ATOM     40  C   UNK A   0      47.914  16.499  16.970  0.00  0.00    -0.000 C 
BRANCH  40  41
ATOM     41  C   UNK A   0      46.601  17.147  17.413  0.00  0.00    +0.000 C 
BRANCH  41  42
ATOM     42  C   UNK A   0      45.910  16.250  18.442  0.00  0.00    -0.000 C 
BRANCH  42  43
ATOM     43  C   UNK A   0      45.810  16.989  19.778  0.00  0.00    +0.000 C 
BRANCH  43  44
ATOM     44  C   UNK A   0      44.708  18.046  19.695  0.00  0.00    +0.000 C 
BRANCH  44  45
ATOM     45  C   UNK A   0      45.282  19.413  20.073  0.00  0.00    +0.000 C 
BRANCH  45  46
ATOM     46  C   UNK A   0      44.214  20.489  19.865  0.00  0.00    -0.000 C 
BRANCH  46  47
ATOM     47  C   UNK A   0      43.197  20.003  18.830  0.00  0.00    -0.000 C 
BRANCH  47  48
ATOM     48  C   UNK A   0      41.780  20.245  19.355  0.00  0.00    -0.006 C 
ATOM     49  C   UNK A   0      40.793  20.227  18.186  0.00  0.00    +0.006 C 
ENDBRANCH  47  48
ENDBRANCH  46  47
ENDBRANCH  45  46
ENDBRANCH  44  45
ENDBRANCH  43  44
ENDBRANCH  42  43
ENDBRANCH  41  42
ENDBRANCH  40  41
ENDBRANCH  39  40
ENDBRANCH  38  39
ENDBRANCH  37  38
ENDBRANCH  36  37
ENDBRANCH  35  36
ENDBRANCH  34  35
ENDBRANCH  33  34
ENDBRANCH  32  33
ENDBRANCH  28  31
ENDBRANCH  27  28
ENDBRANCH  24  25
BRANCH  24  21
ATOM     21  C   UNK A   1      51.387  13.411  14.302  0.00  0.00    +0.253 C 
BRANCH  21  20
ATOM     19  C   UNK A   1      51.871  12.257  16.397  0.00  0.00    -0.022 C 
ATOM     20  C   UNK A   1      51.771  12.188  15.093  0.00  0.00    -0.088 C 
BRANCH  19  18
ATOM     18  C   UNK A   1      52.255  11.034  17.190  0.00  0.00    +0.044 C 
BRANCH  18  17
ATOM     17  C   UNK A   1      53.576  11.290  17.916  0.00  0.00    +0.010 C 
BRANCH  17  16
ATOM     16  C   UNK A   1      53.292  11.869  19.303  0.00  0.00    +0.001 C 
BRANCH  16  15
ATOM     15  C   UNK A   1      53.859  13.288  19.390  0.00  0.00    +0.002 C 
BRANCH  15  14
ATOM     14  C   UNK A   1      53.143  14.056  20.502  0.00  0.00    +0.000 C 
BRANCH  14  13
ATOM     13  C   UNK A   1      52.584  15.365  19.939  0.00  0.00    +0.001 C 
BRANCH  13  12
ATOM     12  C   UNK A   1      53.462  16.532  20.394  0.00  0.00    +0.000 C 
BRANCH  12  11
ATOM     11  C   UNK A   1      52.615  17.802  20.488  0.00  0.00    -0.000 C 
BRANCH  11  10
ATOM     10  C   UNK A   1      51.141  17.422  20.650  0.00  0.00    -0.000 C 
BRANCH  10   9
ATOM      9  C   UNK A   1      50.298  18.692  20.773  0.00  0.00    +0.000 C 
BRANCH   9   8
ATOM      8  C   UNK A   1      49.112  18.612  19.809  0.00  0.00    +0.000 C 
BRANCH   8   7
ATOM      7  C   UNK A   1      49.048  19.892  18.973  0.00  0.00    +0.000 C 
BRANCH   7   6
ATOM      6  C   UNK A   1      50.324  20.709  19.194  0.00  0.00    +0.000 C 
BRANCH   6   5
ATOM      5  C   UNK A   1      50.909  21.116  17.841  0.00  0.00    +0.000 C 
BRANCH   5   4
ATOM      4  C   UNK A   1      52.190  20.321  17.580  0.00  0.00    -0.000 C 
BRANCH   4   3
ATOM      3  C   UNK A   1      52.139  19.719  16.174  0.00  0.00    -0.000 C 
BRANCH   3   2
ATOM      1  C   UNK A   1      51.620  17.396  16.936  0.00  0.00    +0.006 C 
ATOM      2  C   UNK A   1      51.101  18.595  16.138  0.00  0.00    -0.006 C 
ENDBRANCH   3   2
ENDBRANCH   4   3
ENDBRANCH   5   4
ENDBRANCH   6   5
ENDBRANCH   7   6
ENDBRANCH   8   7
ENDBRANCH   9   8
ENDBRANCH  10   9
ENDBRANCH  11  10
ENDBRANCH  12  11
ENDBRANCH  13  12
ENDBRANCH  14  13
ENDBRANCH  15  14
ENDBRANCH  16  15
ENDBRANCH  17  16
ENDBRANCH  18  17
ENDBRANCH  19  18
ENDBRANCH  21  20
BRANCH  21  22
ATOM     22  O   UNK A   1      52.513  13.862  13.545  0.00  0.00    -0.528 OA
ATOM     23  H   UNK A   1      53.176  13.177  13.381  0.00  0.00    +0.368 HD
ENDBRANCH  21  22
ENDBRANCH  24  21
BRANCH  24  51
ATOM     51  C   UNK A   1      50.809  12.663  11.988  0.00  0.00    +0.172 C 
BRANCH  51  52
ATOM     52  O   UNK A   1      50.965  13.827  11.175  0.00  0.00    -0.553 OA
ATOM     53  H   UNK A   1      50.163  14.085  10.700  0.00  0.00    +0.376 HD
ENDBRANCH  51  52
ENDBRANCH  24  51
TORSDOF 42
ENDMDL
MODEL 3
REMARK VINA RESULT:      -3.7      1.937      5.363
REMARK  Name = ZINC95486369
REMARK  44 active torsions:
REMARK  status: ('A' for Active; 'I' for Inactive)
REMARK    1  A    between atoms: C1_1  and  C2_2
REMARK    2  A    between atoms: C2_2  and  C3_3
REMARK    3  A    between atoms: C3_3  and  C4_4
REMARK    4  A    between atoms: C4_4  and  C5_5
REMARK    5  A    between atoms: C5_5  and  C6_6
REMARK    6  A    between atoms: C6_6  and  C7_7
REMARK    7  A    between atoms: C7_7  and  C8_8
REMARK    8  A    between atoms: C8_8  and  C9_9
REMARK    9  A    between atoms: C9_9  and  C10_10
REMARK   10  A    between atoms: C10_10  and  C11_11
REMARK   11  A    between atoms: C11_11  and  C12_12
REMARK   12  A    between atoms: C12_12  and  C13_13
REMARK   13  A    between atoms: C13_13  and  C14_14
REMARK   14  A    between atoms: C14_14  and  C15_15
REMARK   15  A    between atoms: C15_15  and  C16_16
REMARK   16  A    between atoms: C16_16  and  C17_17
REMARK   17  A    between atoms: C17_17  and  C18_18
REMARK   18  A    between atoms: C18_18  and  C19_19
REMARK   19  A    between atoms: C20_20  and  C21_21
REMARK   20  A    between atoms: C21_21  and  C22_23
REMARK   21  A    between atoms: C21_21  and  O4_52
REMARK   22  A    between atoms: C22_23  and  C23_25
REMARK   23  A    between atoms: C22_23  and  N1_27
REMARK   24  A    between atoms: C23_25  and  O1_26
REMARK   25  A    between atoms: C24_28  and  C25_30
REMARK   26  A    between atoms: C25_30  and  C26_32
REMARK   27  A    between atoms: C25_30  and  O3_51
REMARK   28  A    between atoms: C27_33  and  C28_34
REMARK   29  A    between atoms: C28_34  and  C29_35
REMARK   30  A    between atoms: C29_35  and  C30_36
REMARK   31  A    between atoms: C30_36  and  C31_37
REMARK   32  A    between atoms: C31_37  and  C32_38
REMARK   33  A    between atoms: C32_38  and  C33_39
REMARK   34  A    between atoms: C33_39  and  C34_40
REMARK   35  A    between atoms: C34_40  and  C35_41
REMARK   36  A    between atoms: C35_41  and  C36_42
REMARK   37  A    between atoms: C36_42  and  C37_43
REMARK   38  A    between atoms: C37_43  and  C38_44
REMARK   39  A    between atoms: C38_44  and  C39_45
REMARK   40  A    between atoms: C39_45  and  C40_46
REMARK   41  A    between atoms: C40_46  and  C41_47
REMARK   42  A    between atoms: C41_47  and  C42_48
REMARK   43  A    between atoms: C42_48  and  C43_49
REMARK   44  A    between atoms: C43_49  and  C44_50
REMARK                            x       y       z     vdW  Elec       q    Type
REMARK                         _______ _______ _______ _____ _____    ______ ____
ROOT
ATOM     24  C   UNK A   1      51.128  13.040  15.366  0.00  0.00    +0.227 C 
ENDROOT
BRANCH  24  25
ATOM     25  N   UNK A   1      49.682  13.102  15.593  0.00  0.00    -0.709 N 
ATOM     26  H   UNK A   1      49.102  12.431  15.202  0.00  0.00    +0.399 HD
ATOM     27  C   UNK A   0      49.161  14.091  16.345  0.00  0.00    +0.495 C 
ATOM     50  O   UNK A   0      49.888  14.928  16.835  0.00  0.00    -0.532 OA
BRANCH  27  28
ATOM     28  C   UNK A   0      47.673  14.154  16.579  0.00  0.00    +0.258 C 
BRANCH  28  29
ATOM     29  O   UNK A   0      47.011  14.457  15.350  0.00  0.00    -0.533 OA
ATOM     30  H   UNK A   0      47.136  13.790  14.661  0.00  0.00    +0.384 HD
ENDBRANCH  28  29
BRANCH  28  31
ATOM     31  C   UNK A   0      47.368  15.226  17.593  0.00  0.00    -0.089 C 
ATOM     32  C   UNK A   0      46.829  16.356  17.209  0.00  0.00    -0.002 C 
BRANCH  32  33
ATOM     33  C   UNK A   0      46.523  17.429  18.221  0.00  0.00    +0.050 C 
BRANCH  33  34
ATOM     34  C   UNK A   0      45.447  16.927  19.187  0.00  0.00    +0.010 C 
BRANCH  34  35
ATOM     35  C   UNK A   0      45.669  17.552  20.566  0.00  0.00    +0.005 C 
BRANCH  35  36
ATOM     36  C   UNK A   0      44.350  18.134  21.081  0.00  0.00    +0.000 C 
BRANCH  36  37
ATOM     37  C   UNK A   0      43.569  18.737  19.913  0.00  0.00    +0.001 C 
BRANCH  37  38
ATOM     38  C   UNK A   0      43.221  20.193  20.230  0.00  0.00    -0.001 C 
BRANCH  38  39
ATOM     39  C   UNK A   0      44.482  21.053  20.129  0.00  0.00    +0.000 C 
BRANCH  39  40
ATOM     40  C   UNK A   0      45.168  20.798  18.786  0.00  0.00    -0.000 C 
BRANCH  40  41
ATOM     41  C   UNK A   0      46.679  20.978  18.942  0.00  0.00    +0.000 C 
BRANCH  41  42
ATOM     42  C   UNK A   0      47.034  21.043  20.428  0.00  0.00    -0.000 C 
BRANCH  42  43
ATOM     43  C   UNK A   0      48.370  20.334  20.666  0.00  0.00    +0.000 C 
BRANCH  43  44
ATOM     44  C   UNK A   0      49.284  20.549  19.459  0.00  0.00    +0.000 C 
BRANCH  44  45
ATOM     45  C   UNK A   0      50.710  20.823  19.940  0.00  0.00    +0.000 C 
BRANCH  45  46
ATOM     46  C   UNK A   0      51.584  21.217  18.747  0.00  0.00    -0.000 C 
BRANCH  46  47
ATOM     47  C   UNK A   0      51.092  20.489  17.494  0.00  0.00    -0.000 C 
BRANCH  47  48
ATOM     48  C   UNK A   0      52.201  19.576  16.967  0.00  0.00    -0.006 C 
ATOM     49  C   UNK A   0      51.589  18.492  16.077  0.00  0.00    +0.006 C 
ENDBRANCH  47  48
ENDBRANCH  46  47
ENDBRANCH  45  46
ENDBRANCH  44  45
ENDBRANCH  43  44
ENDBRANCH  42  43
ENDBRANCH  41  42
ENDBRANCH  40  41
ENDBRANCH  39  40
ENDBRANCH  38  39
ENDBRANCH  37  38
ENDBRANCH  36  37
ENDBRANCH  35  36
ENDBRANCH  34  35
ENDBRANCH  33  34
ENDBRANCH  32  33
ENDBRANCH  28  31
ENDBRANCH  27  28
ENDBRANCH  24  25
BRANCH  24  21
ATOM     21  C   UNK A   1      51.688  11.759  15.990  0.00  0.00    +0.253 C 
BRANCH  21  20
ATOM     19  C   UNK A   1      52.447  12.546  18.172  0.00  0.00    -0.022 C 
ATOM     20  C   UNK A   1      51.579  11.842  17.491  0.00  0.00    -0.088 C 
BRANCH  19  18
ATOM     18  C   UNK A   1      52.339  12.628  19.673  0.00  0.00    +0.044 C 
BRANCH  18  17
ATOM     17  C   UNK A   1      53.712  12.380  20.299  0.00  0.00    +0.010 C 
BRANCH  17  16
ATOM     16  C   UNK A   1      54.762  12.258  19.193  0.00  0.00    +0.001 C 
BRANCH  16  15
ATOM     15  C   UNK A   1      56.131  12.665  19.742  0.00  0.00    +0.002 C 
BRANCH  15  14
ATOM     14  C   UNK A   1      56.105  12.612  21.271  0.00  0.00    +0.000 C 
BRANCH  14  13
ATOM     13  C   UNK A   1      56.824  13.838  21.837  0.00  0.00    +0.001 C 
BRANCH  13  12
ATOM     12  C   UNK A   1      55.796  14.802  22.433  0.00  0.00    +0.000 C 
BRANCH  12  11
ATOM     11  C   UNK A   1      55.636  16.011  21.511  0.00  0.00    -0.000 C 
BRANCH  11  10
ATOM     10  C   UNK A   1      54.236  15.999  20.891  0.00  0.00    -0.000 C 
BRANCH  10   9
ATOM      9  C   UNK A   1      54.355  16.023  19.366  0.00  0.00    +0.000 C 
BRANCH   9   8
ATOM      8  C   UNK A   1      52.973  16.257  18.751  0.00  0.00    +0.000 C 
BRANCH   8   7
ATOM      7  C   UNK A   1      51.908  16.183  19.847  0.00  0.00    +0.000 C 
BRANCH   7   6
ATOM      6  C   UNK A   1      50.746  17.113  19.492  0.00  0.00    +0.000 C 
BRANCH   6   5
ATOM      5  C   UNK A   1      49.573  16.845  20.436  0.00  0.00    +0.000 C 
BRANCH   5   4
ATOM      4  C   UNK A   1      49.320  15.338  20.520  0.00  0.00    -0.000 C 
BRANCH   4   3
ATOM      3  C   UNK A   1      48.030  15.081  21.302  0.00  0.00    -0.000 C 
BRANCH   3   2
ATOM      1  C   UNK A   1      46.132  13.562  20.721  0.00  0.00    +0.006 C 
ATOM      2  C   UNK A   1      47.608  13.621  21.122  0.00  0.00    -0.006 C 
ENDBRANCH   3   2
ENDBRANCH   4   3
ENDBRANCH   5   4
ENDBRANCH   6   5
ENDBRANCH   7   6
ENDBRANCH   8   7
ENDBRANCH   9   8
ENDBRANCH  10   9
ENDBRANCH  11  10
ENDBRANCH  12  11
ENDBRANCH  13  12
ENDBRANCH  14  13
ENDBRANCH  15  14
ENDBRANCH  16  15
ENDBRANCH  17  16
ENDBRANCH  18  17
ENDBRANCH  19  18
ENDBRANCH  21  20
BRANCH  21  22
ATOM     22  O   UNK A   1      50.942  10.635  15.518  0.00  0.00    -0.528 OA
ATOM     23  H   UNK A   1      50.813   9.943  16.181  0.00  0.00    +0.368 HD
ENDBRANCH  21  22
ENDBRANCH  24  21
BRANCH  24  51
ATOM     51  C   UNK A   1      51.410  13.040  13.862  0.00  0.00    +0.172 C 
BRANCH  51  52
ATOM     52  O   UNK A   1      52.461  13.964  13.574  0.00  0.00    -0.553 OA
ATOM     53  H   UNK A   1      52.694  14.016  12.637  0.00  0.00    +0.376 HD
ENDBRANCH  51  52
ENDBRANCH  24  51
TORSDOF 42
ENDMDL
MODEL 4
REMARK VINA RESULT:      -3.7      3.747      8.485
REMARK  Name = ZINC95486369
REMARK  44 active torsions:
REMARK  status: ('A' for Active; 'I' for Inactive)
REMARK    1  A    between atoms: C1_1  and  C2_2
REMARK    2  A    between atoms: C2_2  and  C3_3
REMARK    3  A    between atoms: C3_3  and  C4_4
REMARK    4  A    between atoms: C4_4  and  C5_5
REMARK    5  A    between atoms: C5_5  and  C6_6
REMARK    6  A    between atoms: C6_6  and  C7_7
REMARK    7  A    between atoms: C7_7  and  C8_8
REMARK    8  A    between atoms: C8_8  and  C9_9
REMARK    9  A    between atoms: C9_9  and  C10_10
REMARK   10  A    between atoms: C10_10  and  C11_11
REMARK   11  A    between atoms: C11_11  and  C12_12
REMARK   12  A    between atoms: C12_12  and  C13_13
REMARK   13  A    between atoms: C13_13  and  C14_14
REMARK   14  A    between atoms: C14_14  and  C15_15
REMARK   15  A    between atoms: C15_15  and  C16_16
REMARK   16  A    between atoms: C16_16  and  C17_17
REMARK   17  A    between atoms: C17_17  and  C18_18
REMARK   18  A    between atoms: C18_18  and  C19_19
REMARK   19  A    between atoms: C20_20  and  C21_21
REMARK   20  A    between atoms: C21_21  and  C22_23
REMARK   21  A    between atoms: C21_21  and  O4_52
REMARK   22  A    between atoms: C22_23  and  C23_25
REMARK   23  A    between atoms: C22_23  and  N1_27
REMARK   24  A    between atoms: C23_25  and  O1_26
REMARK   25  A    between atoms: C24_28  and  C25_30
REMARK   26  A    between atoms: C25_30  and  C26_32
REMARK   27  A    between atoms: C25_30  and  O3_51
REMARK   28  A    between atoms: C27_33  and  C28_34
REMARK   29  A    between atoms: C28_34  and  C29_35
REMARK   30  A    between atoms: C29_35  and  C30_36
REMARK   31  A    between atoms: C30_36  and  C31_37
REMARK   32  A    between atoms: C31_37  and  C32_38
REMARK   33  A    between atoms: C32_38  and  C33_39
REMARK   34  A    between atoms: C33_39  and  C34_40
REMARK   35  A    between atoms: C34_40  and  C35_41
REMARK   36  A    between atoms: C35_41  and  C36_42
REMARK   37  A    between atoms: C36_42  and  C37_43
REMARK   38  A    between atoms: C37_43  and  C38_44
REMARK   39  A    between atoms: C38_44  and  C39_45
REMARK   40  A    between atoms: C39_45  and  C40_46
REMARK   41  A    between atoms: C40_46  and  C41_47
REMARK   42  A    between atoms: C41_47  and  C42_48
REMARK   43  A    between atoms: C42_48  and  C43_49
REMARK   44  A    between atoms: C43_49  and  C44_50
REMARK                            x       y       z     vdW  Elec       q    Type
REMARK                         _______ _______ _______ _____ _____    ______ ____
ROOT
ATOM     24  C   UNK A   1      43.657  20.613  19.997  0.00  0.00    +0.227 C 
ENDROOT
BRANCH  24  25
ATOM     25  N   UNK A   1      44.331  19.450  19.416  0.00  0.00    -0.709 N 
ATOM     26  H   UNK A   1      44.738  19.514  18.538  0.00  0.00    +0.399 HD
ATOM     27  C   UNK A   0      44.385  18.291  20.103  0.00  0.00    +0.495 C 
ATOM     50  O   UNK A   0      43.877  18.212  21.201  0.00  0.00    -0.532 OA
BRANCH  27  28
ATOM     28  C   UNK A   0      45.079  17.094  19.506  0.00  0.00    +0.258 C 
BRANCH  28  29
ATOM     29  O   UNK A   0      45.073  16.021  20.449  0.00  0.00    -0.533 OA
ATOM     30  H   UNK A   0      44.311  15.432  20.370  0.00  0.00    +0.384 HD
ENDBRANCH  28  29
BRANCH  28  31
ATOM     31  C   UNK A   0      46.501  17.455  19.164  0.00  0.00    -0.089 C 
ATOM     32  C   UNK A   0      46.893  17.462  17.914  0.00  0.00    -0.002 C 
BRANCH  32  33
ATOM     33  C   UNK A   0      48.315  17.823  17.571  0.00  0.00    +0.050 C 
BRANCH  33  34
ATOM     34  C   UNK A   0      49.188  16.567  17.632  0.00  0.00    +0.010 C 
BRANCH  34  35
ATOM     35  C   UNK A   0      50.656  16.975  17.778  0.00  0.00    +0.005 C 
BRANCH  35  36
ATOM     36  C   UNK A   0      51.116  17.688  16.504  0.00  0.00    +0.000 C 
BRANCH  36  37
ATOM     37  C   UNK A   0      52.091  18.807  16.871  0.00  0.00    +0.001 C 
BRANCH  37  38
ATOM     38  C   UNK A   0      51.575  20.136  16.316  0.00  0.00    -0.001 C 
BRANCH  38  39
ATOM     39  C   UNK A   0      51.447  21.151  17.454  0.00  0.00    +0.000 C 
BRANCH  39  40
ATOM     40  C   UNK A   0      50.071  21.014  18.108  0.00  0.00    -0.000 C 
BRANCH  40  41
ATOM     41  C   UNK A   0      50.241  20.685  19.592  0.00  0.00    +0.000 C 
BRANCH  41  42
ATOM     42  C   UNK A   0      51.616  21.160  20.066  0.00  0.00    -0.000 C 
BRANCH  42  43
ATOM     43  C   UNK A   0      52.212  20.126  21.024  0.00  0.00    +0.000 C 
BRANCH  43  44
ATOM     44  C   UNK A   0      52.211  18.751  20.355  0.00  0.00    +0.000 C 
BRANCH  44  45
ATOM     45  C   UNK A   0      52.768  17.709  21.328  0.00  0.00    +0.000 C 
BRANCH  45  46
ATOM     46  C   UNK A   0      53.197  16.463  20.550  0.00  0.00    -0.000 C 
BRANCH  46  47
ATOM     47  C   UNK A   0      52.759  15.211  21.314  0.00  0.00    -0.000 C 
BRANCH  47  48
ATOM     48  C   UNK A   0      53.776  14.091  21.081  0.00  0.00    -0.006 C 
ATOM     49  C   UNK A   0      54.658  14.444  19.882  0.00  0.00    +0.006 C 
ENDBRANCH  47  48
ENDBRANCH  46  47
ENDBRANCH  45  46
ENDBRANCH  44  45
ENDBRANCH  43  44
ENDBRANCH  42  43
ENDBRANCH  41  42
ENDBRANCH  40  41
ENDBRANCH  39  40
ENDBRANCH  38  39
ENDBRANCH  37  38
ENDBRANCH  36  37
ENDBRANCH  35  36
ENDBRANCH  34  35
ENDBRANCH  33  34
ENDBRANCH  32  33
ENDBRANCH  28  31
ENDBRANCH  27  28
ENDBRANCH  24  25
BRANCH  24  21
ATOM     21  C   UNK A   1      44.633  21.791  20.056  0.00  0.00    +0.253 C 
BRANCH  21  20
ATOM     19  C   UNK A   1      46.231  21.220  21.811  0.00  0.00    -0.022 C 
ATOM     20  C   UNK A   1      45.979  21.305  20.528  0.00  0.00    -0.088 C 
BRANCH  19  18
ATOM     18  C   UNK A   1      47.577  20.735  22.283  0.00  0.00    +0.044 C 
BRANCH  18  17
ATOM     17  C   UNK A   1      47.550  19.213  22.427  0.00  0.00    +0.010 C 
BRANCH  17  16
ATOM     16  C   UNK A   1      48.978  18.668  22.358  0.00  0.00    +0.001 C 
BRANCH  16  15
ATOM     15  C   UNK A   1      49.063  17.592  21.273  0.00  0.00    +0.002 C 
BRANCH  15  14
ATOM     14  C   UNK A   1      49.225  16.219  21.927  0.00  0.00    +0.000 C 
BRANCH  14  13
ATOM     13  C   UNK A   1      49.072  15.127  20.866  0.00  0.00    +0.001 C 
BRANCH  13  12
ATOM     12  C   UNK A   1      48.701  13.806  21.544  0.00  0.00    +0.000 C 
BRANCH  12  11
ATOM     11  C   UNK A   1      47.698  13.050  20.673  0.00  0.00    -0.000 C 
BRANCH  11  10
ATOM     10  C   UNK A   1      47.493  13.804  19.357  0.00  0.00    -0.000 C 
BRANCH  10   9
ATOM      9  C   UNK A   1      46.198  13.330  18.694  0.00  0.00    +0.000 C 
BRANCH   9   8
ATOM      8  C   UNK A   1      46.516  12.734  17.321  0.00  0.00    +0.000 C 
BRANCH   8   7
ATOM      7  C   UNK A   1      46.974  13.846  16.376  0.00  0.00    +0.000 C 
BRANCH   7   6
ATOM      6  C   UNK A   1      48.329  13.474  15.769  0.00  0.00    +0.000 C 
BRANCH   6   5
ATOM      5  C   UNK A   1      48.644  12.011  16.085  0.00  0.00    +0.000 C 
BRANCH   5   4
ATOM      4  C   UNK A   1      50.044  11.910  16.694  0.00  0.00    -0.000 C 
BRANCH   4   3
ATOM      3  C   UNK A   1      50.692  13.296  16.714  0.00  0.00    -0.000 C 
BRANCH   3   2
ATOM      1  C   UNK A   1      51.060  12.462  19.041  0.00  0.00    +0.006 C 
ATOM      2  C   UNK A   1      51.552  13.439  17.972  0.00  0.00    -0.006 C 
ENDBRANCH   3   2
ENDBRANCH   4   3
ENDBRANCH   5   4
ENDBRANCH   6   5
ENDBRANCH   7   6
ENDBRANCH   8   7
ENDBRANCH   9   8
ENDBRANCH  10   9
ENDBRANCH  11  10
ENDBRANCH  12  11
ENDBRANCH  13  12
ENDBRANCH  14  13
ENDBRANCH  15  14
ENDBRANCH  16  15
ENDBRANCH  17  16
ENDBRANCH  18  17
ENDBRANCH  19  18
ENDBRANCH  21  20
BRANCH  21  22
ATOM     22  O   UNK A   1      44.763  22.367  18.755  0.00  0.00    -0.528 OA
ATOM     23  H   UNK A   1      43.919  22.537  18.314  0.00  0.00    +0.368 HD
ENDBRANCH  21  22
ENDBRANCH  24  21
BRANCH  24  51
ATOM     51  C   UNK A   1      42.453  20.991  19.130  0.00  0.00    +0.172 C 
BRANCH  51  52
ATOM     52  O   UNK A   1      42.114  22.361  19.358  0.00  0.00    -0.553 OA
ATOM     53  H   UNK A   1      41.174  22.556  19.250  0.00  0.00    +0.376 HD
ENDBRANCH  51  52
ENDBRANCH  24  51
TORSDOF 42
ENDMDL
MODEL 5
REMARK VINA RESULT:      -3.7      2.032      4.337
REMARK  Name = ZINC95486369
REMARK  44 active torsions:
REMARK  status: ('A' for Active; 'I' for Inactive)
REMARK    1  A    between atoms: C1_1  and  C2_2
REMARK    2  A    between atoms: C2_2  and  C3_3
REMARK    3  A    between atoms: C3_3  and  C4_4
REMARK    4  A    between atoms: C4_4  and  C5_5
REMARK    5  A    between atoms: C5_5  and  C6_6
REMARK    6  A    between atoms: C6_6  and  C7_7
REMARK    7  A    between atoms: C7_7  and  C8_8
REMARK    8  A    between atoms: C8_8  and  C9_9
REMARK    9  A    between atoms: C9_9  and  C10_10
REMARK   10  A    between atoms: C10_10  and  C11_11
REMARK   11  A    between atoms: C11_11  and  C12_12
REMARK   12  A    between atoms: C12_12  and  C13_13
REMARK   13  A    between atoms: C13_13  and  C14_14
REMARK   14  A    between atoms: C14_14  and  C15_15
REMARK   15  A    between atoms: C15_15  and  C16_16
REMARK   16  A    between atoms: C16_16  and  C17_17
REMARK   17  A    between atoms: C17_17  and  C18_18
REMARK   18  A    between atoms: C18_18  and  C19_19
REMARK   19  A    between atoms: C20_20  and  C21_21
REMARK   20  A    between atoms: C21_21  and  C22_23
REMARK   21  A    between atoms: C21_21  and  O4_52
REMARK   22  A    between atoms: C22_23  and  C23_25
REMARK   23  A    between atoms: C22_23  and  N1_27
REMARK   24  A    between atoms: C23_25  and  O1_26
REMARK   25  A    between atoms: C24_28  and  C25_30
REMARK   26  A    between atoms: C25_30  and  C26_32
REMARK   27  A    between atoms: C25_30  and  O3_51
REMARK   28  A    between atoms: C27_33  and  C28_34
REMARK   29  A    between atoms: C28_34  and  C29_35
REMARK   30  A    between atoms: C29_35  and  C30_36
REMARK   31  A    between atoms: C30_36  and  C31_37
REMARK   32  A    between atoms: C31_37  and  C32_38
REMARK   33  A    between atoms: C32_38  and  C33_39
REMARK   34  A    between atoms: C33_39  and  C34_40
REMARK   35  A    between atoms: C34_40  and  C35_41
REMARK   36  A    between atoms: C35_41  and  C36_42
REMARK   37  A    between atoms: C36_42  and  C37_43
REMARK   38  A    between atoms: C37_43  and  C38_44
REMARK   39  A    between atoms: C38_44  and  C39_45
REMARK   40  A    between atoms: C39_45  and  C40_46
REMARK   41  A    between atoms: C40_46  and  C41_47
REMARK   42  A    between atoms: C41_47  and  C42_48
REMARK   43  A    between atoms: C42_48  and  C43_49
REMARK   44  A    between atoms: C43_49  and  C44_50
REMARK                            x       y       z     vdW  Elec       q    Type
REMARK                         _______ _______ _______ _____ _____    ______ ____
ROOT
ATOM     24  C   UNK A   1      51.786  12.010  16.927  0.00  0.00    +0.227 C 
ENDROOT
BRANCH  24  25
ATOM     25  N   UNK A   1      50.377  12.227  17.263  0.00  0.00    -0.709 N 
ATOM     26  H   UNK A   1      49.920  11.611  17.857  0.00  0.00    +0.399 HD
ATOM     27  C   UNK A   0      49.716  13.283  16.747  0.00  0.00    +0.495 C 
ATOM     50  O   UNK A   0      50.289  14.053  16.006  0.00  0.00    -0.532 OA
BRANCH  27  28
ATOM     28  C   UNK A   0      48.267  13.506  17.094  0.00  0.00    +0.258 C 
BRANCH  28  29
ATOM     29  O   UNK A   0      47.476  12.456  16.535  0.00  0.00    -0.533 OA
ATOM     30  H   UNK A   0      46.705  12.218  17.067  0.00  0.00    +0.384 HD
ENDBRANCH  28  29
BRANCH  28  31
ATOM     31  C   UNK A   0      47.814  14.829  16.534  0.00  0.00    -0.089 C 
ATOM     32  C   UNK A   0      47.502  15.811  17.343  0.00  0.00    -0.002 C 
BRANCH  32  33
ATOM     33  C   UNK A   0      47.048  17.135  16.783  0.00  0.00    +0.050 C 
BRANCH  33  34
ATOM     34  C   UNK A   0      46.704  18.084  17.934  0.00  0.00    +0.010 C 
BRANCH  34  35
ATOM     35  C   UNK A   0      47.995  18.660  18.522  0.00  0.00    +0.005 C 
BRANCH  35  36
ATOM     36  C   UNK A   0      47.650  19.758  19.529  0.00  0.00    +0.000 C 
BRANCH  36  37
ATOM     37  C   UNK A   0      46.725  20.782  18.870  0.00  0.00    +0.001 C 
BRANCH  37  38
ATOM     38  C   UNK A   0      45.931  21.521  19.950  0.00  0.00    -0.001 C 
BRANCH  38  39
ATOM     39  C   UNK A   0      44.470  21.650  19.511  0.00  0.00    +0.000 C 
BRANCH  39  40
ATOM     40  C   UNK A   0      43.929  20.271  19.128  0.00  0.00    -0.000 C 
BRANCH  40  41
ATOM     41  C   UNK A   0      42.671  19.972  19.946  0.00  0.00    +0.000 C 
BRANCH  41  42
ATOM     42  C   UNK A   0      42.818  18.611  20.628  0.00  0.00    -0.000 C 
BRANCH  42  43
ATOM     43  C   UNK A   0      44.286  18.178  20.594  0.00  0.00    +0.000 C 
BRANCH  43  44
ATOM     44  C   UNK A   0      44.422  16.788  21.218  0.00  0.00    +0.000 C 
BRANCH  44  45
ATOM     45  C   UNK A   0      45.118  15.850  20.228  0.00  0.00    +0.000 C 
BRANCH  45  46
ATOM     46  C   UNK A   0      46.354  15.238  20.890  0.00  0.00    -0.000 C 
BRANCH  46  47
ATOM     47  C   UNK A   0      47.355  16.346  21.224  0.00  0.00    -0.000 C 
BRANCH  47  48
ATOM     48  C   UNK A   0      48.779  15.795  21.119  0.00  0.00    -0.006 C 
ATOM     49  C   UNK A   0      48.730  14.341  20.646  0.00  0.00    +0.006 C 
ENDBRANCH  47  48
ENDBRANCH  46  47
ENDBRANCH  45  46
ENDBRANCH  44  45
ENDBRANCH  43  44
ENDBRANCH  42  43
ENDBRANCH  41  42
ENDBRANCH  40  41
ENDBRANCH  39  40
ENDBRANCH  38  39
ENDBRANCH  37  38
ENDBRANCH  36  37
ENDBRANCH  35  36
ENDBRANCH  34  35
ENDBRANCH  33  34
ENDBRANCH  32  33
ENDBRANCH  28  31
ENDBRANCH  27  28
ENDBRANCH  24  25
BRANCH  24  21
ATOM     21  C   UNK A   1      52.507  11.393  18.127  0.00  0.00    +0.253 C 
BRANCH  21  20
ATOM     19  C   UNK A   1      54.570  12.070  19.243  0.00  0.00    -0.022 C 
ATOM     20  C   UNK A   1      53.406  12.425  18.759  0.00  0.00    -0.088 C 
BRANCH  19  18
ATOM     18  C   UNK A   1      55.469  13.102  19.876  0.00  0.00    +0.044 C 
BRANCH  18  17
ATOM     17  C   UNK A   1      55.342  13.025  21.398  0.00  0.00    +0.010 C 
BRANCH  17  16
ATOM     16  C   UNK A   1      54.885  14.381  21.940  0.00  0.00    +0.001 C 
BRANCH  16  15
ATOM     15  C   UNK A   1      53.397  14.315  22.291  0.00  0.00    +0.002 C 
BRANCH  15  14
ATOM     14  C   UNK A   1      52.596  15.126  21.272  0.00  0.00    +0.000 C 
BRANCH  14  13
ATOM     13  C   UNK A   1      53.504  16.175  20.627  0.00  0.00    +0.001 C 
BRANCH  13  12
ATOM     12  C   UNK A   1      53.167  16.297  19.139  0.00  0.00    +0.000 C 
BRANCH  12  11
ATOM     11  C   UNK A   1      51.787  15.693  18.878  0.00  0.00    -0.000 C 
BRANCH  11  10
ATOM     10  C   UNK A   1      50.927  16.698  18.108  0.00  0.00    -0.000 C 
BRANCH  10   9
ATOM      9  C   UNK A   1      51.826  17.561  17.219  0.00  0.00    +0.000 C 
BRANCH   9   8
ATOM      8  C   UNK A   1      50.959  18.373  16.254  0.00  0.00    +0.000 C 
BRANCH   8   7
ATOM      7  C   UNK A   1      51.703  19.647  15.850  0.00  0.00    +0.000 C 
BRANCH   7   6
ATOM      6  C   UNK A   1      52.130  20.408  17.107  0.00  0.00    +0.000 C 
BRANCH   6   5
ATOM      5  C   UNK A   1      50.898  21.020  17.775  0.00  0.00    +0.000 C 
BRANCH   5   4
ATOM      4  C   UNK A   1      51.114  21.078  19.289  0.00  0.00    -0.000 C 
BRANCH   4   3
ATOM      3  C   UNK A   1      52.265  20.146  19.675  0.00  0.00    -0.000 C 
BRANCH   3   2
ATOM      1  C   UNK A   1      50.849  18.793  21.227  0.00  0.00    +0.006 C 
ATOM      2  C   UNK A   1      52.085  19.688  21.124  0.00  0.00    -0.006 C 
ENDBRANCH   3   2
ENDBRANCH   4   3
ENDBRANCH   5   4
ENDBRANCH   6   5
ENDBRANCH   7   6
ENDBRANCH   8   7
ENDBRANCH   9   8
ENDBRANCH  10   9
ENDBRANCH  11  10
ENDBRANCH  12  11
ENDBRANCH  13  12
ENDBRANCH  14  13
ENDBRANCH  15  14
ENDBRANCH  16  15
ENDBRANCH  17  16
ENDBRANCH  18  17
ENDBRANCH  19  18
ENDBRANCH  21  20
BRANCH  21  22
ATOM     22  O   UNK A   1      51.544  10.950  19.085  0.00  0.00    -0.528 OA
ATOM     23  H   UNK A   1      51.766  10.108  19.506  0.00  0.00    +0.368 HD
ENDBRANCH  21  22
ENDBRANCH  24  21
BRANCH  24  51
ATOM     51  C   UNK A   1      51.885  11.062  15.729  0.00  0.00    +0.172 C 
BRANCH  51  52
ATOM     52  O   UNK A   1      52.136  11.819  14.543  0.00  0.00    -0.553 OA
ATOM     53  H   UNK A   1      51.369  11.900  13.960  0.00  0.00    +0.376 HD
ENDBRANCH  51  52
ENDBRANCH  24  51
TORSDOF 42
ENDMDL
MODEL 6
REMARK VINA RESULT:      -3.4      3.208      7.686
REMARK  Name = ZINC95486369
REMARK  44 active torsions:
REMARK  status: ('A' for Active; 'I' for Inactive)
REMARK    1  A    between atoms: C1_1  and  C2_2
REMARK    2  A    between atoms: C2_2  and  C3_3
REMARK    3  A    between atoms: C3_3  and  C4_4
REMARK    4  A    between atoms: C4_4  and  C5_5
REMARK    5  A    between atoms: C5_5  and  C6_6
REMARK    6  A    between atoms: C6_6  and  C7_7
REMARK    7  A    between atoms: C7_7  and  C8_8
REMARK    8  A    between atoms: C8_8  and  C9_9
REMARK    9  A    between atoms: C9_9  and  C10_10
REMARK   10  A    between atoms: C10_10  and  C11_11
REMARK   11  A    between atoms: C11_11  and  C12_12
REMARK   12  A    between atoms: C12_12  and  C13_13
REMARK   13  A    between atoms: C13_13  and  C14_14
REMARK   14  A    between atoms: C14_14  and  C15_15
REMARK   15  A    between atoms: C15_15  and  C16_16
REMARK   16  A    between atoms: C16_16  and  C17_17
REMARK   17  A    between atoms: C17_17  and  C18_18
REMARK   18  A    between atoms: C18_18  and  C19_19
REMARK   19  A    between atoms: C20_20  and  C21_21
REMARK   20  A    between atoms: C21_21  and  C22_23
REMARK   21  A    between atoms: C21_21  and  O4_52
REMARK   22  A    between atoms: C22_23  and  C23_25
REMARK   23  A    between atoms: C22_23  and  N1_27
REMARK   24  A    between atoms: C23_25  and  O1_26
REMARK   25  A    between atoms: C24_28  and  C25_30
REMARK   26  A    between atoms: C25_30  and  C26_32
REMARK   27  A    between atoms: C25_30  and  O3_51
REMARK   28  A    between atoms: C27_33  and  C28_34
REMARK   29  A    between atoms: C28_34  and  C29_35
REMARK   30  A    between atoms: C29_35  and  C30_36
REMARK   31  A    between atoms: C30_36  and  C31_37
REMARK   32  A    between atoms: C31_37  and  C32_38
REMARK   33  A    between atoms: C32_38  and  C33_39
REMARK   34  A    between atoms: C33_39  and  C34_40
REMARK   35  A    between atoms: C34_40  and  C35_41
REMARK   36  A    between atoms: C35_41  and  C36_42
REMARK   37  A    between atoms: C36_42  and  C37_43
REMARK   38  A    between atoms: C37_43  and  C38_44
REMARK   39  A    between atoms: C38_44  and  C39_45
REMARK   40  A    between atoms: C39_45  and  C40_46
REMARK   41  A    between atoms: C40_46  and  C41_47
REMARK   42  A    between atoms: C41_47  and  C42_48
REMARK   43  A    between atoms: C42_48  and  C43_49
REMARK   44  A    between atoms: C43_49  and  C44_50
REMARK                            x       y       z     vdW  Elec       q    Type
REMARK                         _______ _______ _______ _____ _____    ______ ____
ROOT
ATOM     24  C   UNK A   1      45.914  16.464  19.196  0.00  0.00    +0.227 C 
ENDROOT
BRANCH  24  25
ATOM     25  N   UNK A   1      44.765  17.309  19.532  0.00  0.00    -0.709 N 
ATOM     26  H   UNK A   1      44.121  17.546  18.846  0.00  0.00    +0.399 HD
ATOM     27  C   UNK A   0      44.604  17.757  20.793  0.00  0.00    +0.495 C 
ATOM     50  O   UNK A   0      45.409  17.459  21.649  0.00  0.00    -0.532 OA
BRANCH  27  28
ATOM     28  C   UNK A   0      43.422  18.626  21.138  0.00  0.00    +0.258 C 
BRANCH  28  29
ATOM     29  O   UNK A   0      42.768  19.039  19.936  0.00  0.00    -0.533 OA
ATOM     30  H   UNK A   0      42.658  19.996  19.858  0.00  0.00    +0.384 HD
ENDBRANCH  28  29
BRANCH  28  31
ATOM     31  C   UNK A   0      43.893  19.838  21.897  0.00  0.00    -0.089 C 
ATOM     32  C   UNK A   0      44.325  20.891  21.248  0.00  0.00    -0.002 C 
BRANCH  32  33
ATOM     33  C   UNK A   0      44.796  22.104  22.007  0.00  0.00    +0.050 C 
BRANCH  33  34
ATOM     34  C   UNK A   0      46.225  21.872  22.504  0.00  0.00    +0.010 C 
BRANCH  34  35
ATOM     35  C   UNK A   0      47.215  22.232  21.395  0.00  0.00    +0.005 C 
BRANCH  35  36
ATOM     36  C   UNK A   0      48.247  21.111  21.249  0.00  0.00    +0.000 C 
BRANCH  36  37
ATOM     37  C   UNK A   0      47.630  19.949  20.470  0.00  0.00    +0.001 C 
BRANCH  37  38
ATOM     38  C   UNK A   0      48.631  19.445  19.427  0.00  0.00    -0.001 C 
BRANCH  38  39
ATOM     39  C   UNK A   0      49.328  20.639  18.770  0.00  0.00    +0.000 C 
BRANCH  39  40
ATOM     40  C   UNK A   0      50.538  20.148  17.974  0.00  0.00    -0.000 C 
BRANCH  40  41
ATOM     41  C   UNK A   0      51.663  21.181  18.067  0.00  0.00    +0.000 C 
BRANCH  41  42
ATOM     42  C   UNK A   0      52.604  20.809  19.213  0.00  0.00    -0.000 C 
BRANCH  42  43
ATOM     43  C   UNK A   0      52.610  21.931  20.254  0.00  0.00    +0.000 C 
BRANCH  43  44
ATOM     44  C   UNK A   0      51.995  21.420  21.558  0.00  0.00    +0.000 C 
BRANCH  44  45
ATOM     45  C   UNK A   0      52.360  19.946  21.752  0.00  0.00    +0.000 C 
BRANCH  45  46
ATOM     46  C   UNK A   0      51.129  19.176  22.235  0.00  0.00    -0.000 C 
BRANCH  46  47
ATOM     47  C   UNK A   0      51.180  17.746  21.693  0.00  0.00    -0.000 C 
BRANCH  47  48
ATOM     48  C   UNK A   0      49.810  17.086  21.867  0.00  0.00    -0.006 C 
ATOM     49  C   UNK A   0      49.995  15.603  22.194  0.00  0.00    +0.006 C 
ENDBRANCH  47  48
ENDBRANCH  46  47
ENDBRANCH  45  46
ENDBRANCH  44  45
ENDBRANCH  43  44
ENDBRANCH  42  43
ENDBRANCH  41  42
ENDBRANCH  40  41
ENDBRANCH  39  40
ENDBRANCH  38  39
ENDBRANCH  37  38
ENDBRANCH  36  37
ENDBRANCH  35  36
ENDBRANCH  34  35
ENDBRANCH  33  34
ENDBRANCH  32  33
ENDBRANCH  28  31
ENDBRANCH  27  28
ENDBRANCH  24  25
BRANCH  24  21
ATOM     21  C   UNK A   1      45.566  14.999  19.470  0.00  0.00    +0.253 C 
BRANCH  21  20
ATOM     19  C   UNK A   1      45.437  12.974  18.114  0.00  0.00    -0.022 C 
ATOM     20  C   UNK A   1      45.972  14.157  18.288  0.00  0.00    -0.088 C 
BRANCH  19  18
ATOM     18  C   UNK A   1      45.842  12.130  16.933  0.00  0.00    +0.044 C 
BRANCH  18  17
ATOM     17  C   UNK A   1      47.334  11.806  17.025  0.00  0.00    +0.010 C 
BRANCH  17  16
ATOM     16  C   UNK A   1      47.515  10.389  17.572  0.00  0.00    +0.001 C 
BRANCH  16  15
ATOM     15  C   UNK A   1      48.636  10.382  18.613  0.00  0.00    +0.002 C 
BRANCH  15  14
ATOM     14  C   UNK A   1      48.688  11.740  19.316  0.00  0.00    +0.000 C 
BRANCH  14  13
ATOM     13  C   UNK A   1      49.663  11.668  20.494  0.00  0.00    +0.001 C 
BRANCH  13  12
ATOM     12  C   UNK A   1      50.882  12.544  20.201  0.00  0.00    +0.000 C 
BRANCH  12  11
ATOM     11  C   UNK A   1      52.087  11.655  19.891  0.00  0.00    -0.000 C 
BRANCH  11  10
ATOM     10  C   UNK A   1      52.920  12.294  18.778  0.00  0.00    -0.000 C 
BRANCH  10   9
ATOM      9  C   UNK A   1      52.972  11.350  17.574  0.00  0.00    +0.000 C 
BRANCH   9   8
ATOM      8  C   UNK A   1      51.599  11.310  16.899  0.00  0.00    +0.000 C 
BRANCH   8   7
ATOM      7  C   UNK A   1      51.626  12.178  15.639  0.00  0.00    +0.000 C 
BRANCH   7   6
ATOM      6  C   UNK A   1      50.429  13.132  15.652  0.00  0.00    +0.000 C 
BRANCH   6   5
ATOM      5  C   UNK A   1      50.786  14.386  16.451  0.00  0.00    +0.000 C 
BRANCH   5   4
ATOM      4  C   UNK A   1      49.642  14.721  17.412  0.00  0.00    -0.000 C 
BRANCH   4   3
ATOM      3  C   UNK A   1      50.082  15.842  18.356  0.00  0.00    -0.000 C 
BRANCH   3   2
ATOM      1  C   UNK A   1      52.291  17.008  18.273  0.00  0.00    +0.006 C 
ATOM      2  C   UNK A   1      51.578  15.707  18.647  0.00  0.00    -0.006 C 
ENDBRANCH   3   2
ENDBRANCH   4   3
ENDBRANCH   5   4
ENDBRANCH   6   5
ENDBRANCH   7   6
ENDBRANCH   8   7
ENDBRANCH   9   8
ENDBRANCH  10   9
ENDBRANCH  11  10
ENDBRANCH  12  11
ENDBRANCH  13  12
ENDBRANCH  14  13
ENDBRANCH  15  14
ENDBRANCH  16  15
ENDBRANCH  17  16
ENDBRANCH  18  17
ENDBRANCH  19  18
ENDBRANCH  21  20
BRANCH  21  22
ATOM     22  O   UNK A   1      46.264  14.555  20.635  0.00  0.00    -0.528 OA
ATOM     23  H   UNK A   1      45.703  14.459  21.417  0.00  0.00    +0.368 HD
ENDBRANCH  21  22
ENDBRANCH  24  21
BRANCH  24  51
ATOM     51  C   UNK A   1      46.261  16.638  17.716  0.00  0.00    +0.172 C 
BRANCH  51  52
ATOM     52  O   UNK A   1      45.918  17.962  17.299  0.00  0.00    -0.553 OA
ATOM     53  H   UNK A   1      45.187  18.353  17.796  0.00  0.00    +0.376 HD
ENDBRANCH  51  52
ENDBRANCH  24  51
TORSDOF 42
ENDMDL
MODEL 7
REMARK VINA RESULT:      -3.4      3.372      8.305
REMARK  Name = ZINC95486369
REMARK  44 active torsions:
REMARK  status: ('A' for Active; 'I' for Inactive)
REMARK    1  A    between atoms: C1_1  and  C2_2
REMARK    2  A    between atoms: C2_2  and  C3_3
REMARK    3  A    between atoms: C3_3  and  C4_4
REMARK    4  A    between atoms: C4_4  and  C5_5
REMARK    5  A    between atoms: C5_5  and  C6_6
REMARK    6  A    between atoms: C6_6  and  C7_7
REMARK    7  A    between atoms: C7_7  and  C8_8
REMARK    8  A    between atoms: C8_8  and  C9_9
REMARK    9  A    between atoms: C9_9  and  C10_10
REMARK   10  A    between atoms: C10_10  and  C11_11
REMARK   11  A    between atoms: C11_11  and  C12_12
REMARK   12  A    between atoms: C12_12  and  C13_13
REMARK   13  A    between atoms: C13_13  and  C14_14
REMARK   14  A    between atoms: C14_14  and  C15_15
REMARK   15  A    between atoms: C15_15  and  C16_16
REMARK   16  A    between atoms: C16_16  and  C17_17
REMARK   17  A    between atoms: C17_17  and  C18_18
REMARK   18  A    between atoms: C18_18  and  C19_19
REMARK   19  A    between atoms: C20_20  and  C21_21
REMARK   20  A    between atoms: C21_21  and  C22_23
REMARK   21  A    between atoms: C21_21  and  O4_52
REMARK   22  A    between atoms: C22_23  and  C23_25
REMARK   23  A    between atoms: C22_23  and  N1_27
REMARK   24  A    between atoms: C23_25  and  O1_26
REMARK   25  A    between atoms: C24_28  and  C25_30
REMARK   26  A    between atoms: C25_30  and  C26_32
REMARK   27  A    between atoms: C25_30  and  O3_51
REMARK   28  A    between atoms: C27_33  and  C28_34
REMARK   29  A    between atoms: C28_34  and  C29_35
REMARK   30  A    between atoms: C29_35  and  C30_36
REMARK   31  A    between atoms: C30_36  and  C31_37
REMARK   32  A    between atoms: C31_37  and  C32_38
REMARK   33  A    between atoms: C32_38  and  C33_39
REMARK   34  A    between atoms: C33_39  and  C34_40
REMARK   35  A    between atoms: C34_40  and  C35_41
REMARK   36  A    between atoms: C35_41  and  C36_42
REMARK   37  A    between atoms: C36_42  and  C37_43
REMARK   38  A    between atoms: C37_43  and  C38_44
REMARK   39  A    between atoms: C38_44  and  C39_45
REMARK   40  A    between atoms: C39_45  and  C40_46
REMARK   41  A    between atoms: C40_46  and  C41_47
REMARK   42  A    between atoms: C41_47  and  C42_48
REMARK   43  A    between atoms: C42_48  and  C43_49
REMARK   44  A    between atoms: C43_49  and  C44_50
REMARK                            x       y       z     vdW  Elec       q    Type
REMARK                         _______ _______ _______ _____ _____    ______ ____
ROOT
ATOM     24  C   UNK A   1      44.017  20.159  19.995  0.00  0.00    +0.227 C 
ENDROOT
BRANCH  24  25
ATOM     25  N   UNK A   1      44.503  19.046  19.176  0.00  0.00    -0.709 N 
ATOM     26  H   UNK A   1      44.677  19.180  18.232  0.00  0.00    +0.399 HD
ATOM     27  C   UNK A   0      44.707  17.837  19.736  0.00  0.00    +0.495 C 
ATOM     50  O   UNK A   0      44.490  17.672  20.918  0.00  0.00    -0.532 OA
BRANCH  27  28
ATOM     28  C   UNK A   0      45.207  16.692  18.894  0.00  0.00    +0.258 C 
BRANCH  28  29
ATOM     29  O   UNK A   0      45.082  15.472  19.627  0.00  0.00    -0.533 OA
ATOM     30  H   UNK A   0      45.863  15.245  20.150  0.00  0.00    +0.384 HD
ENDBRANCH  28  29
BRANCH  28  31
ATOM     31  C   UNK A   0      46.654  16.921  18.542  0.00  0.00    -0.089 C 
ATOM     32  C   UNK A   0      46.976  17.371  17.355  0.00  0.00    -0.002 C 
BRANCH  32  33
ATOM     33  C   UNK A   0      48.423  17.599  17.001  0.00  0.00    +0.050 C 
BRANCH  33  34
ATOM     34  C   UNK A   0      49.221  16.321  17.266  0.00  0.00    +0.010 C 
BRANCH  34  35
ATOM     35  C   UNK A   0      50.677  16.682  17.566  0.00  0.00    +0.005 C 
BRANCH  35  36
ATOM     36  C   UNK A   0      51.199  17.633  16.488  0.00  0.00    +0.000 C 
BRANCH  36  37
ATOM     37  C   UNK A   0      51.953  18.788  17.148  0.00  0.00    +0.001 C 
BRANCH  37  38
ATOM     38  C   UNK A   0      51.579  20.102  16.459  0.00  0.00    -0.001 C 
BRANCH  38  39
ATOM     39  C   UNK A   0      51.127  21.119  17.510  0.00  0.00    +0.000 C 
BRANCH  39  40
ATOM     40  C   UNK A   0      50.098  20.471  18.438  0.00  0.00    -0.000 C 
BRANCH  40  41
ATOM     41  C   UNK A   0      50.450  20.791  19.892  0.00  0.00    +0.000 C 
BRANCH  41  42
ATOM     42  C   UNK A   0      51.848  21.409  19.955  0.00  0.00    -0.000 C 
BRANCH  42  43
ATOM     43  C   UNK A   0      52.573  20.907  21.205  0.00  0.00    +0.000 C 
BRANCH  43  44
ATOM     44  C   UNK A   0      51.755  19.791  21.856  0.00  0.00    +0.000 C 
BRANCH  44  45
ATOM     45  C   UNK A   0      52.601  18.518  21.935  0.00  0.00    +0.000 C 
BRANCH  45  46
ATOM     46  C   UNK A   0      52.597  17.818  20.574  0.00  0.00    -0.000 C 
BRANCH  46  47
ATOM     47  C   UNK A   0      52.923  16.335  20.763  0.00  0.00    -0.000 C 
BRANCH  47  48
ATOM     48  C   UNK A   0      53.580  15.791  19.492  0.00  0.00    -0.006 C 
ATOM     49  C   UNK A   0      55.101  15.794  19.663  0.00  0.00    +0.006 C 
ENDBRANCH  47  48
ENDBRANCH  46  47
ENDBRANCH  45  46
ENDBRANCH  44  45
ENDBRANCH  43  44
ENDBRANCH  42  43
ENDBRANCH  41  42
ENDBRANCH  40  41
ENDBRANCH  39  40
ENDBRANCH  38  39
ENDBRANCH  37  38
ENDBRANCH  36  37
ENDBRANCH  35  36
ENDBRANCH  34  35
ENDBRANCH  33  34
ENDBRANCH  32  33
ENDBRANCH  28  31
ENDBRANCH  27  28
ENDBRANCH  24  25
BRANCH  24  21
ATOM     21  C   UNK A   1      45.071  21.269  20.024  0.00  0.00    +0.253 C 
BRANCH  21  20
ATOM     19  C   UNK A   1      46.563  20.352  21.724  0.00  0.00    -0.022 C 
ATOM     20  C   UNK A   1      46.391  20.697  20.473  0.00  0.00    -0.088 C 
BRANCH  19  18
ATOM     18  C   UNK A   1      47.883  19.780  22.174  0.00  0.00    +0.044 C 
BRANCH  18  17
ATOM     17  C   UNK A   1      47.715  18.294  22.493  0.00  0.00    +0.010 C 
BRANCH  17  16
ATOM     16  C   UNK A   1      49.068  17.590  22.376  0.00  0.00    +0.001 C 
BRANCH  16  15
ATOM     15  C   UNK A   1      49.171  16.903  21.013  0.00  0.00    +0.002 C 
BRANCH  15  14
ATOM     14  C   UNK A   1      48.821  15.421  21.161  0.00  0.00    +0.000 C 
BRANCH  14  13
ATOM     13  C   UNK A   1      49.680  14.596  20.201  0.00  0.00    +0.001 C 
BRANCH  13  12
ATOM     12  C   UNK A   1      49.602  13.118  20.589  0.00  0.00    +0.000 C 
BRANCH  12  11
ATOM     11  C   UNK A   1      50.470  12.294  19.636  0.00  0.00    -0.000 C 
BRANCH  11  10
ATOM     10  C   UNK A   1      51.270  13.234  18.732  0.00  0.00    -0.000 C 
BRANCH  10   9
ATOM      9  C   UNK A   1      52.370  12.443  18.021  0.00  0.00    +0.000 C 
BRANCH   9   8
ATOM      8  C   UNK A   1      51.954  12.182  16.571  0.00  0.00    +0.000 C 
BRANCH   8   7
ATOM      7  C   UNK A   1      51.102  13.350  16.068  0.00  0.00    +0.000 C 
BRANCH   7   6
ATOM      6  C   UNK A   1      49.815  12.809  15.441  0.00  0.00    +0.000 C 
BRANCH   6   5
ATOM      5  C   UNK A   1      49.825  11.281  15.496  0.00  0.00    +0.000 C 
BRANCH   5   4
ATOM      4  C   UNK A   1      48.409  10.772  15.776  0.00  0.00    -0.000 C 
BRANCH   4   3
ATOM      3  C   UNK A   1      47.400  11.881  15.474  0.00  0.00    -0.000 C 
BRANCH   3   2
ATOM      1  C   UNK A   1      46.477  13.165  17.409  0.00  0.00    +0.006 C 
ATOM      2  C   UNK A   1      46.323  11.901  16.561  0.00  0.00    -0.006 C 
ENDBRANCH   3   2
ENDBRANCH   4   3
ENDBRANCH   5   4
ENDBRANCH   6   5
ENDBRANCH   7   6
ENDBRANCH   8   7
ENDBRANCH   9   8
ENDBRANCH  10   9
ENDBRANCH  11  10
ENDBRANCH  12  11
ENDBRANCH  13  12
ENDBRANCH  14  13
ENDBRANCH  15  14
ENDBRANCH  16  15
ENDBRANCH  17  16
ENDBRANCH  18  17
ENDBRANCH  19  18
ENDBRANCH  21  20
BRANCH  21  22
ATOM     22  O   UNK A   1      45.212  21.825  18.715  0.00  0.00    -0.528 OA
ATOM     23  H   UNK A   1      44.688  22.624  18.569  0.00  0.00    +0.368 HD
ENDBRANCH  21  22
ENDBRANCH  24  21
BRANCH  24  51
ATOM     51  C   UNK A   1      42.718  20.705  19.397  0.00  0.00    +0.172 C 
BRANCH  51  52
ATOM     52  O   UNK A   1      42.630  20.323  18.022  0.00  0.00    -0.553 OA
ATOM     53  H   UNK A   1      43.321  20.704  17.464  0.00  0.00    +0.376 HD
ENDBRANCH  51  52
ENDBRANCH  24  51
TORSDOF 42
ENDMDL
MODEL 8
REMARK VINA RESULT:      -3.3      3.341      8.311
REMARK  Name = ZINC95486369
REMARK  44 active torsions:
REMARK  status: ('A' for Active; 'I' for Inactive)
REMARK    1  A    between atoms: C1_1  and  C2_2
REMARK    2  A    between atoms: C2_2  and  C3_3
REMARK    3  A    between atoms: C3_3  and  C4_4
REMARK    4  A    between atoms: C4_4  and  C5_5
REMARK    5  A    between atoms: C5_5  and  C6_6
REMARK    6  A    between atoms: C6_6  and  C7_7
REMARK    7  A    between atoms: C7_7  and  C8_8
REMARK    8  A    between atoms: C8_8  and  C9_9
REMARK    9  A    between atoms: C9_9  and  C10_10
REMARK   10  A    between atoms: C10_10  and  C11_11
REMARK   11  A    between atoms: C11_11  and  C12_12
REMARK   12  A    between atoms: C12_12  and  C13_13
REMARK   13  A    between atoms: C13_13  and  C14_14
REMARK   14  A    between atoms: C14_14  and  C15_15
REMARK   15  A    between atoms: C15_15  and  C16_16
REMARK   16  A    between atoms: C16_16  and  C17_17
REMARK   17  A    between atoms: C17_17  and  C18_18
REMARK   18  A    between atoms: C18_18  and  C19_19
REMARK   19  A    between atoms: C20_20  and  C21_21
REMARK   20  A    between atoms: C21_21  and  C22_23
REMARK   21  A    between atoms: C21_21  and  O4_52
REMARK   22  A    between atoms: C22_23  and  C23_25
REMARK   23  A    between atoms: C22_23  and  N1_27
REMARK   24  A    between atoms: C23_25  and  O1_26
REMARK   25  A    between atoms: C24_28  and  C25_30
REMARK   26  A    between atoms: C25_30  and  C26_32
REMARK   27  A    between atoms: C25_30  and  O3_51
REMARK   28  A    between atoms: C27_33  and  C28_34
REMARK   29  A    between atoms: C28_34  and  C29_35
REMARK   30  A    between atoms: C29_35  and  C30_36
REMARK   31  A    between atoms: C30_36  and  C31_37
REMARK   32  A    between atoms: C31_37  and  C32_38
REMARK   33  A    between atoms: C32_38  and  C33_39
REMARK   34  A    between atoms: C33_39  and  C34_40
REMARK   35  A    between atoms: C34_40  and  C35_41
REMARK   36  A    between atoms: C35_41  and  C36_42
REMARK   37  A    between atoms: C36_42  and  C37_43
REMARK   38  A    between atoms: C37_43  and  C38_44
REMARK   39  A    between atoms: C38_44  and  C39_45
REMARK   40  A    between atoms: C39_45  and  C40_46
REMARK   41  A    between atoms: C40_46  and  C41_47
REMARK   42  A    between atoms: C41_47  and  C42_48
REMARK   43  A    between atoms: C42_48  and  C43_49
REMARK   44  A    between atoms: C43_49  and  C44_50
REMARK                            x       y       z     vdW  Elec       q    Type
REMARK                         _______ _______ _______ _____ _____    ______ ____
ROOT
ATOM     24  C   UNK A   1      45.971  17.403  18.849  0.00  0.00    +0.227 C 
ENDROOT
BRANCH  24  25
ATOM     25  N   UNK A   1      44.868  18.356  18.706  0.00  0.00    -0.709 N 
ATOM     26  H   UNK A   1      44.459  18.497  17.838  0.00  0.00    +0.399 HD
ATOM     27  C   UNK A   0      44.420  19.034  19.782  0.00  0.00    +0.495 C 
ATOM     50  O   UNK A   0      44.931  18.855  20.867  0.00  0.00    -0.532 OA
BRANCH  27  28
ATOM     28  C   UNK A   0      43.284  20.013  19.635  0.00  0.00    +0.258 C 
BRANCH  28  29
ATOM     29  O   UNK A   0      42.940  20.140  18.254  0.00  0.00    -0.533 OA
ATOM     30  H   UNK A   0      42.319  20.856  18.068  0.00  0.00    +0.384 HD
ENDBRANCH  28  29
BRANCH  28  31
ATOM     31  C   UNK A   0      43.704  21.356  20.174  0.00  0.00    -0.089 C 
ATOM     32  C   UNK A   0      44.423  22.163  19.435  0.00  0.00    -0.002 C 
BRANCH  32  33
ATOM     33  C   UNK A   0      44.844  23.506  19.973  0.00  0.00    +0.050 C 
BRANCH  33  34
ATOM     34  C   UNK A   0      45.261  23.360  21.438  0.00  0.00    +0.010 C 
BRANCH  34  35
ATOM     35  C   UNK A   0      46.788  23.303  21.530  0.00  0.00    +0.005 C 
BRANCH  35  36
ATOM     36  C   UNK A   0      47.224  21.877  21.876  0.00  0.00    +0.000 C 
BRANCH  36  37
ATOM     37  C   UNK A   0      47.681  21.161  20.605  0.00  0.00    +0.001 C 
BRANCH  37  38
ATOM     38  C   UNK A   0      48.877  20.262  20.927  0.00  0.00    -0.001 C 
BRANCH  38  39
ATOM     39  C   UNK A   0      49.922  21.063  21.708  0.00  0.00    +0.000 C 
BRANCH  39  40
ATOM     40  C   UNK A   0      51.316  20.510  21.409  0.00  0.00    -0.000 C 
BRANCH  40  41
ATOM     41  C   UNK A   0      51.409  19.065  21.901  0.00  0.00    +0.000 C 
BRANCH  41  42
ATOM     42  C   UNK A   0      52.233  18.240  20.912  0.00  0.00    -0.000 C 
BRANCH  42  43
ATOM     43  C   UNK A   0      51.462  18.098  19.598  0.00  0.00    +0.000 C 
BRANCH  43  44
ATOM     44  C   UNK A   0      52.448  17.914  18.444  0.00  0.00    +0.000 C 
BRANCH  44  45
ATOM     45  C   UNK A   0      51.703  17.388  17.214  0.00  0.00    +0.000 C 
BRANCH  45  46
ATOM     46  C   UNK A   0      51.142  18.567  16.416  0.00  0.00    -0.000 C 
BRANCH  46  47
ATOM     47  C   UNK A   0      52.222  19.642  16.269  0.00  0.00    -0.000 C 
BRANCH  47  48
ATOM     48  C   UNK A   0      51.575  21.027  16.331  0.00  0.00    -0.006 C 
ATOM     49  C   UNK A   0      50.981  21.250  17.724  0.00  0.00    +0.006 C 
ENDBRANCH  47  48
ENDBRANCH  46  47
ENDBRANCH  45  46
ENDBRANCH  44  45
ENDBRANCH  43  44
ENDBRANCH  42  43
ENDBRANCH  41  42
ENDBRANCH  40  41
ENDBRANCH  39  40
ENDBRANCH  38  39
ENDBRANCH  37  38
ENDBRANCH  36  37
ENDBRANCH  35  36
ENDBRANCH  34  35
ENDBRANCH  33  34
ENDBRANCH  32  33
ENDBRANCH  28  31
ENDBRANCH  27  28
ENDBRANCH  24  25
BRANCH  24  21
ATOM     21  C   UNK A   1      45.453  16.114  19.491  0.00  0.00    +0.253 C 
BRANCH  21  20
ATOM     19  C   UNK A   1      45.944  13.741  19.207  0.00  0.00    -0.022 C 
ATOM     20  C   UNK A   1      45.885  14.931  18.664  0.00  0.00    -0.088 C 
BRANCH  19  18
ATOM     18  C   UNK A   1      46.378  12.557  18.380  0.00  0.00    +0.044 C 
BRANCH  18  17
ATOM     17  C   UNK A   1      47.566  12.953  17.504  0.00  0.00    +0.010 C 
BRANCH  17  16
ATOM     16  C   UNK A   1      48.848  12.924  18.338  0.00  0.00    +0.001 C 
BRANCH  16  15
ATOM     15  C   UNK A   1      49.647  14.206  18.092  0.00  0.00    +0.002 C 
BRANCH  15  14
ATOM     14  C   UNK A   1      49.403  15.188  19.238  0.00  0.00    +0.000 C 
BRANCH  14  13
ATOM     13  C   UNK A   1      49.384  14.428  20.566  0.00  0.00    +0.001 C 
BRANCH  13  12
ATOM     12  C   UNK A   1      50.451  15.004  21.499  0.00  0.00    +0.000 C 
BRANCH  12  11
ATOM     11  C   UNK A   1      51.669  14.079  21.514  0.00  0.00    -0.000 C 
BRANCH  11  10
ATOM     10  C   UNK A   1      52.705  14.582  20.507  0.00  0.00    -0.000 C 
BRANCH  10   9
ATOM      9  C   UNK A   1      53.121  13.433  19.586  0.00  0.00    +0.000 C 
BRANCH   9   8
ATOM      8  C   UNK A   1      52.358  12.165  19.976  0.00  0.00    +0.000 C 
BRANCH   8   7
ATOM      7  C   UNK A   1      52.181  11.278  18.742  0.00  0.00    +0.000 C 
BRANCH   7   6
ATOM      6  C   UNK A   1      52.470  12.095  17.481  0.00  0.00    +0.000 C 
BRANCH   6   5
ATOM      5  C   UNK A   1      52.343  11.196  16.251  0.00  0.00    +0.000 C 
BRANCH   5   4
ATOM      4  C   UNK A   1      51.753  12.000  15.091  0.00  0.00    -0.000 C 
BRANCH   4   3
ATOM      3  C   UNK A   1      50.238  11.790  15.044  0.00  0.00    -0.000 C 
BRANCH   3   2
ATOM      1  C   UNK A   1      48.169  12.717  13.991  0.00  0.00    +0.006 C 
ATOM      2  C   UNK A   1      49.667  12.470  13.797  0.00  0.00    -0.006 C 
ENDBRANCH   3   2
ENDBRANCH   4   3
ENDBRANCH   5   4
ENDBRANCH   6   5
ENDBRANCH   7   6
ENDBRANCH   8   7
ENDBRANCH   9   8
ENDBRANCH  10   9
ENDBRANCH  11  10
ENDBRANCH  12  11
ENDBRANCH  13  12
ENDBRANCH  14  13
ENDBRANCH  15  14
ENDBRANCH  16  15
ENDBRANCH  17  16
ENDBRANCH  18  17
ENDBRANCH  19  18
ENDBRANCH  21  20
BRANCH  21  22
ATOM     22  O   UNK A   1      45.985  15.993  20.812  0.00  0.00    -0.528 OA
ATOM     23  H   UNK A   1      45.469  15.418  21.392  0.00  0.00    +0.368 HD
ENDBRANCH  21  22
ENDBRANCH  24  21
BRANCH  24  51
ATOM     51  C   UNK A   1      46.555  17.087  17.470  0.00  0.00    +0.172 C 
BRANCH  51  52
ATOM     52  O   UNK A   1      47.856  17.668  17.360  0.00  0.00    -0.553 OA
ATOM     53  H   UNK A   1      48.168  18.090  18.172  0.00  0.00    +0.376 HD
ENDBRANCH  51  52
ENDBRANCH  24  51
TORSDOF 42
ENDMDL
MODEL 9
REMARK VINA RESULT:      -3.2      2.678      7.082
REMARK  Name = ZINC95486369
REMARK  44 active torsions:
REMARK  status: ('A' for Active; 'I' for Inactive)
REMARK    1  A    between atoms: C1_1  and  C2_2
REMARK    2  A    between atoms: C2_2  and  C3_3
REMARK    3  A    between atoms: C3_3  and  C4_4
REMARK    4  A    between atoms: C4_4  and  C5_5
REMARK    5  A    between atoms: C5_5  and  C6_6
REMARK    6  A    between atoms: C6_6  and  C7_7
REMARK    7  A    between atoms: C7_7  and  C8_8
REMARK    8  A    between atoms: C8_8  and  C9_9
REMARK    9  A    between atoms: C9_9  and  C10_10
REMARK   10  A    between atoms: C10_10  and  C11_11
REMARK   11  A    between atoms: C11_11  and  C12_12
REMARK   12  A    between atoms: C12_12  and  C13_13
REMARK   13  A    between atoms: C13_13  and  C14_14
REMARK   14  A    between atoms: C14_14  and  C15_15
REMARK   15  A    between atoms: C15_15  and  C16_16
REMARK   16  A    between atoms: C16_16  and  C17_17
REMARK   17  A    between atoms: C17_17  and  C18_18
REMARK   18  A    between atoms: C18_18  and  C19_19
REMARK   19  A    between atoms: C20_20  and  C21_21
REMARK   20  A    between atoms: C21_21  and  C22_23
REMARK   21  A    between atoms: C21_21  and  O4_52
REMARK   22  A    between atoms: C22_23  and  C23_25
REMARK   23  A    between atoms: C22_23  and  N1_27
REMARK   24  A    between atoms: C23_25  and  O1_26
REMARK   25  A    between atoms: C24_28  and  C25_30
REMARK   26  A    between atoms: C25_30  and  C26_32
REMARK   27  A    between atoms: C25_30  and  O3_51
REMARK   28  A    between atoms: C27_33  and  C28_34
REMARK   29  A    between atoms: C28_34  and  C29_35
REMARK   30  A    between atoms: C29_35  and  C30_36
REMARK   31  A    between atoms: C30_36  and  C31_37
REMARK   32  A    between atoms: C31_37  and  C32_38
REMARK   33  A    between atoms: C32_38  and  C33_39
REMARK   34  A    between atoms: C33_39  and  C34_40
REMARK   35  A    between atoms: C34_40  and  C35_41
REMARK   36  A    between atoms: C35_41  and  C36_42
REMARK   37  A    between atoms: C36_42  and  C37_43
REMARK   38  A    between atoms: C37_43  and  C38_44
REMARK   39  A    between atoms: C38_44  and  C39_45
REMARK   40  A    between atoms: C39_45  and  C40_46
REMARK   41  A    between atoms: C40_46  and  C41_47
REMARK   42  A    between atoms: C41_47  and  C42_48
REMARK   43  A    between atoms: C42_48  and  C43_49
REMARK   44  A    between atoms: C43_49  and  C44_50
REMARK                            x       y       z     vdW  Elec       q    Type
REMARK                         _______ _______ _______ _____ _____    ______ ____
ROOT
ATOM     24  C   UNK A   1      46.600  15.714  18.572  0.00  0.00    +0.227 C 
ENDROOT
BRANCH  24  25
ATOM     25  N   UNK A   1      48.001  16.057  18.316  0.00  0.00    -0.709 N 
ATOM     26  H   UNK A   1      48.700  15.683  18.874  0.00  0.00    +0.399 HD
ATOM     27  C   UNK A   0      48.317  16.891  17.305  0.00  0.00    +0.495 C 
ATOM     50  O   UNK A   0      47.441  17.356  16.607  0.00  0.00    -0.532 OA
BRANCH  27  28
ATOM     28  C   UNK A   0      49.758  17.242  17.042  0.00  0.00    +0.258 C 
BRANCH  28  29
ATOM     29  O   UNK A   0      50.598  16.178  17.495  0.00  0.00    -0.533 OA
ATOM     30  H   UNK A   0      51.529  16.284  17.258  0.00  0.00    +0.384 HD
ENDBRANCH  28  29
BRANCH  28  31
ATOM     31  C   UNK A   0      50.110  18.509  17.777  0.00  0.00    -0.089 C 
ATOM     32  C   UNK A   0      50.870  19.409  17.204  0.00  0.00    -0.002 C 
BRANCH  32  33
ATOM     33  C   UNK A   0      51.223  20.676  17.939  0.00  0.00    +0.050 C 
BRANCH  33  34
ATOM     34  C   UNK A   0      52.450  20.430  18.820  0.00  0.00    +0.010 C 
BRANCH  34  35
ATOM     35  C   UNK A   0      52.474  21.454  19.957  0.00  0.00    +0.005 C 
BRANCH  35  36
ATOM     36  C   UNK A   0      52.377  20.727  21.300  0.00  0.00    +0.000 C 
BRANCH  36  37
ATOM     37  C   UNK A   0      52.176  19.231  21.056  0.00  0.00    +0.001 C 
BRANCH  37  38
ATOM     38  C   UNK A   0      51.056  18.712  21.962  0.00  0.00    -0.001 C 
BRANCH  38  39
ATOM     39  C   UNK A   0      50.009  19.810  22.159  0.00  0.00    +0.000 C 
BRANCH  39  40
ATOM     40  C   UNK A   0      48.923  19.678  21.089  0.00  0.00    -0.000 C 
BRANCH  40  41
ATOM     41  C   UNK A   0      48.554  21.065  20.563  0.00  0.00    +0.000 C 
BRANCH  41  42
ATOM     42  C   UNK A   0      47.826  20.926  19.225  0.00  0.00    -0.000 C 
BRANCH  42  43
ATOM     43  C   UNK A   0      46.902  19.707  19.270  0.00  0.00    +0.000 C 
BRANCH  43  44
ATOM     44  C   UNK A   0      45.665  19.971  18.411  0.00  0.00    +0.000 C 
BRANCH  44  45
ATOM     45  C   UNK A   0      44.412  19.917  19.289  0.00  0.00    +0.000 C 
BRANCH  45  46
ATOM     46  C   UNK A   0      44.253  21.246  20.031  0.00  0.00    -0.000 C 
BRANCH  46  47
ATOM     47  C   UNK A   0      44.549  21.037  21.518  0.00  0.00    -0.000 C 
BRANCH  47  48
ATOM     48  C   UNK A   0      45.179  22.307  22.095  0.00  0.00    -0.006 C 
ATOM     49  C   UNK A   0      45.515  23.273  20.957  0.00  0.00    +0.006 C 
ENDBRANCH  47  48
ENDBRANCH  46  47
ENDBRANCH  45  46
ENDBRANCH  44  45
ENDBRANCH  43  44
ENDBRANCH  42  43
ENDBRANCH  41  42
ENDBRANCH  40  41
ENDBRANCH  39  40
ENDBRANCH  38  39
ENDBRANCH  37  38
ENDBRANCH  36  37
ENDBRANCH  35  36
ENDBRANCH  34  35
ENDBRANCH  33  34
ENDBRANCH  32  33
ENDBRANCH  28  31
ENDBRANCH  27  28
ENDBRANCH  24  25
BRANCH  24  21
ATOM     21  C   UNK A   1      46.467  14.199  18.739  0.00  0.00    +0.253 C 
BRANCH  21  20
ATOM     19  C   UNK A   1      48.061  12.872  20.025  0.00  0.00    -0.022 C 
ATOM     20  C   UNK A   1      47.115  13.777  20.032  0.00  0.00    -0.088 C 
BRANCH  19  18
ATOM     18  C   UNK A   1      48.708  12.449  21.319  0.00  0.00    +0.044 C 
BRANCH  18  17
ATOM     17  C   UNK A   1      50.229  12.490  21.167  0.00  0.00    +0.010 C 
BRANCH  17  16
ATOM     16  C   UNK A   1      50.775  13.757  21.829  0.00  0.00    +0.001 C 
BRANCH  16  15
ATOM     15  C   UNK A   1      52.303  13.693  21.870  0.00  0.00    +0.002 C 
BRANCH  15  14
ATOM     14  C   UNK A   1      52.878  15.097  21.672  0.00  0.00    +0.000 C 
BRANCH  14  13
ATOM     13  C   UNK A   1      52.397  15.661  20.333  0.00  0.00    +0.001 C 
BRANCH  13  12
ATOM     12  C   UNK A   1      53.604  15.971  19.446  0.00  0.00    +0.000 C 
BRANCH  12  11
ATOM     11  C   UNK A   1      54.883  15.897  20.281  0.00  0.00    -0.000 C 
BRANCH  11  10
ATOM     10  C   UNK A   1      55.986  15.217  19.468  0.00  0.00    -0.000 C 
BRANCH  10   9
ATOM      9  C   UNK A   1      56.495  13.989  20.226  0.00  0.00    +0.000 C 
BRANCH   9   8
ATOM      8  C   UNK A   1      56.182  12.726  19.422  0.00  0.00    +0.000 C 
BRANCH   8   7
ATOM      7  C   UNK A   1      54.871  12.116  19.921  0.00  0.00    +0.000 C 
BRANCH   7   6
ATOM      6  C   UNK A   1      54.263  11.244  18.820  0.00  0.00    +0.000 C 
BRANCH   6   5
ATOM      5  C   UNK A   1      52.743  11.418  18.814  0.00  0.00    +0.000 C 
BRANCH   5   4
ATOM      4  C   UNK A   1      52.387  12.768  18.185  0.00  0.00    -0.000 C 
BRANCH   4   3
ATOM      3  C   UNK A   1      51.269  12.573  17.159  0.00  0.00    -0.000 C 
BRANCH   3   2
ATOM      1  C   UNK A   1      49.077  11.415  16.843  0.00  0.00    +0.006 C 
ATOM      2  C   UNK A   1      50.439  11.344  17.537  0.00  0.00    -0.006 C 
ENDBRANCH   3   2
ENDBRANCH   4   3
ENDBRANCH   5   4
ENDBRANCH   6   5
ENDBRANCH   7   6
ENDBRANCH   8   7
ENDBRANCH   9   8
ENDBRANCH  10   9
ENDBRANCH  11  10
ENDBRANCH  12  11
ENDBRANCH  13  12
ENDBRANCH  14  13
ENDBRANCH  15  14
ENDBRANCH  16  15
ENDBRANCH  17  16
ENDBRANCH  18  17
ENDBRANCH  19  18
ENDBRANCH  21  20
BRANCH  21  22
ATOM     22  O   UNK A   1      45.084  13.842  18.759  0.00  0.00    -0.528 OA
ATOM     23  H   UNK A   1      44.891  13.045  19.271  0.00  0.00    +0.368 HD
ENDBRANCH  21  22
ENDBRANCH  24  21
BRANCH  24  51
ATOM     51  C   UNK A   1      46.129  16.412  19.850  0.00  0.00    +0.172 C 
BRANCH  51  52
ATOM     52  O   UNK A   1      44.700  16.461  19.867  0.00  0.00    -0.553 OA
ATOM     53  H   UNK A   1      44.332  16.924  20.631  0.00  0.00    +0.376 HD
ENDBRANCH  51  52
ENDBRANCH  24  51
TORSDOF 42
ENDMDL
