MODEL 1
REMARK VINA RESULT:      -7.0      0.000      0.000
REMARK  Name = ZINC95485938
REMARK  10 active torsions:
REMARK  status: ('A' for Active; 'I' for Inactive)
REMARK    1  A    between atoms: C3_3  and  O11_42
REMARK    2  A    between atoms: C6_6  and  C7_7
REMARK    3  A    between atoms: C11_13  and  O10_41
REMARK    4  A    between atoms: C13_15  and  O9_40
REMARK    5  A    between atoms: C14_16  and  C16_19
REMARK    6  A    between atoms: C17_20  and  C22_27
REMARK    7  A    between atoms: C20_23  and  O4_26
REMARK    8  A    between atoms: C21_24  and  O3_25
REMARK    9  A    between atoms: C26_32  and  O8_39
REMARK   10  A    between atoms: C28_34  and  O7_38
REMARK                            x       y       z     vdW  Elec       q    Type
REMARK                         _______ _______ _______ _____ _____    ______ ____
ROOT
ATOM     21  C   UNL     1      48.036  15.706  19.399  0.00  0.00    +0.005 A 
ATOM     22  C   UNL     1      47.366  15.416  18.192  0.00  0.00    -0.046 A 
ATOM     38  C   UNL     1      46.218  16.135  17.850  0.00  0.00    +0.075 A 
ATOM     39  C   UNL     1      45.744  17.121  18.687  0.00  0.00    +0.019 A 
ATOM     40  C   UNL     1      46.401  17.411  19.877  0.00  0.00    +0.112 A 
ATOM     43  C   UNL     1      47.542  16.703  20.238  0.00  0.00    +0.093 A 
ENDROOT
BRANCH  21  20
ATOM      9  C   UNL     1      51.835  17.430  19.057  0.00  0.00    +0.239 C 
ATOM     10  C   UNL     1      53.032  16.537  18.692  0.00  0.00    +0.039 C 
ATOM     11  C   UNL     1      52.985  15.326  19.609  0.00  0.00    +0.404 C 
ATOM     12  C   UNL     1      51.659  14.757  19.876  0.00  0.00    -0.295 A 
ATOM     13  C   UNL     1      51.532  13.502  20.495  0.00  0.00    +0.232 A 
ATOM     16  C   UNL     1      50.273  12.986  20.751  0.00  0.00    -0.072 A 
ATOM     17  C   UNL     1      49.139  13.702  20.397  0.00  0.00    +0.234 A 
ATOM     20  C   UNL     1      49.252  14.952  19.774  0.00  0.00    -0.140 A 
ATOM     46  C   UNL     1      50.516  15.486  19.508  0.00  0.00    +0.228 A 
ATOM     47  O   UNL     1      53.992  14.856  20.094  0.00  0.00    -0.429 OA
ATOM     48  O   UNL     1      50.626  16.687  18.897  0.00  0.00    -0.291 OA
BRANCH   9   8
ATOM      1  C   UNL     1      51.758  19.903  18.692  0.00  0.00    +0.047 A 
ATOM      2  C   UNL     1      51.736  21.008  17.863  0.00  0.00    -0.010 A 
ATOM      3  C   UNL     1      51.768  20.842  16.486  0.00  0.00    +0.119 A 
ATOM      6  C   UNL     1      51.822  19.565  15.945  0.00  0.00    -0.009 A 
ATOM      7  C   UNL     1      51.843  18.464  16.779  0.00  0.00    +0.061 A 
ATOM      8  C   UNL     1      51.812  18.633  18.150  0.00  0.00    -0.105 A 
BRANCH   3   4
ATOM      4  O   UNL     1      51.746  21.927  15.668  0.00  0.00    -0.499 OA
ATOM      5  H   UNL     1      50.872  22.334  15.578  0.00  0.00    +0.395 HD
ENDBRANCH   3   4
ENDBRANCH   9   8
BRANCH  13  14
ATOM     14  O   UNL     1      52.638  12.798  20.838  0.00  0.00    -0.478 OA
ATOM     15  H   UNL     1      53.315  13.324  21.287  0.00  0.00    +0.405 HD
ENDBRANCH  13  14
BRANCH  17  18
ATOM     18  O   UNL     1      47.912  13.188  20.655  0.00  0.00    -0.480 OA
ATOM     19  H   UNL     1      47.775  12.299  20.300  0.00  0.00    +0.403 HD
ENDBRANCH  17  18
ENDBRANCH  21  20
BRANCH  22  23
ATOM     23  C   UNL     1      47.874  14.363  17.300  0.00  0.00    +0.209 A 
ATOM     24  C   UNL     1      47.096  13.269  17.067  0.00  0.00    -0.139 A 
ATOM     25  C   UNL     1      47.568  12.247  16.213  0.00  0.00    +0.424 A 
ATOM     26  C   UNL     1      48.901  12.428  15.611  0.00  0.00    -0.268 A 
ATOM     27  C   UNL     1      49.447  11.465  14.752  0.00  0.00    +0.218 A 
ATOM     30  C   UNL     1      50.700  11.671  14.208  0.00  0.00    -0.057 A 
ATOM     31  C   UNL     1      51.413  12.826  14.511  0.00  0.00    +0.193 A 
ATOM     34  C   UNL     1      50.879  13.783  15.361  0.00  0.00    -0.028 A 
ATOM     35  C   UNL     1      49.623  13.594  15.917  0.00  0.00    +0.182 A 
ATOM     36  O   UNL     1      46.898  11.254  15.982  0.00  0.00    -0.454 OA
ATOM     37  O   UNL     1      49.087  14.518  16.742  0.00  0.00    -0.204 OA
BRANCH  27  28
ATOM     28  O   UNL     1      48.750  10.338  14.457  0.00  0.00    -0.472 OA
ATOM     29  H   UNL     1      48.088  10.456  13.763  0.00  0.00    +0.402 HD
ENDBRANCH  27  28
BRANCH  31  32
ATOM     32  O   UNL     1      52.644  13.019  13.972  0.00  0.00    -0.487 OA
ATOM     33  H   UNL     1      52.999  13.908  14.109  0.00  0.00    +0.403 HD
ENDBRANCH  31  32
ENDBRANCH  22  23
BRANCH  40  41
ATOM     41  O   UNL     1      45.923  18.387  20.692  0.00  0.00    -0.488 OA
ATOM     42  H   UNL     1      44.960  18.468  20.686  0.00  0.00    +0.399 HD
ENDBRANCH  40  41
BRANCH  43  44
ATOM     44  O   UNL     1      48.177  16.988  21.406  0.00  0.00    -0.484 OA
ATOM     45  H   UNL     1      49.023  16.531  21.516  0.00  0.00    +0.394 HD
ENDBRANCH  43  44
TORSDOF 10
ENDMDL
MODEL 2
REMARK VINA RESULT:      -6.7      1.997      5.925
REMARK  Name = ZINC95485938
REMARK  10 active torsions:
REMARK  status: ('A' for Active; 'I' for Inactive)
REMARK    1  A    between atoms: C3_3  and  O11_42
REMARK    2  A    between atoms: C6_6  and  C7_7
REMARK    3  A    between atoms: C11_13  and  O10_41
REMARK    4  A    between atoms: C13_15  and  O9_40
REMARK    5  A    between atoms: C14_16  and  C16_19
REMARK    6  A    between atoms: C17_20  and  C22_27
REMARK    7  A    between atoms: C20_23  and  O4_26
REMARK    8  A    between atoms: C21_24  and  O3_25
REMARK    9  A    between atoms: C26_32  and  O8_39
REMARK   10  A    between atoms: C28_34  and  O7_38
REMARK                            x       y       z     vdW  Elec       q    Type
REMARK                         _______ _______ _______ _____ _____    ______ ____
ROOT
ATOM     21  C   UNL     1      49.005  12.847  14.979  0.00  0.00    +0.005 A 
ATOM     22  C   UNL     1      50.322  12.723  15.467  0.00  0.00    -0.046 A 
ATOM     38  C   UNL     1      51.392  12.701  14.569  0.00  0.00    +0.075 A 
ATOM     39  C   UNL     1      51.160  12.798  13.214  0.00  0.00    +0.019 A 
ATOM     40  C   UNL     1      49.864  12.920  12.729  0.00  0.00    +0.112 A 
ATOM     43  C   UNL     1      48.785  12.940  13.606  0.00  0.00    +0.093 A 
ENDROOT
BRANCH  21  20
ATOM      9  C   UNL     1      48.142  16.262  17.240  0.00  0.00    +0.239 C 
ATOM     10  C   UNL     1      47.557  16.097  18.651  0.00  0.00    +0.039 C 
ATOM     11  C   UNL     1      46.398  15.120  18.545  0.00  0.00    +0.404 C 
ATOM     12  C   UNL     1      46.591  13.968  17.658  0.00  0.00    -0.295 A 
ATOM     13  C   UNL     1      45.695  12.886  17.685  0.00  0.00    +0.232 A 
ATOM     16  C   UNL     1      45.885  11.813  16.832  0.00  0.00    -0.072 A 
ATOM     17  C   UNL     1      46.958  11.802  15.953  0.00  0.00    +0.234 A 
ATOM     20  C   UNL     1      47.863  12.871  15.920  0.00  0.00    -0.140 A 
ATOM     46  C   UNL     1      47.684  13.961  16.775  0.00  0.00    +0.228 A 
ATOM     47  O   UNL     1      45.367  15.285  19.163  0.00  0.00    -0.429 OA
ATOM     48  O   UNL     1      48.563  14.988  16.751  0.00  0.00    -0.291 OA
BRANCH   9   8
ATOM      1  C   UNL     1      49.259  18.347  18.058  0.00  0.00    +0.047 A 
ATOM      2  C   UNL     1      50.340  19.206  18.107  0.00  0.00    -0.010 A 
ATOM      3  C   UNL     1      51.490  18.914  17.388  0.00  0.00    +0.119 A 
ATOM      6  C   UNL     1      51.551  17.760  16.620  0.00  0.00    -0.009 A 
ATOM      7  C   UNL     1      50.467  16.904  16.574  0.00  0.00    +0.061 A 
ATOM      8  C   UNL     1      49.323  17.198  17.292  0.00  0.00    -0.105 A 
BRANCH   3   4
ATOM      4  O   UNL     1      52.554  19.758  17.434  0.00  0.00    -0.499 OA
ATOM      5  H   UNL     1      52.398  20.559  17.953  0.00  0.00    +0.395 HD
ENDBRANCH   3   4
ENDBRANCH   9   8
BRANCH  13  14
ATOM     14  O   UNL     1      44.647  12.893  18.546  0.00  0.00    -0.478 OA
ATOM     15  H   UNL     1      44.071  13.665  18.456  0.00  0.00    +0.405 HD
ENDBRANCH  13  14
BRANCH  17  18
ATOM     18  O   UNL     1      47.133  10.746  15.120  0.00  0.00    -0.480 OA
ATOM     19  H   UNL     1      47.235   9.899  15.574  0.00  0.00    +0.403 HD
ENDBRANCH  17  18
ENDBRANCH  21  20
BRANCH  22  23
ATOM     23  C   UNL     1      50.568  12.620  16.914  0.00  0.00    +0.209 A 
ATOM     24  C   UNL     1      50.281  11.447  17.545  0.00  0.00    -0.139 A 
ATOM     25  C   UNL     1      50.510  11.329  18.935  0.00  0.00    +0.424 A 
ATOM     26  C   UNL     1      51.056  12.505  19.634  0.00  0.00    -0.268 A 
ATOM     27  C   UNL     1      51.314  12.477  21.010  0.00  0.00    +0.218 A 
ATOM     30  C   UNL     1      51.827  13.601  21.630  0.00  0.00    -0.057 A 
ATOM     31  C   UNL     1      52.085  14.751  20.891  0.00  0.00    +0.193 A 
ATOM     34  C   UNL     1      51.831  14.785  19.528  0.00  0.00    -0.028 A 
ATOM     35  C   UNL     1      51.317  13.668  18.889  0.00  0.00    +0.182 A 
ATOM     36  O   UNL     1      50.265  10.294  19.532  0.00  0.00    -0.454 OA
ATOM     37  O   UNL     1      51.069  13.684  17.562  0.00  0.00    -0.204 OA
BRANCH  27  28
ATOM     28  O   UNL     1      51.062  11.354  21.730  0.00  0.00    -0.472 OA
ATOM     29  H   UNL     1      50.671  10.636  21.214  0.00  0.00    +0.402 HD
ENDBRANCH  27  28
BRANCH  31  32
ATOM     32  O   UNL     1      52.587  15.850  21.509  0.00  0.00    -0.487 OA
ATOM     33  H   UNL     1      52.158  16.677  21.251  0.00  0.00    +0.403 HD
ENDBRANCH  31  32
ENDBRANCH  22  23
BRANCH  40  41
ATOM     41  O   UNL     1      49.649  13.017  11.390  0.00  0.00    -0.488 OA
ATOM     42  H   UNL     1      49.927  13.860  11.008  0.00  0.00    +0.399 HD
ENDBRANCH  40  41
BRANCH  43  44
ATOM     44  O   UNL     1      47.518  13.053  13.124  0.00  0.00    -0.484 OA
ATOM     45  H   UNL     1      46.875  13.361  13.777  0.00  0.00    +0.394 HD
ENDBRANCH  43  44
TORSDOF 10
ENDMDL
MODEL 3
REMARK VINA RESULT:      -6.6      1.933      6.106
REMARK  Name = ZINC95485938
REMARK  10 active torsions:
REMARK  status: ('A' for Active; 'I' for Inactive)
REMARK    1  A    between atoms: C3_3  and  O11_42
REMARK    2  A    between atoms: C6_6  and  C7_7
REMARK    3  A    between atoms: C11_13  and  O10_41
REMARK    4  A    between atoms: C13_15  and  O9_40
REMARK    5  A    between atoms: C14_16  and  C16_19
REMARK    6  A    between atoms: C17_20  and  C22_27
REMARK    7  A    between atoms: C20_23  and  O4_26
REMARK    8  A    between atoms: C21_24  and  O3_25
REMARK    9  A    between atoms: C26_32  and  O8_39
REMARK   10  A    between atoms: C28_34  and  O7_38
REMARK                            x       y       z     vdW  Elec       q    Type
REMARK                         _______ _______ _______ _____ _____    ______ ____
ROOT
ATOM     21  C   UNL     1      48.982  12.979  15.221  0.00  0.00    +0.005 A 
ATOM     22  C   UNL     1      50.307  12.907  15.700  0.00  0.00    -0.046 A 
ATOM     38  C   UNL     1      51.366  12.835  14.793  0.00  0.00    +0.075 A 
ATOM     39  C   UNL     1      51.118  12.834  13.437  0.00  0.00    +0.019 A 
ATOM     40  C   UNL     1      49.815  12.906  12.960  0.00  0.00    +0.112 A 
ATOM     43  C   UNL     1      48.745  12.974  13.847  0.00  0.00    +0.093 A 
ENDROOT
BRANCH  21  20
ATOM      9  C   UNL     1      48.155  16.508  17.316  0.00  0.00    +0.239 C 
ATOM     10  C   UNL     1      47.585  16.416  18.740  0.00  0.00    +0.039 C 
ATOM     11  C   UNL     1      46.423  15.440  18.695  0.00  0.00    +0.404 C 
ATOM     12  C   UNL     1      46.602  14.243  17.866  0.00  0.00    -0.295 A 
ATOM     13  C   UNL     1      45.702  13.168  17.958  0.00  0.00    +0.232 A 
ATOM     16  C   UNL     1      45.880  12.052  17.157  0.00  0.00    -0.072 A 
ATOM     17  C   UNL     1      46.943  11.992  16.268  0.00  0.00    +0.234 A 
ATOM     20  C   UNL     1      47.851  13.055  16.171  0.00  0.00    -0.140 A 
ATOM     46  C   UNL     1      47.685  14.188  16.973  0.00  0.00    +0.228 A 
ATOM     47  O   UNL     1      45.399  15.640  19.316  0.00  0.00    -0.429 OA
ATOM     48  O   UNL     1      48.567  15.210  16.887  0.00  0.00    -0.291 OA
BRANCH   9   8
ATOM      1  C   UNL     1      50.452  17.136  16.546  0.00  0.00    +0.047 A 
ATOM      2  C   UNL     1      51.539  17.989  16.537  0.00  0.00    -0.010 A 
ATOM      3  C   UNL     1      51.513  19.152  17.293  0.00  0.00    +0.119 A 
ATOM      6  C   UNL     1      50.394  19.455  18.057  0.00  0.00    -0.009 A 
ATOM      7  C   UNL     1      49.311  18.598  18.063  0.00  0.00    +0.061 A 
ATOM      8  C   UNL     1      49.339  17.440  17.308  0.00  0.00    -0.105 A 
BRANCH   3   4
ATOM      4  O   UNL     1      52.581  19.992  17.287  0.00  0.00    -0.499 OA
ATOM      5  H   UNL     1      52.560  20.648  16.577  0.00  0.00    +0.395 HD
ENDBRANCH   3   4
ENDBRANCH   9   8
BRANCH  13  14
ATOM     14  O   UNL     1      44.665  13.222  18.828  0.00  0.00    -0.478 OA
ATOM     15  H   UNL     1      43.860  12.793  18.506  0.00  0.00    +0.405 HD
ENDBRANCH  13  14
BRANCH  17  18
ATOM     18  O   UNL     1      47.106  10.896  15.488  0.00  0.00    -0.480 OA
ATOM     19  H   UNL     1      46.291  10.584  15.072  0.00  0.00    +0.403 HD
ENDBRANCH  17  18
ENDBRANCH  21  20
BRANCH  22  23
ATOM     23  C   UNL     1      50.570  12.908  17.147  0.00  0.00    +0.209 A 
ATOM     24  C   UNL     1      51.532  13.738  17.638  0.00  0.00    -0.139 A 
ATOM     25  C   UNL     1      51.799  13.752  19.026  0.00  0.00    +0.424 A 
ATOM     26  C   UNL     1      51.006  12.849  19.878  0.00  0.00    -0.268 A 
ATOM     27  C   UNL     1      51.203  12.798  21.264  0.00  0.00    +0.218 A 
ATOM     30  C   UNL     1      50.439  11.938  22.029  0.00  0.00    -0.057 A 
ATOM     31  C   UNL     1      49.480  11.130  21.427  0.00  0.00    +0.193 A 
ATOM     34  C   UNL     1      49.280  11.176  20.055  0.00  0.00    -0.028 A 
ATOM     35  C   UNL     1      50.037  12.032  19.271  0.00  0.00    +0.182 A 
ATOM     36  O   UNL     1      52.653  14.483  19.500  0.00  0.00    -0.454 OA
ATOM     37  O   UNL     1      49.850  12.092  17.936  0.00  0.00    -0.204 OA
BRANCH  27  28
ATOM     28  O   UNL     1      52.139  13.587  21.850  0.00  0.00    -0.472 OA
ATOM     29  H   UNL     1      52.090  13.605  22.816  0.00  0.00    +0.402 HD
ENDBRANCH  27  28
BRANCH  31  32
ATOM     32  O   UNL     1      48.735  10.288  22.188  0.00  0.00    -0.487 OA
ATOM     33  H   UNL     1      48.404  10.686  23.005  0.00  0.00    +0.403 HD
ENDBRANCH  31  32
ENDBRANCH  22  23
BRANCH  40  41
ATOM     41  O   UNL     1      49.584  12.907  11.621  0.00  0.00    -0.488 OA
ATOM     42  H   UNL     1      49.982  12.160  11.154  0.00  0.00    +0.399 HD
ENDBRANCH  40  41
BRANCH  43  44
ATOM     44  O   UNL     1      47.472  13.038  13.375  0.00  0.00    -0.484 OA
ATOM     45  H   UNL     1      47.153  13.938  13.225  0.00  0.00    +0.394 HD
ENDBRANCH  43  44
TORSDOF 10
ENDMDL
MODEL 4
REMARK VINA RESULT:      -6.5      1.946      5.207
REMARK  Name = ZINC95485938
REMARK  10 active torsions:
REMARK  status: ('A' for Active; 'I' for Inactive)
REMARK    1  A    between atoms: C3_3  and  O11_42
REMARK    2  A    between atoms: C6_6  and  C7_7
REMARK    3  A    between atoms: C11_13  and  O10_41
REMARK    4  A    between atoms: C13_15  and  O9_40
REMARK    5  A    between atoms: C14_16  and  C16_19
REMARK    6  A    between atoms: C17_20  and  C22_27
REMARK    7  A    between atoms: C20_23  and  O4_26
REMARK    8  A    between atoms: C21_24  and  O3_25
REMARK    9  A    between atoms: C26_32  and  O8_39
REMARK   10  A    between atoms: C28_34  and  O7_38
REMARK                            x       y       z     vdW  Elec       q    Type
REMARK                         _______ _______ _______ _____ _____    ______ ____
ROOT
ATOM     21  C   UNL     1      49.875  16.475  19.181  0.00  0.00    +0.005 A 
ATOM     22  C   UNL     1      50.006  16.370  17.781  0.00  0.00    -0.046 A 
ATOM     38  C   UNL     1      50.544  17.435  17.056  0.00  0.00    +0.075 A 
ATOM     39  C   UNL     1      50.944  18.582  17.706  0.00  0.00    +0.019 A 
ATOM     40  C   UNL     1      50.818  18.691  19.085  0.00  0.00    +0.112 A 
ATOM     43  C   UNL     1      50.280  17.643  19.825  0.00  0.00    +0.093 A 
ENDROOT
BRANCH  21  20
ATOM      9  C   UNL     1      45.749  16.158  19.812  0.00  0.00    +0.239 C 
ATOM     10  C   UNL     1      45.238  15.560  21.132  0.00  0.00    +0.039 C 
ATOM     11  C   UNL     1      45.997  14.265  21.361  0.00  0.00    +0.404 C 
ATOM     12  C   UNL     1      47.426  14.274  21.029  0.00  0.00    -0.295 A 
ATOM     13  C   UNL     1      48.262  13.221  21.438  0.00  0.00    +0.232 A 
ATOM     16  C   UNL     1      49.605  13.241  21.104  0.00  0.00    -0.072 A 
ATOM     17  C   UNL     1      50.128  14.295  20.371  0.00  0.00    +0.234 A 
ATOM     20  C   UNL     1      49.306  15.354  19.962  0.00  0.00    -0.140 A 
ATOM     46  C   UNL     1      47.949  15.349  20.291  0.00  0.00    +0.228 A 
ATOM     47  O   UNL     1      45.448  13.274  21.797  0.00  0.00    -0.429 OA
ATOM     48  O   UNL     1      47.157  16.376  19.906  0.00  0.00    -0.291 OA
BRANCH   9   8
ATOM      1  C   UNL     1      45.493  18.294  18.534  0.00  0.00    +0.047 A 
ATOM      2  C   UNL     1      44.857  19.496  18.293  0.00  0.00    -0.010 A 
ATOM      3  C   UNL     1      43.775  19.876  19.074  0.00  0.00    +0.119 A 
ATOM      6  C   UNL     1      43.334  19.046  20.095  0.00  0.00    -0.009 A 
ATOM      7  C   UNL     1      43.975  17.844  20.331  0.00  0.00    +0.061 A 
ATOM      8  C   UNL     1      45.053  17.469  19.551  0.00  0.00    -0.105 A 
BRANCH   3   4
ATOM      4  O   UNL     1      43.147  21.058  18.840  0.00  0.00    -0.499 OA
ATOM      5  H   UNL     1      42.986  21.582  19.637  0.00  0.00    +0.395 HD
ENDBRANCH   3   4
ENDBRANCH   9   8
BRANCH  13  14
ATOM     14  O   UNL     1      47.755  12.191  22.158  0.00  0.00    -0.478 OA
ATOM     15  H   UNL     1      47.062  12.451  22.781  0.00  0.00    +0.405 HD
ENDBRANCH  13  14
BRANCH  17  18
ATOM     18  O   UNL     1      51.445  14.302  20.048  0.00  0.00    -0.480 OA
ATOM     19  H   UNL     1      51.921  13.507  20.322  0.00  0.00    +0.403 HD
ENDBRANCH  17  18
ENDBRANCH  21  20
BRANCH  22  23
ATOM     23  C   UNL     1      49.578  15.143  17.090  0.00  0.00    +0.209 A 
ATOM     24  C   UNL     1      50.490  14.459  16.344  0.00  0.00    -0.139 A 
ATOM     25  C   UNL     1      50.097  13.280  15.672  0.00  0.00    +0.424 A 
ATOM     26  C   UNL     1      48.696  12.850  15.820  0.00  0.00    -0.268 A 
ATOM     27  C   UNL     1      48.220  11.693  15.189  0.00  0.00    +0.218 A 
ATOM     30  C   UNL     1      46.898  11.323  15.352  0.00  0.00    -0.057 A 
ATOM     31  C   UNL     1      46.048  12.095  16.137  0.00  0.00    +0.193 A 
ATOM     34  C   UNL     1      46.513  13.241  16.764  0.00  0.00    -0.028 A 
ATOM     35  C   UNL     1      47.835  13.629  16.612  0.00  0.00    +0.182 A 
ATOM     36  O   UNL     1      50.888  12.642  14.996  0.00  0.00    -0.454 OA
ATOM     37  O   UNL     1      48.304  14.739  17.220  0.00  0.00    -0.204 OA
BRANCH  27  28
ATOM     28  O   UNL     1      49.051  10.942  14.423  0.00  0.00    -0.472 OA
ATOM     29  H   UNL     1      48.769  10.022  14.322  0.00  0.00    +0.402 HD
ENDBRANCH  27  28
BRANCH  31  32
ATOM     32  O   UNL     1      44.752  11.723  16.290  0.00  0.00    -0.487 OA
ATOM     33  H   UNL     1      44.571  11.259  17.119  0.00  0.00    +0.403 HD
ENDBRANCH  31  32
ENDBRANCH  22  23
BRANCH  40  41
ATOM     41  O   UNL     1      51.218  19.827  19.713  0.00  0.00    -0.488 OA
ATOM     42  H   UNL     1      51.866  19.681  20.416  0.00  0.00    +0.399 HD
ENDBRANCH  40  41
BRANCH  43  44
ATOM     44  O   UNL     1      50.154  17.758  21.174  0.00  0.00    -0.484 OA
ATOM     45  H   UNL     1      49.274  17.532  21.507  0.00  0.00    +0.394 HD
ENDBRANCH  43  44
TORSDOF 10
ENDMDL
MODEL 5
REMARK VINA RESULT:      -6.5      1.773      4.957
REMARK  Name = ZINC95485938
REMARK  10 active torsions:
REMARK  status: ('A' for Active; 'I' for Inactive)
REMARK    1  A    between atoms: C3_3  and  O11_42
REMARK    2  A    between atoms: C6_6  and  C7_7
REMARK    3  A    between atoms: C11_13  and  O10_41
REMARK    4  A    between atoms: C13_15  and  O9_40
REMARK    5  A    between atoms: C14_16  and  C16_19
REMARK    6  A    between atoms: C17_20  and  C22_27
REMARK    7  A    between atoms: C20_23  and  O4_26
REMARK    8  A    between atoms: C21_24  and  O3_25
REMARK    9  A    between atoms: C26_32  and  O8_39
REMARK   10  A    between atoms: C28_34  and  O7_38
REMARK                            x       y       z     vdW  Elec       q    Type
REMARK                         _______ _______ _______ _____ _____    ______ ____
ROOT
ATOM     21  C   UNL     1      51.455  17.703  18.461  0.00  0.00    +0.005 A 
ATOM     22  C   UNL     1      51.170  17.386  17.117  0.00  0.00    -0.046 A 
ATOM     38  C   UNL     1      51.370  18.347  16.123  0.00  0.00    +0.075 A 
ATOM     39  C   UNL     1      51.842  19.598  16.456  0.00  0.00    +0.019 A 
ATOM     40  C   UNL     1      52.125  19.915  17.779  0.00  0.00    +0.112 A 
ATOM     43  C   UNL     1      51.928  18.974  18.783  0.00  0.00    +0.093 A 
ENDROOT
BRANCH  21  20
ATOM      9  C   UNL     1      47.635  16.929  19.987  0.00  0.00    +0.239 C 
ATOM     10  C   UNL     1      47.484  16.545  21.467  0.00  0.00    +0.039 C 
ATOM     11  C   UNL     1      48.495  15.446  21.750  0.00  0.00    +0.404 C 
ATOM     12  C   UNL     1      49.816  15.594  21.130  0.00  0.00    -0.295 A 
ATOM     13  C   UNL     1      50.888  14.779  21.529  0.00  0.00    +0.232 A 
ATOM     16  C   UNL     1      52.124  14.924  20.922  0.00  0.00    -0.072 A 
ATOM     17  C   UNL     1      52.307  15.871  19.926  0.00  0.00    +0.234 A 
ATOM     20  C   UNL     1      51.248  16.694  19.523  0.00  0.00    -0.140 A 
ATOM     46  C   UNL     1      49.994  16.561  20.126  0.00  0.00    +0.228 A 
ATOM     47  O   UNL     1      48.222  14.497  22.455  0.00  0.00    -0.429 OA
ATOM     48  O   UNL     1      48.974  17.362  19.745  0.00  0.00    -0.291 OA
BRANCH   9   8
ATOM      1  C   UNL     1      45.320  17.869  19.852  0.00  0.00    +0.047 A 
ATOM      2  C   UNL     1      44.440  18.890  19.550  0.00  0.00    -0.010 A 
ATOM      3  C   UNL     1      44.919  20.093  19.053  0.00  0.00    +0.119 A 
ATOM      6  C   UNL     1      46.282  20.268  18.859  0.00  0.00    -0.009 A 
ATOM      7  C   UNL     1      47.157  19.243  19.162  0.00  0.00    +0.061 A 
ATOM      8  C   UNL     1      46.677  18.045  19.658  0.00  0.00    -0.105 A 
BRANCH   3   4
ATOM      4  O   UNL     1      44.055  21.099  18.756  0.00  0.00    -0.499 OA
ATOM      5  H   UNL     1      43.444  21.319  19.473  0.00  0.00    +0.395 HD
ENDBRANCH   3   4
ENDBRANCH   9   8
BRANCH  13  14
ATOM     14  O   UNL     1      50.713  13.855  22.504  0.00  0.00    -0.478 OA
ATOM     15  H   UNL     1      49.786  13.679  22.717  0.00  0.00    +0.405 HD
ENDBRANCH  13  14
BRANCH  17  18
ATOM     18  O   UNL     1      53.522  16.002  19.338  0.00  0.00    -0.480 OA
ATOM     19  H   UNL     1      53.498  16.446  18.480  0.00  0.00    +0.403 HD
ENDBRANCH  17  18
ENDBRANCH  21  20
BRANCH  22  23
ATOM     23  C   UNL     1      50.666  16.049  16.764  0.00  0.00    +0.209 A 
ATOM     24  C   UNL     1      51.542  15.126  16.277  0.00  0.00    -0.139 A 
ATOM     25  C   UNL     1      51.076  13.837  15.932  0.00  0.00    +0.424 A 
ATOM     26  C   UNL     1      49.641  13.562  16.123  0.00  0.00    -0.268 A 
ATOM     27  C   UNL     1      49.093  12.312  15.808  0.00  0.00    +0.218 A 
ATOM     30  C   UNL     1      47.743  12.092  16.001  0.00  0.00    -0.057 A 
ATOM     31  C   UNL     1      46.935  13.105  16.505  0.00  0.00    +0.193 A 
ATOM     34  C   UNL     1      47.471  14.345  16.819  0.00  0.00    -0.028 A 
ATOM     35  C   UNL     1      48.823  14.585  16.632  0.00  0.00    +0.182 A 
ATOM     36  O   UNL     1      51.832  12.986  15.494  0.00  0.00    -0.454 OA
ATOM     37  O   UNL     1      49.361  15.784  16.937  0.00  0.00    -0.204 OA
BRANCH  27  28
ATOM     28  O   UNL     1      49.884  11.324  15.316  0.00  0.00    -0.472 OA
ATOM     29  H   UNL     1      49.457  10.456  15.285  0.00  0.00    +0.402 HD
ENDBRANCH  27  28
BRANCH  31  32
ATOM     32  O   UNL     1      45.609  12.880  16.690  0.00  0.00    -0.487 OA
ATOM     33  H   UNL     1      45.365  11.944  16.678  0.00  0.00    +0.403 HD
ENDBRANCH  31  32
ENDBRANCH  22  23
BRANCH  40  41
ATOM     41  O   UNL     1      52.591  21.153  18.092  0.00  0.00    -0.488 OA
ATOM     42  H   UNL     1      51.915  21.752  18.436  0.00  0.00    +0.399 HD
ENDBRANCH  40  41
BRANCH  43  44
ATOM     44  O   UNL     1      52.201  19.293  20.077  0.00  0.00    -0.484 OA
ATOM     45  H   UNL     1      52.467  20.213  20.208  0.00  0.00    +0.394 HD
ENDBRANCH  43  44
TORSDOF 10
ENDMDL
MODEL 6
REMARK VINA RESULT:      -6.5      2.304      7.085
REMARK  Name = ZINC95485938
REMARK  10 active torsions:
REMARK  status: ('A' for Active; 'I' for Inactive)
REMARK    1  A    between atoms: C3_3  and  O11_42
REMARK    2  A    between atoms: C6_6  and  C7_7
REMARK    3  A    between atoms: C11_13  and  O10_41
REMARK    4  A    between atoms: C13_15  and  O9_40
REMARK    5  A    between atoms: C14_16  and  C16_19
REMARK    6  A    between atoms: C17_20  and  C22_27
REMARK    7  A    between atoms: C20_23  and  O4_26
REMARK    8  A    between atoms: C21_24  and  O3_25
REMARK    9  A    between atoms: C26_32  and  O8_39
REMARK   10  A    between atoms: C28_34  and  O7_38
REMARK                            x       y       z     vdW  Elec       q    Type
REMARK                         _______ _______ _______ _____ _____    ______ ____
ROOT
ATOM     21  C   UNL     1      49.120  18.428  18.129  0.00  0.00    +0.005 A 
ATOM     22  C   UNL     1      48.605  19.045  19.288  0.00  0.00    -0.046 A 
ATOM     38  C   UNL     1      49.229  20.185  19.799  0.00  0.00    +0.075 A 
ATOM     39  C   UNL     1      50.342  20.704  19.173  0.00  0.00    +0.019 A 
ATOM     40  C   UNL     1      50.853  20.100  18.031  0.00  0.00    +0.112 A 
ATOM     43  C   UNL     1      50.250  18.960  17.510  0.00  0.00    +0.093 A 
ENDROOT
BRANCH  21  20
ATOM      9  C   UNL     1      50.824  14.638  18.635  0.00  0.00    +0.239 C 
ATOM     10  C   UNL     1      50.654  13.587  17.527  0.00  0.00    +0.039 C 
ATOM     11  C   UNL     1      49.180  13.556  17.160  0.00  0.00    +0.404 C 
ATOM     12  C   UNL     1      48.492  14.850  17.099  0.00  0.00    -0.295 A 
ATOM     13  C   UNL     1      47.212  14.953  16.528  0.00  0.00    +0.232 A 
ATOM     16  C   UNL     1      46.572  16.180  16.490  0.00  0.00    -0.072 A 
ATOM     17  C   UNL     1      47.191  17.307  17.012  0.00  0.00    +0.234 A 
ATOM     20  C   UNL     1      48.469  17.219  17.578  0.00  0.00    -0.140 A 
ATOM     46  C   UNL     1      49.128  15.988  17.623  0.00  0.00    +0.228 A 
ATOM     47  O   UNL     1      48.603  12.514  16.929  0.00  0.00    -0.429 OA
ATOM     48  O   UNL     1      50.366  15.904  18.160  0.00  0.00    -0.291 OA
BRANCH   9   8
ATOM      1  C   UNL     1      52.977  13.600  19.375  0.00  0.00    +0.047 A 
ATOM      2  C   UNL     1      54.311  13.688  19.724  0.00  0.00    -0.010 A 
ATOM      3  C   UNL     1      54.950  14.920  19.711  0.00  0.00    +0.119 A 
ATOM      6  C   UNL     1      54.247  16.060  19.349  0.00  0.00    -0.009 A 
ATOM      7  C   UNL     1      52.912  15.966  19.002  0.00  0.00    +0.061 A 
ATOM      8  C   UNL     1      52.279  14.737  19.015  0.00  0.00    -0.105 A 
BRANCH   3   4
ATOM      4  O   UNL     1      56.261  15.010  20.054  0.00  0.00    -0.499 OA
ATOM      5  H   UNL     1      56.607  15.914  20.054  0.00  0.00    +0.395 HD
ENDBRANCH   3   4
ENDBRANCH   9   8
BRANCH  13  14
ATOM     14  O   UNL     1      46.607  13.854  16.014  0.00  0.00    -0.478 OA
ATOM     15  H   UNL     1      45.827  14.050  15.477  0.00  0.00    +0.405 HD
ENDBRANCH  13  14
BRANCH  17  18
ATOM     18  O   UNL     1      46.553  18.503  16.972  0.00  0.00    -0.480 OA
ATOM     19  H   UNL     1      46.436  18.856  16.080  0.00  0.00    +0.403 HD
ENDBRANCH  17  18
ENDBRANCH  21  20
BRANCH  22  23
ATOM     23  C   UNL     1      47.416  18.490  19.954  0.00  0.00    +0.209 A 
ATOM     24  C   UNL     1      47.540  17.329  20.655  0.00  0.00    -0.139 A 
ATOM     25  C   UNL     1      46.409  16.780  21.301  0.00  0.00    +0.424 A 
ATOM     26  C   UNL     1      45.136  17.511  21.176  0.00  0.00    -0.268 A 
ATOM     27  C   UNL     1      43.965  17.041  21.783  0.00  0.00    +0.218 A 
ATOM     30  C   UNL     1      42.790  17.755  21.643  0.00  0.00    -0.057 A 
ATOM     31  C   UNL     1      42.773  18.933  20.903  0.00  0.00    +0.193 A 
ATOM     34  C   UNL     1      43.928  19.404  20.298  0.00  0.00    -0.028 A 
ATOM     35  C   UNL     1      45.116  18.701  20.428  0.00  0.00    +0.182 A 
ATOM     36  O   UNL     1      46.483  15.742  21.939  0.00  0.00    -0.454 OA
ATOM     37  O   UNL     1      46.251  19.149  19.850  0.00  0.00    -0.204 OA
BRANCH  27  28
ATOM     28  O   UNL     1      43.984  15.891  22.505  0.00  0.00    -0.472 OA
ATOM     29  H   UNL     1      44.508  15.945  23.316  0.00  0.00    +0.402 HD
ENDBRANCH  27  28
BRANCH  31  32
ATOM     32  O   UNL     1      41.613  19.627  20.770  0.00  0.00    -0.487 OA
ATOM     33  H   UNL     1      41.353  20.113  21.564  0.00  0.00    +0.403 HD
ENDBRANCH  31  32
ENDBRANCH  22  23
BRANCH  40  41
ATOM     41  O   UNL     1      51.951  20.622  17.424  0.00  0.00    -0.488 OA
ATOM     42  H   UNL     1      52.651  19.978  17.256  0.00  0.00    +0.399 HD
ENDBRANCH  40  41
BRANCH  43  44
ATOM     44  O   UNL     1      50.758  18.370  16.395  0.00  0.00    -0.484 OA
ATOM     45  H   UNL     1      50.173  17.712  15.996  0.00  0.00    +0.394 HD
ENDBRANCH  43  44
TORSDOF 10
ENDMDL
MODEL 7
REMARK VINA RESULT:      -6.4      1.765      7.191
REMARK  Name = ZINC95485938
REMARK  10 active torsions:
REMARK  status: ('A' for Active; 'I' for Inactive)
REMARK    1  A    between atoms: C3_3  and  O11_42
REMARK    2  A    between atoms: C6_6  and  C7_7
REMARK    3  A    between atoms: C11_13  and  O10_41
REMARK    4  A    between atoms: C13_15  and  O9_40
REMARK    5  A    between atoms: C14_16  and  C16_19
REMARK    6  A    between atoms: C17_20  and  C22_27
REMARK    7  A    between atoms: C20_23  and  O4_26
REMARK    8  A    between atoms: C21_24  and  O3_25
REMARK    9  A    between atoms: C26_32  and  O8_39
REMARK   10  A    between atoms: C28_34  and  O7_38
REMARK                            x       y       z     vdW  Elec       q    Type
REMARK                         _______ _______ _______ _____ _____    ______ ____
ROOT
ATOM     21  C   UNL     1      51.869  14.616  20.161  0.00  0.00    +0.005 A 
ATOM     22  C   UNL     1      52.921  15.463  19.755  0.00  0.00    -0.046 A 
ATOM     38  C   UNL     1      54.219  14.956  19.665  0.00  0.00    +0.075 A 
ATOM     39  C   UNL     1      54.470  13.636  19.972  0.00  0.00    +0.019 A 
ATOM     40  C   UNL     1      53.437  12.798  20.372  0.00  0.00    +0.112 A 
ATOM     43  C   UNL     1      52.138  13.284  20.473  0.00  0.00    +0.093 A 
ENDROOT
BRANCH  21  20
ATOM      9  C   UNL     1      49.076  13.938  17.118  0.00  0.00    +0.239 C 
ATOM     10  C   UNL     1      48.019  15.013  16.819  0.00  0.00    +0.039 C 
ATOM     11  C   UNL     1      47.398  15.414  18.147  0.00  0.00    +0.404 C 
ATOM     12  C   UNL     1      48.312  15.537  19.288  0.00  0.00    -0.295 A 
ATOM     13  C   UNL     1      47.887  16.141  20.483  0.00  0.00    +0.232 A 
ATOM     16  C   UNL     1      48.760  16.236  21.553  0.00  0.00    -0.072 A 
ATOM     17  C   UNL     1      50.050  15.740  21.449  0.00  0.00    +0.234 A 
ATOM     20  C   UNL     1      50.489  15.140  20.261  0.00  0.00    -0.140 A 
ATOM     46  C   UNL     1      49.621  15.037  19.172  0.00  0.00    +0.228 A 
ATOM     47  O   UNL     1      46.208  15.622  18.256  0.00  0.00    -0.429 OA
ATOM     48  O   UNL     1      50.046  14.468  18.021  0.00  0.00    -0.291 OA
BRANCH   9   8
ATOM      1  C   UNL     1      49.009  12.967  14.813  0.00  0.00    +0.047 A 
ATOM      2  C   UNL     1      49.627  12.590  13.636  0.00  0.00    -0.010 A 
ATOM      3  C   UNL     1      50.993  12.775  13.480  0.00  0.00    +0.119 A 
ATOM      6  C   UNL     1      51.736  13.339  14.508  0.00  0.00    -0.009 A 
ATOM      7  C   UNL     1      51.113  13.714  15.683  0.00  0.00    +0.061 A 
ATOM      8  C   UNL     1      49.752  13.528  15.835  0.00  0.00    -0.105 A 
BRANCH   3   4
ATOM      4  O   UNL     1      51.603  12.405  12.324  0.00  0.00    -0.499 OA
ATOM      5  H   UNL     1      51.293  12.886  11.544  0.00  0.00    +0.395 HD
ENDBRANCH   3   4
ENDBRANCH   9   8
BRANCH  13  14
ATOM     14  O   UNL     1      46.627  16.630  20.586  0.00  0.00    -0.478 OA
ATOM     15  H   UNL     1      46.068  16.441  19.819  0.00  0.00    +0.405 HD
ENDBRANCH  13  14
BRANCH  17  18
ATOM     18  O   UNL     1      50.895  15.837  22.505  0.00  0.00    -0.480 OA
ATOM     19  H   UNL     1      50.451  15.858  23.364  0.00  0.00    +0.403 HD
ENDBRANCH  17  18
ENDBRANCH  21  20
BRANCH  22  23
ATOM     23  C   UNL     1      52.651  16.871  19.427  0.00  0.00    +0.209 A 
ATOM     24  C   UNL     1      52.642  17.789  20.434  0.00  0.00    -0.139 A 
ATOM     25  C   UNL     1      52.384  19.146  20.138  0.00  0.00    +0.424 A 
ATOM     26  C   UNL     1      52.135  19.498  18.729  0.00  0.00    -0.268 A 
ATOM     27  C   UNL     1      51.871  20.819  18.345  0.00  0.00    +0.218 A 
ATOM     30  C   UNL     1      51.643  21.108  17.013  0.00  0.00    -0.057 A 
ATOM     31  C   UNL     1      51.675  20.094  16.062  0.00  0.00    +0.193 A 
ATOM     34  C   UNL     1      51.935  18.784  16.435  0.00  0.00    -0.028 A 
ATOM     35  C   UNL     1      52.166  18.475  17.766  0.00  0.00    +0.182 A 
ATOM     36  O   UNL     1      52.368  19.995  21.015  0.00  0.00    -0.454 OA
ATOM     37  O   UNL     1      52.426  17.205  18.145  0.00  0.00    -0.204 OA
BRANCH  27  28
ATOM     28  O   UNL     1      51.840  21.807  19.275  0.00  0.00    -0.472 OA
ATOM     29  H   UNL     1      51.311  21.596  20.056  0.00  0.00    +0.402 HD
ENDBRANCH  27  28
BRANCH  31  32
ATOM     32  O   UNL     1      51.449  20.389  14.756  0.00  0.00    -0.487 OA
ATOM     33  H   UNL     1      51.688  19.678  14.146  0.00  0.00    +0.403 HD
ENDBRANCH  31  32
ENDBRANCH  22  23
BRANCH  40  41
ATOM     41  O   UNL     1      53.698  11.499  20.671  0.00  0.00    -0.488 OA
ATOM     42  H   UNL     1      52.958  11.034  21.085  0.00  0.00    +0.399 HD
ENDBRANCH  40  41
BRANCH  43  44
ATOM     44  O   UNL     1      51.132  12.461  20.871  0.00  0.00    -0.484 OA
ATOM     45  H   UNL     1      50.596  12.114  20.145  0.00  0.00    +0.394 HD
ENDBRANCH  43  44
TORSDOF 10
ENDMDL
MODEL 8
REMARK VINA RESULT:      -6.4      2.623      6.549
REMARK  Name = ZINC95485938
REMARK  10 active torsions:
REMARK  status: ('A' for Active; 'I' for Inactive)
REMARK    1  A    between atoms: C3_3  and  O11_42
REMARK    2  A    between atoms: C6_6  and  C7_7
REMARK    3  A    between atoms: C11_13  and  O10_41
REMARK    4  A    between atoms: C13_15  and  O9_40
REMARK    5  A    between atoms: C14_16  and  C16_19
REMARK    6  A    between atoms: C17_20  and  C22_27
REMARK    7  A    between atoms: C20_23  and  O4_26
REMARK    8  A    between atoms: C21_24  and  O3_25
REMARK    9  A    between atoms: C26_32  and  O8_39
REMARK   10  A    between atoms: C28_34  and  O7_38
REMARK                            x       y       z     vdW  Elec       q    Type
REMARK                         _______ _______ _______ _____ _____    ______ ____
ROOT
ATOM     21  C   UNL     1      49.490  15.765  18.212  0.00  0.00    +0.005 A 
ATOM     22  C   UNL     1      49.969  15.063  19.337  0.00  0.00    -0.046 A 
ATOM     38  C   UNL     1      49.200  14.037  19.890  0.00  0.00    +0.075 A 
ATOM     39  C   UNL     1      47.980  13.712  19.338  0.00  0.00    +0.019 A 
ATOM     40  C   UNL     1      47.503  14.400  18.229  0.00  0.00    +0.112 A 
ATOM     43  C   UNL     1      48.251  15.429  17.667  0.00  0.00    +0.093 A 
ENDROOT
BRANCH  21  20
ATOM      9  C   UNL     1      49.123  19.707  19.571  0.00  0.00    +0.239 C 
ATOM     10  C   UNL     1      49.295  20.862  18.572  0.00  0.00    +0.039 C 
ATOM     11  C   UNL     1      50.572  20.595  17.793  0.00  0.00    +0.404 C 
ATOM     12  C   UNL     1      50.824  19.203  17.403  0.00  0.00    -0.295 A 
ATOM     13  C   UNL     1      51.831  18.893  16.474  0.00  0.00    +0.232 A 
ATOM     16  C   UNL     1      52.063  17.572  16.128  0.00  0.00    -0.072 A 
ATOM     17  C   UNL     1      51.305  16.558  16.693  0.00  0.00    +0.234 A 
ATOM     20  C   UNL     1      50.294  16.855  17.617  0.00  0.00    -0.140 A 
ATOM     46  C   UNL     1      50.047  18.182  17.975  0.00  0.00    +0.228 A 
ATOM     47  O   UNL     1      51.342  21.488  17.508  0.00  0.00    -0.429 OA
ATOM     48  O   UNL     1      49.064  18.471  18.859  0.00  0.00    -0.291 OA
BRANCH   9   8
ATOM      1  C   UNL     1      47.326  18.858  21.091  0.00  0.00    +0.047 A 
ATOM      2  C   UNL     1      46.157  19.034  21.805  0.00  0.00    -0.010 A 
ATOM      3  C   UNL     1      45.507  20.260  21.779  0.00  0.00    +0.119 A 
ATOM      6  C   UNL     1      46.033  21.306  21.034  0.00  0.00    -0.009 A 
ATOM      7  C   UNL     1      47.202  21.124  20.321  0.00  0.00    +0.061 A 
ATOM      8  C   UNL     1      47.848  19.902  20.350  0.00  0.00    -0.105 A 
BRANCH   3   4
ATOM      4  O   UNL     1      44.356  20.435  22.481  0.00  0.00    -0.499 OA
ATOM      5  H   UNL     1      44.269  19.849  23.245  0.00  0.00    +0.395 HD
ENDBRANCH   3   4
ENDBRANCH   9   8
BRANCH  13  14
ATOM     14  O   UNL     1      52.571  19.882  15.917  0.00  0.00    -0.478 OA
ATOM     15  H   UNL     1      52.201  20.235  15.096  0.00  0.00    +0.405 HD
ENDBRANCH  13  14
BRANCH  17  18
ATOM     18  O   UNL     1      51.543  15.269  16.349  0.00  0.00    -0.480 OA
ATOM     19  H   UNL     1      52.449  14.977  16.518  0.00  0.00    +0.403 HD
ENDBRANCH  17  18
ENDBRANCH  21  20
BRANCH  22  23
ATOM     23  C   UNL     1      51.273  15.411  19.924  0.00  0.00    +0.209 A 
ATOM     24  C   UNL     1      51.316  16.339  20.921  0.00  0.00    -0.139 A 
ATOM     25  C   UNL     1      52.559  16.687  21.497  0.00  0.00    +0.424 A 
ATOM     26  C   UNL     1      53.760  16.011  20.975  0.00  0.00    -0.268 A 
ATOM     27  C   UNL     1      55.033  16.293  21.487  0.00  0.00    +0.218 A 
ATOM     30  C   UNL     1      56.135  15.638  20.972  0.00  0.00    -0.057 A 
ATOM     31  C   UNL     1      55.980  14.706  19.952  0.00  0.00    +0.193 A 
ATOM     34  C   UNL     1      54.723  14.422  19.440  0.00  0.00    -0.028 A 
ATOM     35  C   UNL     1      53.606  15.068  19.944  0.00  0.00    +0.182 A 
ATOM     36  O   UNL     1      52.635  17.513  22.391  0.00  0.00    -0.454 OA
ATOM     37  O   UNL     1      52.375  14.799  19.460  0.00  0.00    -0.204 OA
BRANCH  27  28
ATOM     28  O   UNL     1      55.182  17.204  22.483  0.00  0.00    -0.472 OA
ATOM     29  H   UNL     1      54.372  17.687  22.700  0.00  0.00    +0.402 HD
ENDBRANCH  27  28
BRANCH  31  32
ATOM     32  O   UNL     1      57.070  14.068  19.452  0.00  0.00    -0.487 OA
ATOM     33  H   UNL     1      57.910  14.486  19.685  0.00  0.00    +0.403 HD
ENDBRANCH  31  32
ENDBRANCH  22  23
BRANCH  40  41
ATOM     41  O   UNL     1      46.299  14.069  17.694  0.00  0.00    -0.488 OA
ATOM     42  H   UNL     1      46.355  13.677  16.813  0.00  0.00    +0.399 HD
ENDBRANCH  40  41
BRANCH  43  44
ATOM     44  O   UNL     1      47.777  16.103  16.585  0.00  0.00    -0.484 OA
ATOM     45  H   UNL     1      48.141  16.993  16.485  0.00  0.00    +0.394 HD
ENDBRANCH  43  44
TORSDOF 10
ENDMDL
MODEL 9
REMARK VINA RESULT:      -6.2      1.908      6.055
REMARK  Name = ZINC95485938
REMARK  10 active torsions:
REMARK  status: ('A' for Active; 'I' for Inactive)
REMARK    1  A    between atoms: C3_3  and  O11_42
REMARK    2  A    between atoms: C6_6  and  C7_7
REMARK    3  A    between atoms: C11_13  and  O10_41
REMARK    4  A    between atoms: C13_15  and  O9_40
REMARK    5  A    between atoms: C14_16  and  C16_19
REMARK    6  A    between atoms: C17_20  and  C22_27
REMARK    7  A    between atoms: C20_23  and  O4_26
REMARK    8  A    between atoms: C21_24  and  O3_25
REMARK    9  A    between atoms: C26_32  and  O8_39
REMARK   10  A    between atoms: C28_34  and  O7_38
REMARK                            x       y       z     vdW  Elec       q    Type
REMARK                         _______ _______ _______ _____ _____    ______ ____
ROOT
ATOM     21  C   UNL     1      47.936  15.919  20.559  0.00  0.00    +0.005 A 
ATOM     22  C   UNL     1      47.559  17.067  19.832  0.00  0.00    -0.046 A 
ATOM     38  C   UNL     1      46.211  17.426  19.758  0.00  0.00    +0.075 A 
ATOM     39  C   UNL     1      45.256  16.662  20.393  0.00  0.00    +0.019 A 
ATOM     40  C   UNL     1      45.622  15.530  21.110  0.00  0.00    +0.112 A 
ATOM     43  C   UNL     1      46.958  15.153  21.192  0.00  0.00    +0.093 A 
ENDROOT
BRANCH  21  20
ATOM      9  C   UNL     1      49.691  13.506  17.623  0.00  0.00    +0.239 C 
ATOM     10  C   UNL     1      50.792  12.514  18.030  0.00  0.00    +0.039 C 
ATOM     11  C   UNL     1      51.793  13.279  18.878  0.00  0.00    +0.404 C 
ATOM     12  C   UNL     1      51.241  14.243  19.836  0.00  0.00    -0.295 A 
ATOM     13  C   UNL     1      52.055  14.807  20.833  0.00  0.00    +0.232 A 
ATOM     16  C   UNL     1      51.520  15.725  21.720  0.00  0.00    -0.072 A 
ATOM     17  C   UNL     1      50.184  16.087  21.630  0.00  0.00    +0.234 A 
ATOM     20  C   UNL     1      49.360  15.527  20.644  0.00  0.00    -0.140 A 
ATOM     46  C   UNL     1      49.885  14.599  19.742  0.00  0.00    +0.228 A 
ATOM     47  O   UNL     1      52.988  13.099  18.769  0.00  0.00    -0.429 OA
ATOM     48  O   UNL     1      49.088  14.050  18.797  0.00  0.00    -0.291 OA
BRANCH   9   8
ATOM      1  C   UNL     1      48.978  12.260  15.573  0.00  0.00    +0.047 A 
ATOM      2  C   UNL     1      48.023  11.604  14.822  0.00  0.00    -0.010 A 
ATOM      3  C   UNL     1      46.729  11.476  15.306  0.00  0.00    +0.119 A 
ATOM      6  C   UNL     1      46.398  12.008  16.545  0.00  0.00    -0.009 A 
ATOM      7  C   UNL     1      47.358  12.664  17.291  0.00  0.00    +0.061 A 
ATOM      8  C   UNL     1      48.646  12.790  16.806  0.00  0.00    -0.105 A 
BRANCH   3   4
ATOM      4  O   UNL     1      45.787  10.831  14.569  0.00  0.00    -0.499 OA
ATOM      5  H   UNL     1      46.151  10.269  13.871  0.00  0.00    +0.395 HD
ENDBRANCH   3   4
ENDBRANCH   9   8
BRANCH  13  14
ATOM     14  O   UNL     1      53.360  14.452  20.926  0.00  0.00    -0.478 OA
ATOM     15  H   UNL     1      53.513  13.648  21.440  0.00  0.00    +0.405 HD
ENDBRANCH  13  14
BRANCH  17  18
ATOM     18  O   UNL     1      49.672  16.989  22.503  0.00  0.00    -0.480 OA
ATOM     19  H   UNL     1      49.574  16.653  23.404  0.00  0.00    +0.403 HD
ENDBRANCH  17  18
ENDBRANCH  21  20
BRANCH  22  23
ATOM     23  C   UNL     1      48.581  17.882  19.156  0.00  0.00    +0.209 A 
ATOM     24  C   UNL     1      48.760  19.172  19.555  0.00  0.00    -0.139 A 
ATOM     25  C   UNL     1      49.736  19.970  18.916  0.00  0.00    +0.424 A 
ATOM     26  C   UNL     1      50.519  19.347  17.834  0.00  0.00    -0.268 A 
ATOM     27  C   UNL     1      51.507  20.063  17.147  0.00  0.00    +0.218 A 
ATOM     30  C   UNL     1      52.221  19.444  16.139  0.00  0.00    -0.057 A 
ATOM     31  C   UNL     1      51.958  18.119  15.809  0.00  0.00    +0.193 A 
ATOM     34  C   UNL     1      50.980  17.404  16.485  0.00  0.00    -0.028 A 
ATOM     35  C   UNL     1      50.255  18.008  17.499  0.00  0.00    +0.182 A 
ATOM     36  O   UNL     1      49.924  21.129  19.248  0.00  0.00    -0.454 OA
ATOM     37  O   UNL     1      49.304  17.324  18.170  0.00  0.00    -0.204 OA
BRANCH  27  28
ATOM     28  O   UNL     1      51.763  21.357  17.471  0.00  0.00    -0.472 OA
ATOM     29  H   UNL     1      52.158  21.474  18.346  0.00  0.00    +0.402 HD
ENDBRANCH  27  28
BRANCH  31  32
ATOM     32  O   UNL     1      52.663  17.520  14.816  0.00  0.00    -0.487 OA
ATOM     33  H   UNL     1      53.018  16.652  15.054  0.00  0.00    +0.403 HD
ENDBRANCH  31  32
ENDBRANCH  22  23
BRANCH  40  41
ATOM     41  O   UNL     1      44.670  14.787  21.732  0.00  0.00    -0.488 OA
ATOM     42  H   UNL     1      43.927  14.545  21.164  0.00  0.00    +0.399 HD
ENDBRANCH  40  41
BRANCH  43  44
ATOM     44  O   UNL     1      47.310  14.041  21.891  0.00  0.00    -0.484 OA
ATOM     45  H   UNL     1      46.942  13.220  21.536  0.00  0.00    +0.394 HD
ENDBRANCH  43  44
TORSDOF 10
ENDMDL
