MODEL 1
REMARK VINA RESULT:      -6.8      0.000      0.000
REMARK  Name = ZINC95486367
REMARK  19 active torsions:
REMARK  status: ('A' for Active; 'I' for Inactive)
REMARK    1  A    between atoms: C1_1  and  C2_2
REMARK    2  A    between atoms: C2_2  and  C3_3
REMARK    3  A    between atoms: C3_3  and  C4_5
REMARK    4  A    between atoms: C3_3  and  C34_52
REMARK    5  A    between atoms: C4_5  and  C5_6
REMARK    6  A    between atoms: C5_6  and  C6_7
REMARK    7  A    between atoms: C6_7  and  C7_9
REMARK    8  A    between atoms: C6_7  and  C8_10
REMARK    9  A    between atoms: C12_16  and  C33_51
REMARK   10  A    between atoms: C21_27  and  C32_50
REMARK   11  A    between atoms: C24_30  and  O1_33
REMARK   12  A    between atoms: O1_33  and  C26_34
REMARK   13  A    between atoms: C27_36  and  O6_49
REMARK   14  A    between atoms: C28_38  and  O5_48
REMARK   15  A    between atoms: C29_40  and  O4_47
REMARK   16  A    between atoms: C30_42  and  C31_45
REMARK   17  A    between atoms: C31_45  and  O3_46
REMARK   18  A    between atoms: C34_52  and  C35_53
REMARK   19  A    between atoms: C34_52  and  C36_54
REMARK                            x       y       z     vdW  Elec       q    Type
REMARK                         _______ _______ _______ _____ _____    ______ ____
ROOT
ATOM     10  C   UNL     1      47.150  20.339  21.212  0.00  0.00    -0.011 C 
ATOM     11  C   UNL     1      48.143  20.976  22.206  0.00  0.00    +0.006 C 
ATOM     12  C   UNL     1      49.533  20.821  21.525  0.00  0.00    +0.010 C 
ATOM     13  C   UNL     1      49.165  21.050  20.051  0.00  0.00    -0.018 C 
ATOM     14  C   UNL     1      50.268  20.878  19.074  0.00  0.00    +0.061 C 
ATOM     15  C   UNL     1      50.423  19.491  18.500  0.00  0.00    -0.094 C 
ATOM     16  C   UNL     1      51.226  19.439  17.183  0.00  0.00    +0.091 C 
ATOM     17  C   UNL     1      51.064  18.063  16.590  0.00  0.00    -0.062 C 
ATOM     18  C   UNL     1      51.196  16.986  17.347  0.00  0.00    -0.101 C 
ATOM     19  C   UNL     1      51.496  17.157  18.839  0.00  0.00    +0.016 C 
ATOM     20  C   UNL     1      52.957  17.591  18.977  0.00  0.00    +0.026 C 
ATOM     21  C   UNL     1      51.292  15.932  19.712  0.00  0.00    +0.032 C 
ATOM     22  C   UNL     1      51.580  14.634  18.969  0.00  0.00    +0.022 C 
ATOM     23  C   UNL     1      50.624  14.543  17.772  0.00  0.00    +0.158 C 
ATOM     40  C   UNL     1      51.057  15.656  16.657  0.00  0.00    +0.082 C 
ATOM     41  C   UNL     1      50.595  18.285  19.382  0.00  0.00    -0.026 C 
ATOM     42  C   UNL     1      49.267  18.515  18.638  0.00  0.00    -0.031 C 
ATOM     43  C   UNL     1      48.069  18.818  19.511  0.00  0.00    +0.047 C 
ATOM     44  C   UNL     1      47.869  20.289  19.832  0.00  0.00    -0.039 C 
ATOM     45  C   UNL     1      47.020  20.976  18.761  0.00  0.00    +0.028 C 
ENDROOT
BRANCH  10   9
ATOM      9  C   UNL     1      45.886  21.194  21.114  0.00  0.00    -0.013 C 
ATOM     46  C   UNL     1      46.146  22.563  21.745  0.00  0.00    +0.015 C 
BRANCH   9   8
ATOM      8  C   UNL     1      44.742  20.500  21.855  0.00  0.00    +0.008 C 
BRANCH   8   7
ATOM      7  C   UNL     1      44.892  18.983  21.718  0.00  0.00    +0.008 C 
BRANCH   7   3
ATOM      3  C   UNL     1      43.890  18.463  20.684  0.00  0.00    -0.016 C 
BRANCH   3   4
ATOM      4  C   UNL     1      43.016  19.620  20.194  0.00  0.00    -0.021 C 
ATOM      5  C   UNL     1      41.540  19.242  20.342  0.00  0.00    +0.011 C 
ATOM      6  C   UNL     1      43.325  19.905  18.724  0.00  0.00    +0.009 C 
ENDBRANCH   3   4
BRANCH   3   2
ATOM      1  C   UNL     1      45.155  16.466  19.876  0.00  0.00    +0.004 C 
ATOM      2  C   UNL     1      44.647  17.859  19.500  0.00  0.00    +0.002 C 
ENDBRANCH   3   2
ENDBRANCH   7   3
ENDBRANCH   8   7
ENDBRANCH   9   8
ENDBRANCH  10   9
BRANCH  23  24
ATOM     24  O   UNL     1      50.699  13.240  17.191  0.00  0.00    -0.376 OA
BRANCH  24  25
ATOM     25  C   UNL     1      51.057  13.240  15.808  0.00  0.00    +0.315 C 
ATOM     26  C   UNL     1      51.890  11.993  15.497  0.00  0.00    +0.132 C 
ATOM     29  C   UNL     1      51.042  10.745  15.756  0.00  0.00    +0.154 C 
ATOM     32  C   UNL     1      49.767  10.821  14.908  0.00  0.00    +0.161 C 
ATOM     35  C   UNL     1      49.018  12.113  15.243  0.00  0.00    +0.204 C 
ATOM     39  O   UNL     1      49.873  13.233  15.008  0.00  0.00    -0.361 OA
BRANCH  26  27
ATOM     27  O   UNL     1      52.295  12.020  14.127  0.00  0.00    -0.529 OA
ATOM     28  H   UNL     1      51.736  11.491  13.542  0.00  0.00    +0.380 HD
ENDBRANCH  26  27
BRANCH  29  30
ATOM     30  O   UNL     1      50.692  10.683  17.142  0.00  0.00    -0.534 OA
ATOM     31  H   UNL     1      49.760  10.482  17.303  0.00  0.00    +0.384 HD
ENDBRANCH  29  30
BRANCH  32  33
ATOM     33  O   UNL     1      50.115  10.814  13.523  0.00  0.00    -0.529 OA
ATOM     34  H   UNL     1      50.705  11.533  13.262  0.00  0.00    +0.377 HD
ENDBRANCH  32  33
BRANCH  35  36
ATOM     36  C   UNL     1      47.775  12.225  14.357  0.00  0.00    +0.206 C 
BRANCH  36  37
ATOM     37  O   UNL     1      48.087  12.994  13.193  0.00  0.00    -0.565 OA
ATOM     38  H   UNL     1      48.484  13.855  13.386  0.00  0.00    +0.380 HD
ENDBRANCH  36  37
ENDBRANCH  35  36
ENDBRANCH  24  25
ENDBRANCH  23  24
TORSDOF 13
ENDMDL
MODEL 2
REMARK VINA RESULT:      -6.6      1.414      1.571
REMARK  Name = ZINC95486367
REMARK  19 active torsions:
REMARK  status: ('A' for Active; 'I' for Inactive)
REMARK    1  A    between atoms: C1_1  and  C2_2
REMARK    2  A    between atoms: C2_2  and  C3_3
REMARK    3  A    between atoms: C3_3  and  C4_5
REMARK    4  A    between atoms: C3_3  and  C34_52
REMARK    5  A    between atoms: C4_5  and  C5_6
REMARK    6  A    between atoms: C5_6  and  C6_7
REMARK    7  A    between atoms: C6_7  and  C7_9
REMARK    8  A    between atoms: C6_7  and  C8_10
REMARK    9  A    between atoms: C12_16  and  C33_51
REMARK   10  A    between atoms: C21_27  and  C32_50
REMARK   11  A    between atoms: C24_30  and  O1_33
REMARK   12  A    between atoms: O1_33  and  C26_34
REMARK   13  A    between atoms: C27_36  and  O6_49
REMARK   14  A    between atoms: C28_38  and  O5_48
REMARK   15  A    between atoms: C29_40  and  O4_47
REMARK   16  A    between atoms: C30_42  and  C31_45
REMARK   17  A    between atoms: C31_45  and  O3_46
REMARK   18  A    between atoms: C34_52  and  C35_53
REMARK   19  A    between atoms: C34_52  and  C36_54
REMARK                            x       y       z     vdW  Elec       q    Type
REMARK                         _______ _______ _______ _____ _____    ______ ____
ROOT
ATOM     10  C   UNL     1      47.930  19.961  21.278  0.00  0.00    -0.011 C 
ATOM     11  C   UNL     1      48.899  20.141  22.466  0.00  0.00    +0.006 C 
ATOM     12  C   UNL     1      50.305  19.838  21.874  0.00  0.00    +0.010 C 
ATOM     13  C   UNL     1      50.171  20.451  20.472  0.00  0.00    -0.018 C 
ATOM     14  C   UNL     1      51.331  20.257  19.567  0.00  0.00    +0.061 C 
ATOM     15  C   UNL     1      51.284  19.025  18.697  0.00  0.00    -0.094 C 
ATOM     16  C   UNL     1      52.217  19.083  17.469  0.00  0.00    +0.091 C 
ATOM     17  C   UNL     1      51.865  17.934  16.559  0.00  0.00    -0.062 C 
ATOM     18  C   UNL     1      51.693  16.718  17.050  0.00  0.00    -0.101 C 
ATOM     19  C   UNL     1      51.834  16.497  18.559  0.00  0.00    +0.016 C 
ATOM     20  C   UNL     1      53.324  16.565  18.904  0.00  0.00    +0.026 C 
ATOM     21  C   UNL     1      51.292  15.188  19.102  0.00  0.00    +0.032 C 
ATOM     22  C   UNL     1      51.412  14.048  18.099  0.00  0.00    +0.022 C 
ATOM     23  C   UNL     1      50.610  14.424  16.846  0.00  0.00    +0.158 C 
ATOM     40  C   UNL     1      51.384  15.629  16.059  0.00  0.00    +0.082 C 
ATOM     41  C   UNL     1      51.110  17.651  19.282  0.00  0.00    -0.026 C 
ATOM     42  C   UNL     1      49.953  18.316  18.515  0.00  0.00    -0.031 C 
ATOM     43  C   UNL     1      48.738  18.677  19.342  0.00  0.00    +0.047 C 
ATOM     44  C   UNL     1      48.789  20.053  19.983  0.00  0.00    -0.039 C 
ATOM     45  C   UNL     1      48.227  21.120  19.043  0.00  0.00    +0.028 C 
ENDROOT
BRANCH  10   9
ATOM      9  C   UNL     1      46.877  21.070  21.289  0.00  0.00    -0.013 C 
ATOM     46  C   UNL     1      47.277  22.144  22.304  0.00  0.00    +0.015 C 
BRANCH   9   8
ATOM      8  C   UNL     1      45.520  20.481  21.677  0.00  0.00    +0.008 C 
BRANCH   8   7
ATOM      7  C   UNL     1      45.437  19.030  21.197  0.00  0.00    +0.008 C 
BRANCH   7   3
ATOM      3  C   UNL     1      44.328  18.902  20.150  0.00  0.00    -0.016 C 
BRANCH   3   4
ATOM      4  C   UNL     1      43.047  19.547  20.683  0.00  0.00    -0.021 C 
ATOM      5  C   UNL     1      42.290  18.539  21.550  0.00  0.00    +0.011 C 
ATOM      6  C   UNL     1      42.165  19.974  19.509  0.00  0.00    +0.009 C 
ENDBRANCH   3   4
BRANCH   3   2
ATOM      1  C   UNL     1      45.580  18.646  18.004  0.00  0.00    +0.004 C 
ATOM      2  C   UNL     1      44.758  19.608  18.863  0.00  0.00    +0.002 C 
ENDBRANCH   3   2
ENDBRANCH   7   3
ENDBRANCH   8   7
ENDBRANCH   9   8
ENDBRANCH  10   9
BRANCH  23  24
ATOM     24  O   UNL     1      50.502  13.291  15.983  0.00  0.00    -0.376 OA
BRANCH  24  25
ATOM     25  C   UNL     1      51.724  12.936  15.333  0.00  0.00    +0.315 C 
ATOM     26  C   UNL     1      51.950  11.427  15.460  0.00  0.00    +0.132 C 
ATOM     29  C   UNL     1      50.814  10.687  14.747  0.00  0.00    +0.154 C 
ATOM     32  C   UNL     1      50.756  11.147  13.287  0.00  0.00    +0.161 C 
ATOM     35  C   UNL     1      50.576  12.666  13.245  0.00  0.00    +0.204 C 
ATOM     39  O   UNL     1      51.649  13.292  13.951  0.00  0.00    -0.361 OA
BRANCH  26  27
ATOM     27  O   UNL     1      53.198  11.080  14.857  0.00  0.00    -0.529 OA
ATOM     28  H   UNL     1      53.554  10.230  15.152  0.00  0.00    +0.380 HD
ENDBRANCH  26  27
BRANCH  29  30
ATOM     30  O   UNL     1      49.572  10.983  15.393  0.00  0.00    -0.534 OA
ATOM     31  H   UNL     1      48.793  10.747  14.871  0.00  0.00    +0.384 HD
ENDBRANCH  29  30
BRANCH  32  33
ATOM     33  O   UNL     1      51.971  10.790  12.625  0.00  0.00    -0.529 OA
ATOM     34  H   UNL     1      51.869  10.626  11.678  0.00  0.00    +0.377 HD
ENDBRANCH  32  33
BRANCH  35  36
ATOM     36  C   UNL     1      50.577  13.140  11.790  0.00  0.00    +0.206 C 
BRANCH  36  37
ATOM     37  O   UNL     1      51.906  13.502  11.408  0.00  0.00    -0.565 OA
ATOM     38  H   UNL     1      52.129  14.425  11.588  0.00  0.00    +0.380 HD
ENDBRANCH  36  37
ENDBRANCH  35  36
ENDBRANCH  24  25
ENDBRANCH  23  24
TORSDOF 13
ENDMDL
MODEL 3
REMARK VINA RESULT:      -5.9      2.058      5.593
REMARK  Name = ZINC95486367
REMARK  19 active torsions:
REMARK  status: ('A' for Active; 'I' for Inactive)
REMARK    1  A    between atoms: C1_1  and  C2_2
REMARK    2  A    between atoms: C2_2  and  C3_3
REMARK    3  A    between atoms: C3_3  and  C4_5
REMARK    4  A    between atoms: C3_3  and  C34_52
REMARK    5  A    between atoms: C4_5  and  C5_6
REMARK    6  A    between atoms: C5_6  and  C6_7
REMARK    7  A    between atoms: C6_7  and  C7_9
REMARK    8  A    between atoms: C6_7  and  C8_10
REMARK    9  A    between atoms: C12_16  and  C33_51
REMARK   10  A    between atoms: C21_27  and  C32_50
REMARK   11  A    between atoms: C24_30  and  O1_33
REMARK   12  A    between atoms: O1_33  and  C26_34
REMARK   13  A    between atoms: C27_36  and  O6_49
REMARK   14  A    between atoms: C28_38  and  O5_48
REMARK   15  A    between atoms: C29_40  and  O4_47
REMARK   16  A    between atoms: C30_42  and  C31_45
REMARK   17  A    between atoms: C31_45  and  O3_46
REMARK   18  A    between atoms: C34_52  and  C35_53
REMARK   19  A    between atoms: C34_52  and  C36_54
REMARK                            x       y       z     vdW  Elec       q    Type
REMARK                         _______ _______ _______ _____ _____    ______ ____
ROOT
ATOM     10  C   UNL     1      48.039  19.170  19.025  0.00  0.00    -0.011 C 
ATOM     11  C   UNL     1      46.536  19.517  19.038  0.00  0.00    +0.006 C 
ATOM     12  C   UNL     1      45.828  18.178  19.394  0.00  0.00    +0.010 C 
ATOM     13  C   UNL     1      46.820  17.580  20.404  0.00  0.00    -0.018 C 
ATOM     14  C   UNL     1      46.501  16.218  20.896  0.00  0.00    +0.061 C 
ATOM     15  C   UNL     1      47.096  15.079  20.105  0.00  0.00    -0.094 C 
ATOM     16  C   UNL     1      47.157  13.741  20.871  0.00  0.00    +0.091 C 
ATOM     17  C   UNL     1      48.012  12.786  20.078  0.00  0.00    -0.062 C 
ATOM     18  C   UNL     1      47.839  12.654  18.773  0.00  0.00    -0.101 C 
ATOM     19  C   UNL     1      46.770  13.502  18.075  0.00  0.00    +0.016 C 
ATOM     20  C   UNL     1      45.401  12.927  18.445  0.00  0.00    +0.026 C 
ATOM     21  C   UNL     1      46.850  13.572  16.561  0.00  0.00    +0.032 C 
ATOM     22  C   UNL     1      47.400  12.291  15.948  0.00  0.00    +0.022 C 
ATOM     23  C   UNL     1      48.814  12.063  16.499  0.00  0.00    +0.158 C 
ATOM     40  C   UNL     1      48.712  11.647  18.076  0.00  0.00    +0.082 C 
ATOM     41  C   UNL     1      46.865  14.940  18.626  0.00  0.00    -0.026 C 
ATOM     42  C   UNL     1      48.243  15.378  19.154  0.00  0.00    -0.031 C 
ATOM     43  C   UNL     1      48.653  16.797  18.822  0.00  0.00    +0.047 C 
ATOM     44  C   UNL     1      48.199  17.843  19.824  0.00  0.00    -0.039 C 
ATOM     45  C   UNL     1      49.226  18.014  20.945  0.00  0.00    +0.028 C 
ENDROOT
BRANCH  10   9
ATOM      9  C   UNL     1      48.840  20.286  19.697  0.00  0.00    -0.013 C 
ATOM     46  C   UNL     1      47.894  21.180  20.502  0.00  0.00    +0.015 C 
BRANCH   9   8
ATOM      8  C   UNL     1      49.547  21.122  18.628  0.00  0.00    +0.008 C 
BRANCH   8   7
ATOM      7  C   UNL     1      50.616  20.271  17.939  0.00  0.00    +0.008 C 
BRANCH   7   3
ATOM      3  C   UNL     1      51.684  19.871  18.959  0.00  0.00    -0.016 C 
BRANCH   3   4
ATOM      4  C   UNL     1      52.499  18.697  18.411  0.00  0.00    -0.021 C 
ATOM      5  C   UNL     1      51.852  18.187  17.120  0.00  0.00    +0.011 C 
ATOM      6  C   UNL     1      52.530  17.571  19.445  0.00  0.00    +0.009 C 
ENDBRANCH   3   4
BRANCH   3   2
ATOM      1  C   UNL     1      52.559  21.434  20.700  0.00  0.00    +0.004 C 
ATOM      2  C   UNL     1      52.612  21.059  19.217  0.00  0.00    +0.002 C 
ENDBRANCH   3   2
ENDBRANCH   7   3
ENDBRANCH   8   7
ENDBRANCH   9   8
ENDBRANCH  10   9
BRANCH  23  24
ATOM     24  O   UNL     1      49.452  11.010  15.774  0.00  0.00    -0.376 OA
BRANCH  24  25
ATOM     25  C   UNL     1      50.879  11.047  15.831  0.00  0.00    +0.315 C 
ATOM     26  C   UNL     1      51.453  10.723  14.448  0.00  0.00    +0.132 C 
ATOM     29  C   UNL     1      50.999  11.793  13.452  0.00  0.00    +0.154 C 
ATOM     32  C   UNL     1      51.444  13.169  13.958  0.00  0.00    +0.161 C 
ATOM     35  C   UNL     1      50.871  13.399  15.359  0.00  0.00    +0.204 C 
ATOM     39  O   UNL     1      51.306  12.352  16.228  0.00  0.00    -0.361 OA
BRANCH  26  27
ATOM     27  O   UNL     1      52.880  10.707  14.516  0.00  0.00    -0.529 OA
ATOM     28  H   UNL     1      53.231  10.288  15.314  0.00  0.00    +0.380 HD
ENDBRANCH  26  27
BRANCH  29  30
ATOM     30  O   UNL     1      49.574  11.764  13.334  0.00  0.00    -0.534 OA
ATOM     31  H   UNL     1      49.256  11.751  12.421  0.00  0.00    +0.384 HD
ENDBRANCH  29  30
BRANCH  32  33
ATOM     33  O   UNL     1      52.871  13.220  14.011  0.00  0.00    -0.529 OA
ATOM     34  H   UNL     1      53.263  13.881  13.425  0.00  0.00    +0.377 HD
ENDBRANCH  32  33
BRANCH  35  36
ATOM     36  C   UNL     1      51.360  14.745  15.895  0.00  0.00    +0.206 C 
BRANCH  36  37
ATOM     37  O   UNL     1      51.392  14.705  17.324  0.00  0.00    -0.565 OA
ATOM     38  H   UNL     1      51.007  13.904  17.704  0.00  0.00    +0.380 HD
ENDBRANCH  36  37
ENDBRANCH  35  36
ENDBRANCH  24  25
ENDBRANCH  23  24
TORSDOF 13
ENDMDL
MODEL 4
REMARK VINA RESULT:      -5.8      1.262      1.823
REMARK  Name = ZINC95486367
REMARK  19 active torsions:
REMARK  status: ('A' for Active; 'I' for Inactive)
REMARK    1  A    between atoms: C1_1  and  C2_2
REMARK    2  A    between atoms: C2_2  and  C3_3
REMARK    3  A    between atoms: C3_3  and  C4_5
REMARK    4  A    between atoms: C3_3  and  C34_52
REMARK    5  A    between atoms: C4_5  and  C5_6
REMARK    6  A    between atoms: C5_6  and  C6_7
REMARK    7  A    between atoms: C6_7  and  C7_9
REMARK    8  A    between atoms: C6_7  and  C8_10
REMARK    9  A    between atoms: C12_16  and  C33_51
REMARK   10  A    between atoms: C21_27  and  C32_50
REMARK   11  A    between atoms: C24_30  and  O1_33
REMARK   12  A    between atoms: O1_33  and  C26_34
REMARK   13  A    between atoms: C27_36  and  O6_49
REMARK   14  A    between atoms: C28_38  and  O5_48
REMARK   15  A    between atoms: C29_40  and  O4_47
REMARK   16  A    between atoms: C30_42  and  C31_45
REMARK   17  A    between atoms: C31_45  and  O3_46
REMARK   18  A    between atoms: C34_52  and  C35_53
REMARK   19  A    between atoms: C34_52  and  C36_54
REMARK                            x       y       z     vdW  Elec       q    Type
REMARK                         _______ _______ _______ _____ _____    ______ ____
ROOT
ATOM     10  C   UNL     1      46.241  20.092  20.869  0.00  0.00    -0.011 C 
ATOM     11  C   UNL     1      46.995  20.680  22.080  0.00  0.00    +0.006 C 
ATOM     12  C   UNL     1      48.495  20.628  21.670  0.00  0.00    +0.010 C 
ATOM     13  C   UNL     1      48.402  20.964  20.174  0.00  0.00    -0.018 C 
ATOM     14  C   UNL     1      49.677  20.909  19.417  0.00  0.00    +0.061 C 
ATOM     15  C   UNL     1      50.006  19.579  18.784  0.00  0.00    -0.094 C 
ATOM     16  C   UNL     1      51.046  19.662  17.646  0.00  0.00    +0.091 C 
ATOM     17  C   UNL     1      51.067  18.333  16.934  0.00  0.00    -0.062 C 
ATOM     18  C   UNL     1      51.105  17.203  17.621  0.00  0.00    -0.101 C 
ATOM     19  C   UNL     1      51.108  17.263  19.152  0.00  0.00    +0.016 C 
ATOM     20  C   UNL     1      52.493  17.734  19.600  0.00  0.00    +0.026 C 
ATOM     21  C   UNL     1      50.802  15.965  19.876  0.00  0.00    +0.032 C 
ATOM     22  C   UNL     1      51.288  14.742  19.110  0.00  0.00    +0.022 C 
ATOM     23  C   UNL     1      50.582  14.717  17.748  0.00  0.00    +0.158 C 
ATOM     40  C   UNL     1      51.164  15.930  16.821  0.00  0.00    +0.082 C 
ATOM     41  C   UNL     1      50.066  18.312  19.591  0.00  0.00    -0.026 C 
ATOM     42  C   UNL     1      48.894  18.557  18.625  0.00  0.00    -0.031 C 
ATOM     43  C   UNL     1      47.539  18.747  19.270  0.00  0.00    +0.047 C 
ATOM     44  C   UNL     1      47.210  20.179  19.654  0.00  0.00    -0.039 C 
ATOM     45  C   UNL     1      46.547  20.922  18.492  0.00  0.00    +0.028 C 
ENDROOT
BRANCH  10   9
ATOM      9  C   UNL     1      44.978  20.909  20.592  0.00  0.00    -0.013 C 
ATOM     46  C   UNL     1      44.825  21.991  21.664  0.00  0.00    +0.015 C 
BRANCH   9   8
ATOM      8  C   UNL     1      43.758  19.987  20.619  0.00  0.00    +0.008 C 
BRANCH   8   7
ATOM      7  C   UNL     1      43.071  20.010  19.251  0.00  0.00    +0.008 C 
BRANCH   7   3
ATOM      3  C   UNL     1      41.567  20.220  19.439  0.00  0.00    -0.016 C 
BRANCH   3   4
ATOM      4  C   UNL     1      41.104  21.395  18.576  0.00  0.00    -0.021 C 
ATOM      5  C   UNL     1      41.966  22.623  18.882  0.00  0.00    +0.011 C 
ATOM      6  C   UNL     1      39.640  21.711  18.886  0.00  0.00    +0.009 C 
ENDBRANCH   3   4
BRANCH   3   2
ATOM      1  C   UNL     1      40.511  19.017  17.522  0.00  0.00    +0.004 C 
ATOM      2  C   UNL     1      40.819  18.953  19.019  0.00  0.00    +0.002 C 
ENDBRANCH   3   2
ENDBRANCH   7   3
ENDBRANCH   8   7
ENDBRANCH   9   8
ENDBRANCH  10   9
BRANCH  23  24
ATOM     24  O   UNL     1      50.829  13.468  17.098  0.00  0.00    -0.376 OA
BRANCH  24  25
ATOM     25  C   UNL     1      50.816  13.543  15.671  0.00  0.00    +0.315 C 
ATOM     26  C   UNL     1      51.836  12.554  15.099  0.00  0.00    +0.132 C 
ATOM     29  C   UNL     1      51.430  11.130  15.493  0.00  0.00    +0.154 C 
ATOM     32  C   UNL     1      50.009  10.858  14.990  0.00  0.00    +0.161 C 
ATOM     35  C   UNL     1      49.061  11.913  15.566  0.00  0.00    +0.204 C 
ATOM     39  O   UNL     1      49.512  13.215  15.188  0.00  0.00    -0.361 OA
BRANCH  26  27
ATOM     27  O   UNL     1      51.862  12.666  13.676  0.00  0.00    -0.529 OA
ATOM     28  H   UNL     1      52.566  12.154  13.254  0.00  0.00    +0.380 HD
ENDBRANCH  26  27
BRANCH  29  30
ATOM     30  O   UNL     1      51.468  10.999  16.917  0.00  0.00    -0.534 OA
ATOM     31  H   UNL     1      51.103  10.165  17.244  0.00  0.00    +0.384 HD
ENDBRANCH  29  30
BRANCH  32  33
ATOM     33  O   UNL     1      49.987  10.923  13.563  0.00  0.00    -0.529 OA
ATOM     34  H   UNL     1      49.186  11.324  13.200  0.00  0.00    +0.377 HD
ENDBRANCH  32  33
BRANCH  35  36
ATOM     36  C   UNL     1      47.650  11.683  15.021  0.00  0.00    +0.206 C 
BRANCH  36  37
ATOM     37  O   UNL     1      47.389  10.279  14.950  0.00  0.00    -0.565 OA
ATOM     38  H   UNL     1      47.722   9.779  15.707  0.00  0.00    +0.380 HD
ENDBRANCH  36  37
ENDBRANCH  35  36
ENDBRANCH  24  25
ENDBRANCH  23  24
TORSDOF 13
ENDMDL
MODEL 5
REMARK VINA RESULT:      -5.7      4.832      9.994
REMARK  Name = ZINC95486367
REMARK  19 active torsions:
REMARK  status: ('A' for Active; 'I' for Inactive)
REMARK    1  A    between atoms: C1_1  and  C2_2
REMARK    2  A    between atoms: C2_2  and  C3_3
REMARK    3  A    between atoms: C3_3  and  C4_5
REMARK    4  A    between atoms: C3_3  and  C34_52
REMARK    5  A    between atoms: C4_5  and  C5_6
REMARK    6  A    between atoms: C5_6  and  C6_7
REMARK    7  A    between atoms: C6_7  and  C7_9
REMARK    8  A    between atoms: C6_7  and  C8_10
REMARK    9  A    between atoms: C12_16  and  C33_51
REMARK   10  A    between atoms: C21_27  and  C32_50
REMARK   11  A    between atoms: C24_30  and  O1_33
REMARK   12  A    between atoms: O1_33  and  C26_34
REMARK   13  A    between atoms: C27_36  and  O6_49
REMARK   14  A    between atoms: C28_38  and  O5_48
REMARK   15  A    between atoms: C29_40  and  O4_47
REMARK   16  A    between atoms: C30_42  and  C31_45
REMARK   17  A    between atoms: C31_45  and  O3_46
REMARK   18  A    between atoms: C34_52  and  C35_53
REMARK   19  A    between atoms: C34_52  and  C36_54
REMARK                            x       y       z     vdW  Elec       q    Type
REMARK                         _______ _______ _______ _____ _____    ______ ____
ROOT
ATOM     10  C   UNL     1      51.555  13.124  21.204  0.00  0.00    -0.011 C 
ATOM     11  C   UNL     1      50.969  11.822  21.787  0.00  0.00    +0.006 C 
ATOM     12  C   UNL     1      49.651  11.596  20.993  0.00  0.00    +0.010 C 
ATOM     13  C   UNL     1      50.064  12.076  19.594  0.00  0.00    -0.018 C 
ATOM     14  C   UNL     1      48.991  12.091  18.570  0.00  0.00    +0.061 C 
ATOM     15  C   UNL     1      48.219  13.383  18.449  0.00  0.00    -0.094 C 
ATOM     16  C   UNL     1      47.463  13.543  17.113  0.00  0.00    +0.091 C 
ATOM     17  C   UNL     1      46.980  14.968  17.018  0.00  0.00    -0.062 C 
ATOM     18  C   UNL     1      46.385  15.546  18.048  0.00  0.00    -0.101 C 
ATOM     19  C   UNL     1      46.213  14.754  19.349  0.00  0.00    +0.016 C 
ATOM     20  C   UNL     1      45.107  13.720  19.124  0.00  0.00    +0.026 C 
ATOM     21  C   UNL     1      45.854  15.558  20.584  0.00  0.00    +0.032 C 
ATOM     22  C   UNL     1      45.002  16.778  20.257  0.00  0.00    +0.022 C 
ATOM     23  C   UNL     1      45.799  17.679  19.305  0.00  0.00    +0.158 C 
ATOM     40  C   UNL     1      45.901  16.956  17.844  0.00  0.00    +0.082 C 
ATOM     41  C   UNL     1      47.533  14.007  19.632  0.00  0.00    -0.026 C 
ATOM     42  C   UNL     1      48.812  14.642  19.058  0.00  0.00    -0.031 C 
ATOM     43  C   UNL     1      50.029  14.595  19.957  0.00  0.00    +0.047 C 
ATOM     44  C   UNL     1      50.875  13.341  19.821  0.00  0.00    -0.039 C 
ATOM     45  C   UNL     1      51.929  13.504  18.725  0.00  0.00    +0.028 C 
ENDROOT
BRANCH  10   9
ATOM      9  C   UNL     1      53.068  12.984  21.027  0.00  0.00    -0.013 C 
ATOM     46  C   UNL     1      53.488  11.546  21.339  0.00  0.00    +0.015 C 
BRANCH   9   8
ATOM      8  C   UNL     1      53.784  13.943  21.981  0.00  0.00    +0.008 C 
BRANCH   8   7
ATOM      7  C   UNL     1      53.393  15.384  21.644  0.00  0.00    +0.008 C 
BRANCH   7   3
ATOM      3  C   UNL     1      54.528  16.050  20.862  0.00  0.00    -0.016 C 
BRANCH   3   4
ATOM      4  C   UNL     1      55.783  15.180  20.945  0.00  0.00    -0.021 C 
ATOM      5  C   UNL     1      56.881  15.938  21.696  0.00  0.00    +0.011 C 
ATOM      6  C   UNL     1      56.268  14.848  19.533  0.00  0.00    +0.009 C 
ENDBRANCH   3   4
BRANCH   3   2
ATOM      1  C   UNL     1      52.838  17.050  19.317  0.00  0.00    +0.004 C 
ATOM      2  C   UNL     1      54.113  16.208  19.398  0.00  0.00    +0.002 C 
ENDBRANCH   3   2
ENDBRANCH   7   3
ENDBRANCH   8   7
ENDBRANCH   9   8
ENDBRANCH  10   9
BRANCH  23  24
ATOM     24  O   UNL     1      45.138  18.937  19.163  0.00  0.00    -0.376 OA
BRANCH  24  25
ATOM     25  C   UNL     1      44.652  19.481  20.392  0.00  0.00    +0.315 C 
ATOM     26  C   UNL     1      45.570  20.620  20.845  0.00  0.00    +0.132 C 
ATOM     29  C   UNL     1      45.537  21.737  19.798  0.00  0.00    +0.154 C 
ATOM     32  C   UNL     1      44.089  22.199  19.604  0.00  0.00    +0.161 C 
ATOM     35  C   UNL     1      43.230  20.999  19.199  0.00  0.00    +0.204 C 
ATOM     39  O   UNL     1      43.328  19.984  20.200  0.00  0.00    -0.361 OA
BRANCH  26  27
ATOM     27  O   UNL     1      45.116  21.127  22.100  0.00  0.00    -0.529 OA
ATOM     28  H   UNL     1      44.434  20.585  22.521  0.00  0.00    +0.380 HD
ENDBRANCH  26  27
BRANCH  29  30
ATOM     30  O   UNL     1      46.055  21.247  18.559  0.00  0.00    -0.534 OA
ATOM     31  H   UNL     1      46.142  20.284  18.523  0.00  0.00    +0.384 HD
ENDBRANCH  29  30
BRANCH  32  33
ATOM     33  O   UNL     1      43.596  22.751  20.826  0.00  0.00    -0.529 OA
ATOM     34  H   UNL     1      44.267  22.837  21.517  0.00  0.00    +0.377 HD
ENDBRANCH  32  33
BRANCH  35  36
ATOM     36  C   UNL     1      41.771  21.440  19.062  0.00  0.00    +0.206 C 
BRANCH  36  37
ATOM     37  O   UNL     1      41.721  22.746  18.482  0.00  0.00    -0.565 OA
ATOM     38  H   UNL     1      40.825  23.089  18.362  0.00  0.00    +0.380 HD
ENDBRANCH  36  37
ENDBRANCH  35  36
ENDBRANCH  24  25
ENDBRANCH  23  24
TORSDOF 13
ENDMDL
MODEL 6
REMARK VINA RESULT:      -5.4      4.634      9.182
REMARK  Name = ZINC95486367
REMARK  19 active torsions:
REMARK  status: ('A' for Active; 'I' for Inactive)
REMARK    1  A    between atoms: C1_1  and  C2_2
REMARK    2  A    between atoms: C2_2  and  C3_3
REMARK    3  A    between atoms: C3_3  and  C4_5
REMARK    4  A    between atoms: C3_3  and  C34_52
REMARK    5  A    between atoms: C4_5  and  C5_6
REMARK    6  A    between atoms: C5_6  and  C6_7
REMARK    7  A    between atoms: C6_7  and  C7_9
REMARK    8  A    between atoms: C6_7  and  C8_10
REMARK    9  A    between atoms: C12_16  and  C33_51
REMARK   10  A    between atoms: C21_27  and  C32_50
REMARK   11  A    between atoms: C24_30  and  O1_33
REMARK   12  A    between atoms: O1_33  and  C26_34
REMARK   13  A    between atoms: C27_36  and  O6_49
REMARK   14  A    between atoms: C28_38  and  O5_48
REMARK   15  A    between atoms: C29_40  and  O4_47
REMARK   16  A    between atoms: C30_42  and  C31_45
REMARK   17  A    between atoms: C31_45  and  O3_46
REMARK   18  A    between atoms: C34_52  and  C35_53
REMARK   19  A    between atoms: C34_52  and  C36_54
REMARK                            x       y       z     vdW  Elec       q    Type
REMARK                         _______ _______ _______ _____ _____    ______ ____
ROOT
ATOM     10  C   UNL     1      52.141  15.910  20.530  0.00  0.00    -0.011 C 
ATOM     11  C   UNL     1      52.483  15.187  21.849  0.00  0.00    +0.006 C 
ATOM     12  C   UNL     1      51.230  14.316  22.154  0.00  0.00    +0.010 C 
ATOM     13  C   UNL     1      50.828  13.874  20.740  0.00  0.00    -0.018 C 
ATOM     14  C   UNL     1      49.578  13.082  20.640  0.00  0.00    +0.061 C 
ATOM     15  C   UNL     1      48.315  13.877  20.417  0.00  0.00    -0.094 C 
ATOM     16  C   UNL     1      47.138  13.050  19.856  0.00  0.00    +0.091 C 
ATOM     17  C   UNL     1      46.056  14.007  19.428  0.00  0.00    -0.062 C 
ATOM     18  C   UNL     1      45.689  15.003  20.218  0.00  0.00    -0.101 C 
ATOM     19  C   UNL     1      46.394  15.182  21.566  0.00  0.00    +0.016 C 
ATOM     20  C   UNL     1      45.895  14.081  22.505  0.00  0.00    +0.026 C 
ATOM     21  C   UNL     1      46.187  16.514  22.262  0.00  0.00    +0.032 C 
ATOM     22  C   UNL     1      44.817  17.114  21.976  0.00  0.00    +0.022 C 
ATOM     23  C   UNL     1      44.694  17.332  20.463  0.00  0.00    +0.158 C 
ATOM     40  C   UNL     1      44.572  15.880  19.722  0.00  0.00    +0.082 C 
ATOM     41  C   UNL     1      47.908  14.989  21.344  0.00  0.00    -0.026 C 
ATOM     42  C   UNL     1      48.437  15.312  19.935  0.00  0.00    -0.031 C 
ATOM     43  C   UNL     1      49.771  16.024  19.882  0.00  0.00    +0.047 C 
ATOM     44  C   UNL     1      50.983  15.108  19.867  0.00  0.00    -0.039 C 
ATOM     45  C   UNL     1      51.355  14.710  18.439  0.00  0.00    +0.028 C 
ENDROOT
BRANCH  10   9
ATOM      9  C   UNL     1      53.362  15.924  19.608  0.00  0.00    -0.013 C 
ATOM     46  C   UNL     1      54.630  15.713  20.439  0.00  0.00    +0.015 C 
BRANCH   9   8
ATOM      8  C   UNL     1      53.442  17.271  18.887  0.00  0.00    +0.008 C 
BRANCH   8   7
ATOM      7  C   UNL     1      52.538  18.283  19.596  0.00  0.00    +0.008 C 
BRANCH   7   3
ATOM      3  C   UNL     1      51.840  19.160  18.553  0.00  0.00    -0.016 C 
BRANCH   3   4
ATOM      4  C   UNL     1      51.834  18.440  17.204  0.00  0.00    -0.021 C 
ATOM      5  C   UNL     1      52.272  19.411  16.105  0.00  0.00    +0.011 C 
ATOM      6  C   UNL     1      50.422  17.934  16.902  0.00  0.00    +0.009 C 
ENDBRANCH   3   4
BRANCH   3   2
ATOM      1  C   UNL     1      50.107  20.927  18.894  0.00  0.00    +0.004 C 
ATOM      2  C   UNL     1      50.400  19.428  18.995  0.00  0.00    +0.002 C 
ENDBRANCH   3   2
ENDBRANCH   7   3
ENDBRANCH   8   7
ENDBRANCH   9   8
ENDBRANCH  10   9
BRANCH  23  24
ATOM     24  O   UNL     1      43.527  18.105  20.178  0.00  0.00    -0.376 OA
BRANCH  24  25
ATOM     25  C   UNL     1      43.380  19.261  21.006  0.00  0.00    +0.315 C 
ATOM     26  C   UNL     1      44.434  20.302  20.620  0.00  0.00    +0.132 C 
ATOM     29  C   UNL     1      44.204  20.737  19.170  0.00  0.00    +0.154 C 
ATOM     32  C   UNL     1      42.776  21.275  19.030  0.00  0.00    +0.161 C 
ATOM     35  C   UNL     1      41.787  20.196  19.477  0.00  0.00    +0.204 C 
ATOM     39  O   UNL     1      42.075  19.815  20.823  0.00  0.00    -0.361 OA
BRANCH  26  27
ATOM     27  O   UNL     1      44.323  21.436  21.482  0.00  0.00    -0.529 OA
ATOM     28  H   UNL     1      44.658  21.283  22.377  0.00  0.00    +0.380 HD
ENDBRANCH  26  27
BRANCH  29  30
ATOM     30  O   UNL     1      44.381  19.616  18.300  0.00  0.00    -0.534 OA
ATOM     31  H   UNL     1      43.876  18.834  18.560  0.00  0.00    +0.384 HD
ENDBRANCH  29  30
BRANCH  32  33
ATOM     33  O   UNL     1      42.621  22.436  19.848  0.00  0.00    -0.529 OA
ATOM     34  H   UNL     1      41.728  22.807  19.839  0.00  0.00    +0.377 HD
ENDBRANCH  32  33
BRANCH  35  36
ATOM     36  C   UNL     1      40.361  20.747  19.397  0.00  0.00    +0.206 C 
BRANCH  36  37
ATOM     37  O   UNL     1      40.328  21.853  18.492  0.00  0.00    -0.565 OA
ATOM     38  H   UNL     1      40.053  22.686  18.899  0.00  0.00    +0.380 HD
ENDBRANCH  36  37
ENDBRANCH  35  36
ENDBRANCH  24  25
ENDBRANCH  23  24
TORSDOF 13
ENDMDL
MODEL 7
REMARK VINA RESULT:      -5.3      4.411      8.672
REMARK  Name = ZINC95486367
REMARK  19 active torsions:
REMARK  status: ('A' for Active; 'I' for Inactive)
REMARK    1  A    between atoms: C1_1  and  C2_2
REMARK    2  A    between atoms: C2_2  and  C3_3
REMARK    3  A    between atoms: C3_3  and  C4_5
REMARK    4  A    between atoms: C3_3  and  C34_52
REMARK    5  A    between atoms: C4_5  and  C5_6
REMARK    6  A    between atoms: C5_6  and  C6_7
REMARK    7  A    between atoms: C6_7  and  C7_9
REMARK    8  A    between atoms: C6_7  and  C8_10
REMARK    9  A    between atoms: C12_16  and  C33_51
REMARK   10  A    between atoms: C21_27  and  C32_50
REMARK   11  A    between atoms: C24_30  and  O1_33
REMARK   12  A    between atoms: O1_33  and  C26_34
REMARK   13  A    between atoms: C27_36  and  O6_49
REMARK   14  A    between atoms: C28_38  and  O5_48
REMARK   15  A    between atoms: C29_40  and  O4_47
REMARK   16  A    between atoms: C30_42  and  C31_45
REMARK   17  A    between atoms: C31_45  and  O3_46
REMARK   18  A    between atoms: C34_52  and  C35_53
REMARK   19  A    between atoms: C34_52  and  C36_54
REMARK                            x       y       z     vdW  Elec       q    Type
REMARK                         _______ _______ _______ _____ _____    ______ ____
ROOT
ATOM     10  C   UNL     1      50.189  13.358  18.816  0.00  0.00    -0.011 C 
ATOM     11  C   UNL     1      51.396  13.402  17.856  0.00  0.00    +0.006 C 
ATOM     12  C   UNL     1      52.162  14.697  18.251  0.00  0.00    +0.010 C 
ATOM     13  C   UNL     1      51.980  14.693  19.776  0.00  0.00    -0.018 C 
ATOM     14  C   UNL     1      52.520  15.872  20.496  0.00  0.00    +0.061 C 
ATOM     15  C   UNL     1      51.557  17.018  20.692  0.00  0.00    -0.094 C 
ATOM     16  C   UNL     1      51.961  17.998  21.814  0.00  0.00    +0.091 C 
ATOM     17  C   UNL     1      50.792  18.911  22.081  0.00  0.00    -0.062 C 
ATOM     18  C   UNL     1      50.138  19.475  21.080  0.00  0.00    -0.101 C 
ATOM     19  C   UNL     1      50.573  19.172  19.642  0.00  0.00    +0.016 C 
ATOM     20  C   UNL     1      51.881  19.921  19.380  0.00  0.00    +0.026 C 
ATOM     21  C   UNL     1      49.593  19.553  18.548  0.00  0.00    +0.032 C 
ATOM     22  C   UNL     1      48.772  20.786  18.906  0.00  0.00    +0.022 C 
ATOM     23  C   UNL     1      47.979  20.480  20.184  0.00  0.00    +0.158 C 
ATOM     40  C   UNL     1      49.012  20.403  21.448  0.00  0.00    +0.082 C 
ATOM     41  C   UNL     1      50.843  17.657  19.534  0.00  0.00    -0.026 C 
ATOM     42  C   UNL     1      50.071  16.755  20.513  0.00  0.00    -0.031 C 
ATOM     43  C   UNL     1      49.556  15.453  19.939  0.00  0.00    +0.047 C 
ATOM     44  C   UNL     1      50.534  14.292  20.012  0.00  0.00    -0.039 C 
ATOM     45  C   UNL     1      50.397  13.540  21.337  0.00  0.00    +0.028 C 
ENDROOT
BRANCH  10   9
ATOM      9  C   UNL     1      49.968  11.928  19.315  0.00  0.00    -0.013 C 
ATOM     46  C   UNL     1      51.081  11.024  18.780  0.00  0.00    +0.015 C 
BRANCH   9   8
ATOM      8  C   UNL     1      48.613  11.419  18.820  0.00  0.00    +0.008 C 
BRANCH   8   7
ATOM      7  C   UNL     1      47.541  12.478  19.086  0.00  0.00    +0.008 C 
BRANCH   7   3
ATOM      3  C   UNL     1      46.616  12.583  17.871  0.00  0.00    -0.016 C 
BRANCH   3   4
ATOM      4  C   UNL     1      46.233  14.047  17.648  0.00  0.00    -0.021 C 
ATOM      5  C   UNL     1      47.361  14.763  16.901  0.00  0.00    +0.011 C 
ATOM      6  C   UNL     1      46.006  14.726  19.000  0.00  0.00    +0.009 C 
ENDBRANCH   3   4
BRANCH   3   2
ATOM      1  C   UNL     1      46.377  11.190  15.811  0.00  0.00    +0.004 C 
ATOM      2  C   UNL     1      47.339  12.051  16.632  0.00  0.00    +0.002 C 
ENDBRANCH   3   2
ENDBRANCH   7   3
ENDBRANCH   8   7
ENDBRANCH   9   8
ENDBRANCH  10   9
BRANCH  23  24
ATOM     24  O   UNL     1      47.024  21.516  20.419  0.00  0.00    -0.376 OA
BRANCH  24  25
ATOM     25  C   UNL     1      46.075  21.209  21.444  0.00  0.00    +0.315 C 
ATOM     26  C   UNL     1      44.939  22.235  21.410  0.00  0.00    +0.132 C 
ATOM     29  C   UNL     1      44.215  22.140  20.064  0.00  0.00    +0.154 C 
ATOM     32  C   UNL     1      43.712  20.706  19.867  0.00  0.00    +0.161 C 
ATOM     35  C   UNL     1      44.895  19.741  19.960  0.00  0.00    +0.204 C 
ATOM     39  O   UNL     1      45.543  19.902  21.224  0.00  0.00    -0.361 OA
BRANCH  26  27
ATOM     27  O   UNL     1      44.019  21.962  22.468  0.00  0.00    -0.529 OA
ATOM     28  H   UNL     1      43.210  21.515  22.180  0.00  0.00    +0.380 HD
ENDBRANCH  26  27
BRANCH  29  30
ATOM     30  O   UNL     1      45.120  22.479  19.009  0.00  0.00    -0.534 OA
ATOM     31  H   UNL     1      46.009  22.114  19.122  0.00  0.00    +0.384 HD
ENDBRANCH  29  30
BRANCH  32  33
ATOM     33  O   UNL     1      42.756  20.392  20.882  0.00  0.00    -0.529 OA
ATOM     34  H   UNL     1      42.174  21.128  21.114  0.00  0.00    +0.377 HD
ENDBRANCH  32  33
BRANCH  35  36
ATOM     36  C   UNL     1      44.392  18.302  19.824  0.00  0.00    +0.206 C 
BRANCH  36  37
ATOM     37  O   UNL     1      44.039  17.797  21.114  0.00  0.00    -0.565 OA
ATOM     38  H   UNL     1      43.121  17.501  21.182  0.00  0.00    +0.380 HD
ENDBRANCH  36  37
ENDBRANCH  35  36
ENDBRANCH  24  25
ENDBRANCH  23  24
TORSDOF 13
ENDMDL
MODEL 8
REMARK VINA RESULT:      -5.1      1.908      2.996
REMARK  Name = ZINC95486367
REMARK  19 active torsions:
REMARK  status: ('A' for Active; 'I' for Inactive)
REMARK    1  A    between atoms: C1_1  and  C2_2
REMARK    2  A    between atoms: C2_2  and  C3_3
REMARK    3  A    between atoms: C3_3  and  C4_5
REMARK    4  A    between atoms: C3_3  and  C34_52
REMARK    5  A    between atoms: C4_5  and  C5_6
REMARK    6  A    between atoms: C5_6  and  C6_7
REMARK    7  A    between atoms: C6_7  and  C7_9
REMARK    8  A    between atoms: C6_7  and  C8_10
REMARK    9  A    between atoms: C12_16  and  C33_51
REMARK   10  A    between atoms: C21_27  and  C32_50
REMARK   11  A    between atoms: C24_30  and  O1_33
REMARK   12  A    between atoms: O1_33  and  C26_34
REMARK   13  A    between atoms: C27_36  and  O6_49
REMARK   14  A    between atoms: C28_38  and  O5_48
REMARK   15  A    between atoms: C29_40  and  O4_47
REMARK   16  A    between atoms: C30_42  and  C31_45
REMARK   17  A    between atoms: C31_45  and  O3_46
REMARK   18  A    between atoms: C34_52  and  C35_53
REMARK   19  A    between atoms: C34_52  and  C36_54
REMARK                            x       y       z     vdW  Elec       q    Type
REMARK                         _______ _______ _______ _____ _____    ______ ____
ROOT
ATOM     10  C   UNL     1      45.654  18.677  20.342  0.00  0.00    -0.011 C 
ATOM     11  C   UNL     1      45.896  18.375  21.835  0.00  0.00    +0.006 C 
ATOM     12  C   UNL     1      47.363  17.860  21.897  0.00  0.00    +0.010 C 
ATOM     13  C   UNL     1      48.032  18.752  20.841  0.00  0.00    -0.018 C 
ATOM     14  C   UNL     1      49.460  18.463  20.560  0.00  0.00    +0.061 C 
ATOM     15  C   UNL     1      49.721  17.477  19.448  0.00  0.00    -0.094 C 
ATOM     16  C   UNL     1      51.149  17.547  18.865  0.00  0.00    +0.091 C 
ATOM     17  C   UNL     1      51.180  16.722  17.604  0.00  0.00    -0.062 C 
ATOM     18  C   UNL     1      50.644  15.512  17.579  0.00  0.00    -0.101 C 
ATOM     19  C   UNL     1      49.972  14.970  18.844  0.00  0.00    +0.016 C 
ATOM     20  C   UNL     1      51.075  14.601  19.838  0.00  0.00    +0.026 C 
ATOM     21  C   UNL     1      49.083  13.753  18.665  0.00  0.00    +0.032 C 
ATOM     22  C   UNL     1      49.565  12.840  17.545  0.00  0.00    +0.022 C 
ATOM     23  C   UNL     1      49.562  13.641  16.237  0.00  0.00    +0.158 C 
ATOM     40  C   UNL     1      50.760  14.750  16.287  0.00  0.00    +0.082 C 
ATOM     41  C   UNL     1      49.118  16.100  19.454  0.00  0.00    -0.026 C 
ATOM     42  C   UNL     1      48.597  17.166  18.474  0.00  0.00    -0.031 C 
ATOM     43  C   UNL     1      47.181  17.643  18.714  0.00  0.00    +0.047 C 
ATOM     44  C   UNL     1      47.056  18.810  19.679  0.00  0.00    -0.039 C 
ATOM     45  C   UNL     1      47.176  20.146  18.945  0.00  0.00    +0.028 C 
ENDROOT
BRANCH  10   9
ATOM      9  C   UNL     1      44.876  19.986  20.191  0.00  0.00    -0.013 C 
ATOM     46  C   UNL     1      44.998  20.803  21.480  0.00  0.00    +0.015 C 
BRANCH   9   8
ATOM      8  C   UNL     1      43.403  19.676  19.921  0.00  0.00    +0.008 C 
BRANCH   8   7
ATOM      7  C   UNL     1      43.066  20.031  18.470  0.00  0.00    +0.008 C 
BRANCH   7   3
ATOM      3  C   UNL     1      41.952  21.081  18.448  0.00  0.00    -0.016 C 
BRANCH   3   4
ATOM      4  C   UNL     1      40.607  20.402  18.714  0.00  0.00    -0.021 C 
ATOM      5  C   UNL     1      39.472  21.387  18.424  0.00  0.00    +0.011 C 
ATOM      6  C   UNL     1      40.538  19.962  20.177  0.00  0.00    +0.009 C 
ENDBRANCH   3   4
BRANCH   3   2
ATOM      1  C   UNL     1      42.624  23.449  18.874  0.00  0.00    +0.004 C 
ATOM      2  C   UNL     1      42.217  22.128  19.531  0.00  0.00    +0.002 C 
ENDBRANCH   3   2
ENDBRANCH   7   3
ENDBRANCH   8   7
ENDBRANCH   9   8
ENDBRANCH  10   9
BRANCH  23  24
ATOM     24  O   UNL     1      49.778  12.762  15.131  0.00  0.00    -0.376 OA
BRANCH  24  25
ATOM     25  C   UNL     1      51.157  12.553  14.817  0.00  0.00    +0.315 C 
ATOM     26  C   UNL     1      51.487  11.062  14.942  0.00  0.00    +0.132 C 
ATOM     29  C   UNL     1      50.654  10.277  13.924  0.00  0.00    +0.154 C 
ATOM     32  C   UNL     1      50.936  10.821  12.520  0.00  0.00    +0.161 C 
ATOM     35  C   UNL     1      50.627  12.319  12.490  0.00  0.00    +0.204 C 
ATOM     39  O   UNL     1      51.412  12.987  13.480  0.00  0.00    -0.361 OA
BRANCH  26  27
ATOM     27  O   UNL     1      52.877  10.859  14.680  0.00  0.00    -0.529 OA
ATOM     28  H   UNL     1      53.181   9.958  14.854  0.00  0.00    +0.380 HD
ENDBRANCH  26  27
BRANCH  29  30
ATOM     30  O   UNL     1      49.264  10.427  14.226  0.00  0.00    -0.534 OA
ATOM     31  H   UNL     1      48.881   9.674  14.697  0.00  0.00    +0.384 HD
ENDBRANCH  29  30
BRANCH  32  33
ATOM     33  O   UNL     1      52.311  10.608  12.193  0.00  0.00    -0.529 OA
ATOM     34  H   UNL     1      52.913  10.705  12.943  0.00  0.00    +0.377 HD
ENDBRANCH  32  33
BRANCH  35  36
ATOM     36  C   UNL     1      50.963  12.882  11.107  0.00  0.00    +0.206 C 
BRANCH  36  37
ATOM     37  O   UNL     1      52.154  13.669  11.190  0.00  0.00    -0.565 OA
ATOM     38  H   UNL     1      52.970  13.154  11.136  0.00  0.00    +0.380 HD
ENDBRANCH  36  37
ENDBRANCH  35  36
ENDBRANCH  24  25
ENDBRANCH  23  24
TORSDOF 13
ENDMDL
MODEL 9
REMARK VINA RESULT:      -5.0      4.682      9.026
REMARK  Name = ZINC95486367
REMARK  19 active torsions:
REMARK  status: ('A' for Active; 'I' for Inactive)
REMARK    1  A    between atoms: C1_1  and  C2_2
REMARK    2  A    between atoms: C2_2  and  C3_3
REMARK    3  A    between atoms: C3_3  and  C4_5
REMARK    4  A    between atoms: C3_3  and  C34_52
REMARK    5  A    between atoms: C4_5  and  C5_6
REMARK    6  A    between atoms: C5_6  and  C6_7
REMARK    7  A    between atoms: C6_7  and  C7_9
REMARK    8  A    between atoms: C6_7  and  C8_10
REMARK    9  A    between atoms: C12_16  and  C33_51
REMARK   10  A    between atoms: C21_27  and  C32_50
REMARK   11  A    between atoms: C24_30  and  O1_33
REMARK   12  A    between atoms: O1_33  and  C26_34
REMARK   13  A    between atoms: C27_36  and  O6_49
REMARK   14  A    between atoms: C28_38  and  O5_48
REMARK   15  A    between atoms: C29_40  and  O4_47
REMARK   16  A    between atoms: C30_42  and  C31_45
REMARK   17  A    between atoms: C31_45  and  O3_46
REMARK   18  A    between atoms: C34_52  and  C35_53
REMARK   19  A    between atoms: C34_52  and  C36_54
REMARK                            x       y       z     vdW  Elec       q    Type
REMARK                         _______ _______ _______ _____ _____    ______ ____
ROOT
ATOM     10  C   UNL     1      50.368  12.843  18.856  0.00  0.00    -0.011 C 
ATOM     11  C   UNL     1      51.759  12.939  18.194  0.00  0.00    +0.006 C 
ATOM     12  C   UNL     1      52.391  14.226  18.796  0.00  0.00    +0.010 C 
ATOM     13  C   UNL     1      51.871  14.161  20.240  0.00  0.00    -0.018 C 
ATOM     14  C   UNL     1      52.213  15.318  21.104  0.00  0.00    +0.061 C 
ATOM     15  C   UNL     1      51.207  16.443  21.119  0.00  0.00    -0.094 C 
ATOM     16  C   UNL     1      51.330  17.384  22.337  0.00  0.00    +0.091 C 
ATOM     17  C   UNL     1      50.113  18.272  22.367  0.00  0.00    -0.062 C 
ATOM     18  C   UNL     1      49.689  18.867  21.264  0.00  0.00    -0.101 C 
ATOM     19  C   UNL     1      50.440  18.625  19.951  0.00  0.00    +0.016 C 
ATOM     20  C   UNL     1      51.759  19.399  20.017  0.00  0.00    +0.026 C 
ATOM     21  C   UNL     1      49.723  19.037  18.679  0.00  0.00    +0.032 C 
ATOM     22  C   UNL     1      48.819  20.245  18.887  0.00  0.00    +0.022 C 
ATOM     23  C   UNL     1      47.766  19.881  19.942  0.00  0.00    +0.158 C 
ATOM     40  C   UNL     1      48.491  19.767  21.402  0.00  0.00    +0.082 C 
ATOM     41  C   UNL     1      50.759  17.119  19.854  0.00  0.00    -0.026 C 
ATOM     42  C   UNL     1      49.805  16.170  20.602  0.00  0.00    -0.031 C 
ATOM     43  C   UNL     1      49.458  14.885  19.881  0.00  0.00    +0.047 C 
ATOM     44  C   UNL     1      50.417  13.735  20.131  0.00  0.00    -0.039 C 
ATOM     45  C   UNL     1      50.002  12.930  21.364  0.00  0.00    +0.028 C 
ENDROOT
BRANCH  10   9
ATOM      9  C   UNL     1      50.070  11.393  19.241  0.00  0.00    -0.013 C 
ATOM     46  C   UNL     1      51.139  10.476  18.643  0.00  0.00    +0.015 C 
BRANCH   9   8
ATOM      8  C   UNL     1      48.695  10.994  18.703  0.00  0.00    +0.008 C 
BRANCH   8   7
ATOM      7  C   UNL     1      48.289  11.954  17.582  0.00  0.00    +0.008 C 
BRANCH   7   3
ATOM      3  C   UNL     1      46.767  11.926  17.414  0.00  0.00    -0.016 C 
BRANCH   3   4
ATOM      4  C   UNL     1      46.206  13.333  17.631  0.00  0.00    -0.021 C 
ATOM      5  C   UNL     1      47.178  14.365  17.052  0.00  0.00    +0.011 C 
ATOM      6  C   UNL     1      46.027  13.585  19.128  0.00  0.00    +0.009 C 
ENDBRANCH   3   4
BRANCH   3   2
ATOM      1  C   UNL     1      47.704  11.282  15.190  0.00  0.00    +0.004 C 
ATOM      2  C   UNL     1      46.419  11.449  16.003  0.00  0.00    +0.002 C 
ENDBRANCH   3   2
ENDBRANCH   7   3
ENDBRANCH   8   7
ENDBRANCH   9   8
ENDBRANCH  10   9
BRANCH  23  24
ATOM     24  O   UNL     1      46.761  20.896  19.993  0.00  0.00    -0.376 OA
BRANCH  24  25
ATOM     25  C   UNL     1      45.840  20.857  18.901  0.00  0.00    +0.315 C 
ATOM     26  C   UNL     1      44.601  20.054  19.307  0.00  0.00    +0.132 C 
ATOM     29  C   UNL     1      43.906  20.760  20.475  0.00  0.00    +0.154 C 
ATOM     32  C   UNL     1      43.561  22.194  20.060  0.00  0.00    +0.161 C 
ATOM     35  C   UNL     1      44.841  22.913  19.626  0.00  0.00    +0.204 C 
ATOM     39  O   UNL     1      45.453  22.189  18.557  0.00  0.00    -0.361 OA
BRANCH  26  27
ATOM     27  O   UNL     1      43.704  19.970  18.198  0.00  0.00    -0.529 OA
ATOM     28  H   UNL     1      43.130  19.192  18.216  0.00  0.00    +0.380 HD
ENDBRANCH  26  27
BRANCH  29  30
ATOM     30  O   UNL     1      44.780  20.786  21.607  0.00  0.00    -0.534 OA
ATOM     31  H   UNL     1      44.736  21.605  22.119  0.00  0.00    +0.384 HD
ENDBRANCH  29  30
BRANCH  32  33
ATOM     33  O   UNL     1      42.634  22.166  18.973  0.00  0.00    -0.529 OA
ATOM     34  H   UNL     1      42.177  23.005  18.825  0.00  0.00    +0.377 HD
ENDBRANCH  32  33
BRANCH  35  36
ATOM     36  C   UNL     1      44.496  24.326  19.153  0.00  0.00    +0.206 C 
BRANCH  36  37
ATOM     37  O   UNL     1      45.023  25.280  20.078  0.00  0.00    -0.565 OA
ATOM     38  H   UNL     1      44.957  25.009  21.003  0.00  0.00    +0.380 HD
ENDBRANCH  36  37
ENDBRANCH  35  36
ENDBRANCH  24  25
ENDBRANCH  23  24
TORSDOF 13
ENDMDL
