MODEL 1
REMARK VINA RESULT:      -5.7      0.000      0.000
REMARK  Name = ZINC95486017
REMARK  13 active torsions:
REMARK  status: ('A' for Active; 'I' for Inactive)
REMARK    1  A    between atoms: C1_1  and  C2_2
REMARK    2  A    between atoms: C6_6  and  O1_8
REMARK    3  A    between atoms: O1_8  and  C8_9
REMARK    4  A    between atoms: C9_10  and  O4_33
REMARK    5  A    between atoms: C11_12  and  C26_32
REMARK    6  A    between atoms: C12_13  and  C13_14
REMARK    7  A    between atoms: C14_15  and  O3_30
REMARK    8  A    between atoms: C16_17  and  O2_28
REMARK    9  A    between atoms: C20_21  and  C23_27
REMARK   10  A    between atoms: C21_24  and  C22_26
REMARK   11  A    between atoms: O2_28  and  C24_29
REMARK   12  A    between atoms: O3_30  and  C25_31
REMARK   13  A    between atoms: O4_33  and  C27_34
REMARK                            x       y       z     vdW  Elec       q    Type
REMARK                         _______ _______ _______ _____ _____    ______ ____
ROOT
ATOM     16  C   UNL     1      47.182  19.415  21.106  0.00  0.00    -0.102 A 
ATOM     17  C   UNL     1      47.075  18.248  21.868  0.00  0.00    +0.182 A 
ATOM     20  C   UNL     1      45.837  17.847  22.335  0.00  0.00    -0.167 A 
ATOM     21  C   UNL     1      44.712  18.601  22.045  0.00  0.00    +0.178 A 
ATOM     24  C   UNL     1      44.814  19.766  21.286  0.00  0.00    -0.179 A 
ATOM     25  C   UNL     1      43.557  20.544  20.998  0.00  0.00    +0.230 C 
ATOM     26  C   UNL     1      42.772  19.841  19.888  0.00  0.00    +0.042 C 
ATOM     27  N   UNL     1      43.886  21.916  20.586  0.00  0.00    -0.670 NA
ATOM     28  H   UNL     1      44.244  22.456  21.359  0.00  0.00    +0.343 HD
ATOM     29  C   UNL     1      44.848  21.888  19.472  0.00  0.00    +0.165 C 
ATOM     30  C   UNL     1      44.976  23.285  18.863  0.00  0.00    +0.037 C 
ATOM     31  C   UNL     1      46.204  21.437  20.014  0.00  0.00    +0.058 C 
ATOM     32  C   UNL     1      46.044  20.176  20.825  0.00  0.00    +0.014 A 
ENDROOT
BRANCH  16  15
ATOM      1  C   UNL     1      48.159  16.629  16.880  0.00  0.00    +0.090 C 
ATOM      2  C   UNL     1      48.909  17.706  17.620  0.00  0.00    -0.026 A 
ATOM      3  C   UNL     1      48.360  18.258  18.739  0.00  0.00    -0.032 A 
ATOM      4  C   UNL     1      49.051  19.261  19.436  0.00  0.00    +0.046 A 
ATOM      5  C   UNL     1      50.316  19.691  18.968  0.00  0.00    -0.103 A 
ATOM      6  C   UNL     1      51.010  20.698  19.669  0.00  0.00    +0.173 A 
ATOM      9  C   UNL     1      50.454  21.254  20.800  0.00  0.00    -0.108 A 
ATOM     10  C   UNL     1      49.213  20.836  21.265  0.00  0.00    -0.008 A 
ATOM     11  C   UNL     1      48.633  21.464  22.505  0.00  0.00    +0.092 C 
ATOM     12  C   UNL     1      50.860  19.103  17.809  0.00  0.00    +0.171 A 
ATOM     15  C   UNL     1      48.504  19.850  20.601  0.00  0.00    -0.072 A 
ATOM     33  C   UNL     1      50.155  18.118  17.155  0.00  0.00    -0.112 A 
BRANCH   6   7
ATOM      7  O   UNL     1      52.224  21.118  19.229  0.00  0.00    -0.291 OA
ATOM      8  C   UNL     1      52.993  21.926  20.123  0.00  0.00    +0.237 C 
ENDBRANCH   6   7
BRANCH  12  13
ATOM     13  O   UNL     1      52.071  19.502  17.343  0.00  0.00    -0.291 OA
ATOM     14  C   UNL     1      52.172  19.772  15.944  0.00  0.00    +0.236 C 
ENDBRANCH  12  13
ENDBRANCH  16  15
BRANCH  17  18
ATOM     18  O   UNL     1      48.182  17.511  22.146  0.00  0.00    -0.301 OA
ATOM     19  C   UNL     1      48.079  16.095  21.976  0.00  0.00    +0.236 C 
ENDBRANCH  17  18
BRANCH  21  22
ATOM     22  O   UNL     1      43.497  18.203  22.505  0.00  0.00    -0.308 OA
ATOM     23  C   UNL     1      43.118  16.850  22.249  0.00  0.00    +0.239 C 
ENDBRANCH  21  22
TORSDOF 5
ENDMDL
MODEL 2
REMARK VINA RESULT:      -5.6      3.216      6.811
REMARK  Name = ZINC95486017
REMARK  13 active torsions:
REMARK  status: ('A' for Active; 'I' for Inactive)
REMARK    1  A    between atoms: C1_1  and  C2_2
REMARK    2  A    between atoms: C6_6  and  O1_8
REMARK    3  A    between atoms: O1_8  and  C8_9
REMARK    4  A    between atoms: C9_10  and  O4_33
REMARK    5  A    between atoms: C11_12  and  C26_32
REMARK    6  A    between atoms: C12_13  and  C13_14
REMARK    7  A    between atoms: C14_15  and  O3_30
REMARK    8  A    between atoms: C16_17  and  O2_28
REMARK    9  A    between atoms: C20_21  and  C23_27
REMARK   10  A    between atoms: C21_24  and  C22_26
REMARK   11  A    between atoms: O2_28  and  C24_29
REMARK   12  A    between atoms: O3_30  and  C25_31
REMARK   13  A    between atoms: O4_33  and  C27_34
REMARK                            x       y       z     vdW  Elec       q    Type
REMARK                         _______ _______ _______ _____ _____    ______ ____
ROOT
ATOM     16  C   UNL     1      48.699  17.093  19.245  0.00  0.00    -0.102 A 
ATOM     17  C   UNL     1      48.515  15.972  20.059  0.00  0.00    +0.182 A 
ATOM     20  C   UNL     1      49.526  15.035  20.171  0.00  0.00    -0.167 A 
ATOM     21  C   UNL     1      50.713  15.212  19.479  0.00  0.00    +0.178 A 
ATOM     24  C   UNL     1      50.900  16.329  18.666  0.00  0.00    -0.179 A 
ATOM     25  C   UNL     1      52.213  16.473  17.941  0.00  0.00    +0.230 C 
ATOM     26  C   UNL     1      53.281  16.959  18.923  0.00  0.00    +0.042 C 
ATOM     27  N   UNL     1      52.083  17.428  16.831  0.00  0.00    -0.670 NA
ATOM     28  H   UNL     1      51.520  17.050  16.084  0.00  0.00    +0.343 HD
ATOM     29  C   UNL     1      51.523  18.696  17.324  0.00  0.00    +0.165 C 
ATOM     30  C   UNL     1      51.647  19.772  16.243  0.00  0.00    +0.037 C 
ATOM     31  C   UNL     1      50.048  18.476  17.662  0.00  0.00    +0.058 C 
ATOM     32  C   UNL     1      49.897  17.262  18.542  0.00  0.00    +0.014 A 
ENDROOT
BRANCH  16  15
ATOM      1  C   UNL     1      49.850  20.917  22.505  0.00  0.00    +0.090 C 
ATOM      2  C   UNL     1      48.719  20.669  21.540  0.00  0.00    -0.026 A 
ATOM      3  C   UNL     1      48.708  19.524  20.801  0.00  0.00    -0.032 A 
ATOM      4  C   UNL     1      47.660  19.283  19.899  0.00  0.00    +0.046 A 
ATOM      5  C   UNL     1      46.621  20.236  19.766  0.00  0.00    -0.103 A 
ATOM      6  C   UNL     1      45.568  19.994  18.861  0.00  0.00    +0.173 A 
ATOM      9  C   UNL     1      45.558  18.835  18.115  0.00  0.00    -0.108 A 
ATOM     10  C   UNL     1      46.573  17.896  18.242  0.00  0.00    -0.008 A 
ATOM     11  C   UNL     1      46.532  16.639  17.412  0.00  0.00    +0.092 C 
ATOM     12  C   UNL     1      46.659  21.412  20.542  0.00  0.00    +0.171 A 
ATOM     15  C   UNL     1      47.623  18.102  19.121  0.00  0.00    -0.072 A 
ATOM     33  C   UNL     1      47.701  21.610  21.421  0.00  0.00    -0.112 A 
BRANCH   6   7
ATOM      7  O   UNL     1      44.568  20.901  18.725  0.00  0.00    -0.291 OA
ATOM      8  C   UNL     1      43.234  20.432  18.936  0.00  0.00    +0.237 C 
ENDBRANCH   6   7
BRANCH  12  13
ATOM     13  O   UNL     1      45.673  22.338  20.428  0.00  0.00    -0.291 OA
ATOM     14  C   UNL     1      45.021  22.743  21.634  0.00  0.00    +0.236 C 
ENDBRANCH  12  13
ENDBRANCH  16  15
BRANCH  17  18
ATOM     18  O   UNL     1      47.350  15.805  20.737  0.00  0.00    -0.301 OA
ATOM     19  C   UNL     1      46.705  14.536  20.616  0.00  0.00    +0.236 C 
ENDBRANCH  17  18
BRANCH  21  22
ATOM     22  O   UNL     1      51.703  14.289  19.593  0.00  0.00    -0.308 OA
ATOM     23  C   UNL     1      51.427  12.978  19.100  0.00  0.00    +0.239 C 
ENDBRANCH  21  22
TORSDOF 5
ENDMDL
MODEL 3
REMARK VINA RESULT:      -5.2      2.989      7.187
REMARK  Name = ZINC95486017
REMARK  13 active torsions:
REMARK  status: ('A' for Active; 'I' for Inactive)
REMARK    1  A    between atoms: C1_1  and  C2_2
REMARK    2  A    between atoms: C6_6  and  O1_8
REMARK    3  A    between atoms: O1_8  and  C8_9
REMARK    4  A    between atoms: C9_10  and  O4_33
REMARK    5  A    between atoms: C11_12  and  C26_32
REMARK    6  A    between atoms: C12_13  and  C13_14
REMARK    7  A    between atoms: C14_15  and  O3_30
REMARK    8  A    between atoms: C16_17  and  O2_28
REMARK    9  A    between atoms: C20_21  and  C23_27
REMARK   10  A    between atoms: C21_24  and  C22_26
REMARK   11  A    between atoms: O2_28  and  C24_29
REMARK   12  A    between atoms: O3_30  and  C25_31
REMARK   13  A    between atoms: O4_33  and  C27_34
REMARK                            x       y       z     vdW  Elec       q    Type
REMARK                         _______ _______ _______ _____ _____    ______ ____
ROOT
ATOM     16  C   UNL     1      49.562  17.665  18.910  0.00  0.00    -0.102 A 
ATOM     17  C   UNL     1      50.645  18.029  18.103  0.00  0.00    +0.182 A 
ATOM     20  C   UNL     1      51.805  17.277  18.137  0.00  0.00    -0.167 A 
ATOM     21  C   UNL     1      51.888  16.170  18.966  0.00  0.00    +0.178 A 
ATOM     24  C   UNL     1      50.811  15.805  19.771  0.00  0.00    -0.179 A 
ATOM     25  C   UNL     1      50.955  14.589  20.650  0.00  0.00    +0.230 C 
ATOM     26  C   UNL     1      50.797  13.329  19.796  0.00  0.00    +0.042 C 
ATOM     27  N   UNL     1      49.942  14.603  21.714  0.00  0.00    -0.670 NA
ATOM     28  H   UNL     1      50.132  15.324  22.394  0.00  0.00    +0.343 HD
ATOM     29  C   UNL     1      48.602  14.770  21.129  0.00  0.00    +0.165 C 
ATOM     30  C   UNL     1      47.536  14.506  22.194  0.00  0.00    +0.037 C 
ATOM     31  C   UNL     1      48.472  16.204  20.617  0.00  0.00    +0.058 C 
ATOM     32  C   UNL     1      49.656  16.552  19.751  0.00  0.00    +0.014 A 
ENDROOT
BRANCH  16  15
ATOM      1  C   UNL     1      50.070  21.368  22.461  0.00  0.00    +0.090 C 
ATOM      2  C   UNL     1      48.981  20.992  21.489  0.00  0.00    -0.026 A 
ATOM      3  C   UNL     1      49.162  19.926  20.659  0.00  0.00    -0.032 A 
ATOM      4  C   UNL     1      48.154  19.567  19.751  0.00  0.00    +0.046 A 
ATOM      5  C   UNL     1      46.956  20.319  19.706  0.00  0.00    -0.103 A 
ATOM      6  C   UNL     1      45.943  19.957  18.794  0.00  0.00    +0.173 A 
ATOM      9  C   UNL     1      46.127  18.879  17.956  0.00  0.00    -0.108 A 
ATOM     10  C   UNL     1      47.301  18.137  17.996  0.00  0.00    -0.008 A 
ATOM     11  C   UNL     1      47.471  16.962  17.068  0.00  0.00    +0.092 C 
ATOM     12  C   UNL     1      46.796  21.416  20.575  0.00  0.00    +0.171 A 
ATOM     15  C   UNL     1      48.316  18.464  18.879  0.00  0.00    -0.072 A 
ATOM     33  C   UNL     1      47.805  21.734  21.456  0.00  0.00    -0.112 A 
BRANCH   6   7
ATOM      7  O   UNL     1      44.790  20.671  18.742  0.00  0.00    -0.291 OA
ATOM      8  C   UNL     1      43.568  19.931  18.755  0.00  0.00    +0.237 C 
ENDBRANCH   6   7
BRANCH  12  13
ATOM     13  O   UNL     1      45.654  22.150  20.547  0.00  0.00    -0.291 OA
ATOM     14  C   UNL     1      45.718  23.471  21.089  0.00  0.00    +0.236 C 
ENDBRANCH  12  13
ENDBRANCH  16  15
BRANCH  17  18
ATOM     18  O   UNL     1      50.556  19.113  17.290  0.00  0.00    -0.301 OA
ATOM     19  C   UNL     1      51.525  19.222  16.246  0.00  0.00    +0.236 C 
ENDBRANCH  17  18
BRANCH  21  22
ATOM     22  O   UNL     1      53.030  15.434  18.994  0.00  0.00    -0.308 OA
ATOM     23  C   UNL     1      54.222  16.103  19.408  0.00  0.00    +0.239 C 
ENDBRANCH  21  22
TORSDOF 5
ENDMDL
MODEL 4
REMARK VINA RESULT:      -5.1      3.755      6.617
REMARK  Name = ZINC95486017
REMARK  13 active torsions:
REMARK  status: ('A' for Active; 'I' for Inactive)
REMARK    1  A    between atoms: C1_1  and  C2_2
REMARK    2  A    between atoms: C6_6  and  O1_8
REMARK    3  A    between atoms: O1_8  and  C8_9
REMARK    4  A    between atoms: C9_10  and  O4_33
REMARK    5  A    between atoms: C11_12  and  C26_32
REMARK    6  A    between atoms: C12_13  and  C13_14
REMARK    7  A    between atoms: C14_15  and  O3_30
REMARK    8  A    between atoms: C16_17  and  O2_28
REMARK    9  A    between atoms: C20_21  and  C23_27
REMARK   10  A    between atoms: C21_24  and  C22_26
REMARK   11  A    between atoms: O2_28  and  C24_29
REMARK   12  A    between atoms: O3_30  and  C25_31
REMARK   13  A    between atoms: O4_33  and  C27_34
REMARK                            x       y       z     vdW  Elec       q    Type
REMARK                         _______ _______ _______ _____ _____    ______ ____
ROOT
ATOM     16  C   UNL     1      49.133  16.204  18.252  0.00  0.00    -0.102 A 
ATOM     17  C   UNL     1      47.941  16.200  17.522  0.00  0.00    +0.182 A 
ATOM     20  C   UNL     1      47.637  15.119  16.715  0.00  0.00    -0.167 A 
ATOM     21  C   UNL     1      48.513  14.048  16.635  0.00  0.00    +0.178 A 
ATOM     24  C   UNL     1      49.702  14.049  17.361  0.00  0.00    -0.179 A 
ATOM     25  C   UNL     1      50.614  12.856  17.241  0.00  0.00    +0.230 C 
ATOM     26  C   UNL     1      50.054  11.706  18.081  0.00  0.00    +0.042 C 
ATOM     27  N   UNL     1      51.968  13.197  17.699  0.00  0.00    -0.670 NA
ATOM     28  H   UNL     1      52.427  13.825  17.056  0.00  0.00    +0.343 HD
ATOM     29  C   UNL     1      51.909  13.777  19.050  0.00  0.00    +0.165 C 
ATOM     30  C   UNL     1      53.319  13.873  19.636  0.00  0.00    +0.037 C 
ATOM     31  C   UNL     1      51.298  15.176  18.951  0.00  0.00    +0.058 C 
ATOM     32  C   UNL     1      50.016  15.124  18.160  0.00  0.00    +0.014 A 
ENDROOT
BRANCH  16  15
ATOM      1  C   UNL     1      51.866  19.499  15.380  0.00  0.00    +0.090 C 
ATOM      2  C   UNL     1      51.390  19.503  16.810  0.00  0.00    -0.026 A 
ATOM      3  C   UNL     1      50.665  18.448  17.278  0.00  0.00    -0.032 A 
ATOM      4  C   UNL     1      50.217  18.441  18.608  0.00  0.00    +0.046 A 
ATOM      5  C   UNL     1      50.524  19.534  19.453  0.00  0.00    -0.103 A 
ATOM      6  C   UNL     1      50.075  19.527  20.789  0.00  0.00    +0.173 A 
ATOM      9  C   UNL     1      49.343  18.459  21.261  0.00  0.00    -0.108 A 
ATOM     10  C   UNL     1      49.039  17.383  20.437  0.00  0.00    -0.008 A 
ATOM     11  C   UNL     1      48.238  16.230  20.983  0.00  0.00    +0.092 C 
ATOM     12  C   UNL     1      51.274  20.612  18.943  0.00  0.00    +0.171 A 
ATOM     15  C   UNL     1      49.464  17.357  19.120  0.00  0.00    -0.072 A 
ATOM     33  C   UNL     1      51.702  20.580  17.634  0.00  0.00    -0.112 A 
BRANCH   6   7
ATOM      7  O   UNL     1      50.363  20.571  21.608  0.00  0.00    -0.291 OA
ATOM      8  C   UNL     1      49.319  21.022  22.474  0.00  0.00    +0.237 C 
ENDBRANCH   6   7
BRANCH  12  13
ATOM     13  O   UNL     1      51.578  21.671  19.736  0.00  0.00    -0.291 OA
ATOM     14  C   UNL     1      52.962  21.904  20.005  0.00  0.00    +0.236 C 
ENDBRANCH  12  13
ENDBRANCH  16  15
BRANCH  17  18
ATOM     18  O   UNL     1      47.085  17.252  17.607  0.00  0.00    -0.301 OA
ATOM     19  C   UNL     1      45.838  17.022  18.267  0.00  0.00    +0.236 C 
ENDBRANCH  17  18
BRANCH  21  22
ATOM     22  O   UNL     1      48.209  12.988  15.842  0.00  0.00    -0.308 OA
ATOM     23  C   UNL     1      46.958  12.339  16.076  0.00  0.00    +0.239 C 
ENDBRANCH  21  22
TORSDOF 5
ENDMDL
MODEL 5
REMARK VINA RESULT:      -5.1      3.856      6.865
REMARK  Name = ZINC95486017
REMARK  13 active torsions:
REMARK  status: ('A' for Active; 'I' for Inactive)
REMARK    1  A    between atoms: C1_1  and  C2_2
REMARK    2  A    between atoms: C6_6  and  O1_8
REMARK    3  A    between atoms: O1_8  and  C8_9
REMARK    4  A    between atoms: C9_10  and  O4_33
REMARK    5  A    between atoms: C11_12  and  C26_32
REMARK    6  A    between atoms: C12_13  and  C13_14
REMARK    7  A    between atoms: C14_15  and  O3_30
REMARK    8  A    between atoms: C16_17  and  O2_28
REMARK    9  A    between atoms: C20_21  and  C23_27
REMARK   10  A    between atoms: C21_24  and  C22_26
REMARK   11  A    between atoms: O2_28  and  C24_29
REMARK   12  A    between atoms: O3_30  and  C25_31
REMARK   13  A    between atoms: O4_33  and  C27_34
REMARK                            x       y       z     vdW  Elec       q    Type
REMARK                         _______ _______ _______ _____ _____    ______ ____
ROOT
ATOM     16  C   UNL     1      48.590  16.835  18.936  0.00  0.00    -0.102 A 
ATOM     17  C   UNL     1      47.854  17.015  20.111  0.00  0.00    +0.182 A 
ATOM     20  C   UNL     1      48.080  18.132  20.895  0.00  0.00    -0.167 A 
ATOM     21  C   UNL     1      49.031  19.064  20.512  0.00  0.00    +0.178 A 
ATOM     24  C   UNL     1      49.767  18.887  19.342  0.00  0.00    -0.179 A 
ATOM     25  C   UNL     1      50.784  19.935  18.973  0.00  0.00    +0.230 C 
ATOM     26  C   UNL     1      50.065  21.151  18.385  0.00  0.00    +0.042 C 
ATOM     27  N   UNL     1      51.740  19.398  17.994  0.00  0.00    -0.670 NA
ATOM     28  H   UNL     1      52.351  18.713  18.413  0.00  0.00    +0.343 HD
ATOM     29  C   UNL     1      51.017  18.829  16.847  0.00  0.00    +0.165 C 
ATOM     30  C   UNL     1      51.999  18.527  15.712  0.00  0.00    +0.037 C 
ATOM     31  C   UNL     1      50.337  17.535  17.296  0.00  0.00    +0.058 C 
ATOM     32  C   UNL     1      49.554  17.775  18.561  0.00  0.00    +0.014 A 
ENDROOT
BRANCH  16  15
ATOM      1  C   UNL     1      51.855  13.186  20.547  0.00  0.00    +0.090 C 
ATOM      2  C   UNL     1      50.802  13.247  19.470  0.00  0.00    -0.026 A 
ATOM      3  C   UNL     1      50.089  14.395  19.295  0.00  0.00    -0.032 A 
ATOM      4  C   UNL     1      49.106  14.462  18.295  0.00  0.00    +0.046 A 
ATOM      5  C   UNL     1      48.864  13.333  17.477  0.00  0.00    -0.103 A 
ATOM      6  C   UNL     1      47.878  13.402  16.473  0.00  0.00    +0.173 A 
ATOM      9  C   UNL     1      47.158  14.563  16.296  0.00  0.00    -0.108 A 
ATOM     10  C   UNL     1      47.391  15.676  17.095  0.00  0.00    -0.008 A 
ATOM     11  C   UNL     1      46.588  16.932  16.876  0.00  0.00    +0.092 C 
ATOM     12  C   UNL     1      49.616  12.159  17.681  0.00  0.00    +0.171 A 
ATOM     15  C   UNL     1      48.352  15.643  18.091  0.00  0.00    -0.072 A 
ATOM     33  C   UNL     1      50.576  12.133  18.668  0.00  0.00    -0.112 A 
BRANCH   6   7
ATOM      7  O   UNL     1      47.637  12.324  15.683  0.00  0.00    -0.291 OA
ATOM      8  C   UNL     1      47.714  12.526  14.270  0.00  0.00    +0.237 C 
ENDBRANCH   6   7
BRANCH  12  13
ATOM     13  O   UNL     1      49.398  11.064  16.908  0.00  0.00    -0.291 OA
ATOM     14  C   UNL     1      50.548  10.427  16.347  0.00  0.00    +0.236 C 
ENDBRANCH  12  13
ENDBRANCH  16  15
BRANCH  17  18
ATOM     18  O   UNL     1      46.920  16.099  20.479  0.00  0.00    -0.301 OA
ATOM     19  C   UNL     1      45.553  16.514  20.440  0.00  0.00    +0.236 C 
ENDBRANCH  17  18
BRANCH  21  22
ATOM     22  O   UNL     1      49.249  20.160  21.285  0.00  0.00    -0.308 OA
ATOM     23  C   UNL     1      48.119  20.984  21.576  0.00  0.00    +0.239 C 
ENDBRANCH  21  22
TORSDOF 5
ENDMDL
MODEL 6
REMARK VINA RESULT:      -5.1      4.050      6.873
REMARK  Name = ZINC95486017
REMARK  13 active torsions:
REMARK  status: ('A' for Active; 'I' for Inactive)
REMARK    1  A    between atoms: C1_1  and  C2_2
REMARK    2  A    between atoms: C6_6  and  O1_8
REMARK    3  A    between atoms: O1_8  and  C8_9
REMARK    4  A    between atoms: C9_10  and  O4_33
REMARK    5  A    between atoms: C11_12  and  C26_32
REMARK    6  A    between atoms: C12_13  and  C13_14
REMARK    7  A    between atoms: C14_15  and  O3_30
REMARK    8  A    between atoms: C16_17  and  O2_28
REMARK    9  A    between atoms: C20_21  and  C23_27
REMARK   10  A    between atoms: C21_24  and  C22_26
REMARK   11  A    between atoms: O2_28  and  C24_29
REMARK   12  A    between atoms: O3_30  and  C25_31
REMARK   13  A    between atoms: O4_33  and  C27_34
REMARK                            x       y       z     vdW  Elec       q    Type
REMARK                         _______ _______ _______ _____ _____    ______ ____
ROOT
ATOM     16  C   UNL     1      50.913  16.595  19.491  0.00  0.00    -0.102 A 
ATOM     17  C   UNL     1      50.591  16.528  20.850  0.00  0.00    +0.182 A 
ATOM     20  C   UNL     1      50.646  17.673  21.623  0.00  0.00    -0.167 A 
ATOM     21  C   UNL     1      51.017  18.878  21.049  0.00  0.00    +0.178 A 
ATOM     24  C   UNL     1      51.339  18.949  19.695  0.00  0.00    -0.179 A 
ATOM     25  C   UNL     1      51.730  20.287  19.122  0.00  0.00    +0.230 C 
ATOM     26  C   UNL     1      50.473  21.132  18.909  0.00  0.00    +0.042 C 
ATOM     27  N   UNL     1      52.437  20.111  17.845  0.00  0.00    -0.670 NA
ATOM     28  H   UNL     1      53.353  19.713  17.984  0.00  0.00    +0.343 HD
ATOM     29  C   UNL     1      51.632  19.278  16.938  0.00  0.00    +0.165 C 
ATOM     30  C   UNL     1      52.226  19.325  15.528  0.00  0.00    +0.037 C 
ATOM     31  C   UNL     1      51.651  17.840  17.455  0.00  0.00    +0.058 C 
ATOM     32  C   UNL     1      51.295  17.813  18.920  0.00  0.00    +0.014 A 
ENDROOT
BRANCH  16  15
ATOM      1  C   UNL     1      46.256  16.511  17.284  0.00  0.00    +0.090 C 
ATOM      2  C   UNL     1      47.455  15.599  17.233  0.00  0.00    -0.026 A 
ATOM      3  C   UNL     1      48.567  15.914  17.955  0.00  0.00    -0.032 A 
ATOM      4  C   UNL     1      49.689  15.072  17.915  0.00  0.00    +0.046 A 
ATOM      5  C   UNL     1      49.654  13.900  17.122  0.00  0.00    -0.103 A 
ATOM      6  C   UNL     1      50.780  13.054  17.082  0.00  0.00    +0.173 A 
ATOM      9  C   UNL     1      51.904  13.372  17.814  0.00  0.00    -0.108 A 
ATOM     10  C   UNL     1      51.944  14.521  18.594  0.00  0.00    -0.008 A 
ATOM     11  C   UNL     1      53.188  14.841  19.384  0.00  0.00    +0.092 C 
ATOM     12  C   UNL     1      48.491  13.599  16.385  0.00  0.00    +0.171 A 
ATOM     15  C   UNL     1      50.856  15.374  18.656  0.00  0.00    -0.072 A 
ATOM     33  C   UNL     1      47.408  14.447  16.454  0.00  0.00    -0.112 A 
BRANCH   6   7
ATOM      7  O   UNL     1      50.758  11.927  16.325  0.00  0.00    -0.291 OA
ATOM      8  C   UNL     1      51.862  11.717  15.443  0.00  0.00    +0.237 C 
ENDBRANCH   6   7
BRANCH  12  13
ATOM     13  O   UNL     1      48.437  12.481  15.617  0.00  0.00    -0.291 OA
ATOM     14  C   UNL     1      47.962  12.635  14.279  0.00  0.00    +0.236 C 
ENDBRANCH  12  13
ENDBRANCH  16  15
BRANCH  17  18
ATOM     18  O   UNL     1      50.225  15.344  21.406  0.00  0.00    -0.301 OA
ATOM     19  C   UNL     1      48.861  15.211  21.810  0.00  0.00    +0.236 C 
ENDBRANCH  17  18
BRANCH  21  22
ATOM     22  O   UNL     1      51.068  20.001  21.812  0.00  0.00    -0.308 OA
ATOM     23  C   UNL     1      49.874  20.368  22.505  0.00  0.00    +0.239 C 
ENDBRANCH  21  22
TORSDOF 5
ENDMDL
MODEL 7
REMARK VINA RESULT:      -5.0      2.844      6.895
REMARK  Name = ZINC95486017
REMARK  13 active torsions:
REMARK  status: ('A' for Active; 'I' for Inactive)
REMARK    1  A    between atoms: C1_1  and  C2_2
REMARK    2  A    between atoms: C6_6  and  O1_8
REMARK    3  A    between atoms: O1_8  and  C8_9
REMARK    4  A    between atoms: C9_10  and  O4_33
REMARK    5  A    between atoms: C11_12  and  C26_32
REMARK    6  A    between atoms: C12_13  and  C13_14
REMARK    7  A    between atoms: C14_15  and  O3_30
REMARK    8  A    between atoms: C16_17  and  O2_28
REMARK    9  A    between atoms: C20_21  and  C23_27
REMARK   10  A    between atoms: C21_24  and  C22_26
REMARK   11  A    between atoms: O2_28  and  C24_29
REMARK   12  A    between atoms: O3_30  and  C25_31
REMARK   13  A    between atoms: O4_33  and  C27_34
REMARK                            x       y       z     vdW  Elec       q    Type
REMARK                         _______ _______ _______ _____ _____    ______ ____
ROOT
ATOM     16  C   UNL     1      48.035  18.310  20.247  0.00  0.00    -0.102 A 
ATOM     17  C   UNL     1      48.912  18.673  21.273  0.00  0.00    +0.182 A 
ATOM     20  C   UNL     1      50.070  17.944  21.473  0.00  0.00    -0.167 A 
ATOM     21  C   UNL     1      50.355  16.862  20.657  0.00  0.00    +0.178 A 
ATOM     24  C   UNL     1      49.483  16.497  19.633  0.00  0.00    -0.179 A 
ATOM     25  C   UNL     1      49.846  15.314  18.773  0.00  0.00    +0.230 C 
ATOM     26  C   UNL     1      50.919  15.734  17.765  0.00  0.00    +0.042 C 
ATOM     27  N   UNL     1      48.661  14.814  18.062  0.00  0.00    -0.670 NA
ATOM     28  H   UNL     1      48.013  14.369  18.694  0.00  0.00    +0.343 HD
ATOM     29  C   UNL     1      48.012  15.915  17.332  0.00  0.00    +0.165 C 
ATOM     30  C   UNL     1      46.957  15.353  16.378  0.00  0.00    +0.037 C 
ATOM     31  C   UNL     1      47.345  16.843  18.348  0.00  0.00    +0.058 C 
ATOM     32  C   UNL     1      48.325  17.211  19.432  0.00  0.00    +0.014 A 
ENDROOT
BRANCH  16  15
ATOM      1  C   UNL     1      44.211  15.692  22.505  0.00  0.00    +0.090 C 
ATOM      2  C   UNL     1      44.282  16.985  21.734  0.00  0.00    -0.026 A 
ATOM      3  C   UNL     1      45.483  17.415  21.255  0.00  0.00    -0.032 A 
ATOM      4  C   UNL     1      45.560  18.618  20.535  0.00  0.00    +0.046 A 
ATOM      5  C   UNL     1      44.384  19.374  20.313  0.00  0.00    -0.103 A 
ATOM      6  C   UNL     1      44.461  20.581  19.590  0.00  0.00    +0.173 A 
ATOM      9  C   UNL     1      45.676  21.014  19.105  0.00  0.00    -0.108 A 
ATOM     10  C   UNL     1      46.833  20.276  19.319  0.00  0.00    -0.008 A 
ATOM     11  C   UNL     1      48.146  20.776  18.775  0.00  0.00    +0.092 C 
ATOM     12  C   UNL     1      43.156  18.906  20.821  0.00  0.00    +0.171 A 
ATOM     15  C   UNL     1      46.794  19.086  20.025  0.00  0.00    -0.072 A 
ATOM     33  C   UNL     1      43.119  17.719  21.517  0.00  0.00    -0.112 A 
BRANCH   6   7
ATOM      7  O   UNL     1      43.340  21.315  19.371  0.00  0.00    -0.291 OA
ATOM      8  C   UNL     1      43.438  22.726  19.576  0.00  0.00    +0.237 C 
ENDBRANCH   6   7
BRANCH  12  13
ATOM     13  O   UNL     1      42.017  19.617  20.620  0.00  0.00    -0.291 OA
ATOM     14  C   UNL     1      40.826  19.124  21.238  0.00  0.00    +0.236 C 
ENDBRANCH  12  13
ENDBRANCH  16  15
BRANCH  17  18
ATOM     18  O   UNL     1      48.628  19.737  22.069  0.00  0.00    -0.301 OA
ATOM     19  C   UNL     1      49.678  20.682  22.288  0.00  0.00    +0.236 C 
ENDBRANCH  17  18
BRANCH  21  22
ATOM     22  O   UNL     1      51.494  16.150  20.856  0.00  0.00    -0.308 OA
ATOM     23  C   UNL     1      52.702  16.893  21.029  0.00  0.00    +0.239 C 
ENDBRANCH  21  22
TORSDOF 5
ENDMDL
MODEL 8
REMARK VINA RESULT:      -5.0      4.951      8.542
REMARK  Name = ZINC95486017
REMARK  13 active torsions:
REMARK  status: ('A' for Active; 'I' for Inactive)
REMARK    1  A    between atoms: C1_1  and  C2_2
REMARK    2  A    between atoms: C6_6  and  O1_8
REMARK    3  A    between atoms: O1_8  and  C8_9
REMARK    4  A    between atoms: C9_10  and  O4_33
REMARK    5  A    between atoms: C11_12  and  C26_32
REMARK    6  A    between atoms: C12_13  and  C13_14
REMARK    7  A    between atoms: C14_15  and  O3_30
REMARK    8  A    between atoms: C16_17  and  O2_28
REMARK    9  A    between atoms: C20_21  and  C23_27
REMARK   10  A    between atoms: C21_24  and  C22_26
REMARK   11  A    between atoms: O2_28  and  C24_29
REMARK   12  A    between atoms: O3_30  and  C25_31
REMARK   13  A    between atoms: O4_33  and  C27_34
REMARK                            x       y       z     vdW  Elec       q    Type
REMARK                         _______ _______ _______ _____ _____    ______ ____
ROOT
ATOM     16  C   UNL     1      49.199  13.244  17.940  0.00  0.00    -0.102 A 
ATOM     17  C   UNL     1      50.035  12.808  18.972  0.00  0.00    +0.182 A 
ATOM     20  C   UNL     1      50.963  11.812  18.726  0.00  0.00    -0.167 A 
ATOM     21  C   UNL     1      51.060  11.254  17.461  0.00  0.00    +0.178 A 
ATOM     24  C   UNL     1      50.228  11.686  16.430  0.00  0.00    -0.179 A 
ATOM     25  C   UNL     1      50.381  11.048  15.074  0.00  0.00    +0.230 C 
ATOM     26  C   UNL     1      51.613  11.630  14.378  0.00  0.00    +0.042 C 
ATOM     27  N   UNL     1      49.184  11.290  14.256  0.00  0.00    -0.670 NA
ATOM     28  H   UNL     1      48.392  10.767  14.599  0.00  0.00    +0.343 HD
ATOM     29  C   UNL     1      48.888  12.730  14.215  0.00  0.00    +0.165 C 
ATOM     30  C   UNL     1      47.824  13.010  13.151  0.00  0.00    +0.037 C 
ATOM     31  C   UNL     1      48.366  13.157  15.587  0.00  0.00    +0.058 C 
ATOM     32  C   UNL     1      49.297  12.670  16.668  0.00  0.00    +0.014 A 
ENDROOT
BRANCH  16  15
ATOM      1  C   UNL     1      51.606  17.741  17.197  0.00  0.00    +0.090 C 
ATOM      2  C   UNL     1      50.203  17.357  17.589  0.00  0.00    -0.026 A 
ATOM      3  C   UNL     1      49.875  16.040  17.703  0.00  0.00    -0.032 A 
ATOM      4  C   UNL     1      48.571  15.671  18.067  0.00  0.00    +0.046 A 
ATOM      5  C   UNL     1      47.605  16.676  18.314  0.00  0.00    -0.103 A 
ATOM      6  C   UNL     1      46.296  16.307  18.682  0.00  0.00    +0.173 A 
ATOM      9  C   UNL     1      45.966  14.974  18.797  0.00  0.00    -0.108 A 
ATOM     10  C   UNL     1      46.910  13.982  18.557  0.00  0.00    -0.008 A 
ATOM     11  C   UNL     1      46.518  12.534  18.693  0.00  0.00    +0.092 C 
ATOM     12  C   UNL     1      47.972  18.031  18.189  0.00  0.00    +0.171 A 
ATOM     15  C   UNL     1      48.205  14.310  18.194  0.00  0.00    -0.072 A 
ATOM     33  C   UNL     1      49.263  18.354  17.834  0.00  0.00    -0.112 A 
BRANCH   6   7
ATOM      7  O   UNL     1      45.362  17.262  18.920  0.00  0.00    -0.291 OA
ATOM      8  C   UNL     1      44.702  17.222  20.187  0.00  0.00    +0.237 C 
ENDBRANCH   6   7
BRANCH  12  13
ATOM     13  O   UNL     1      47.060  19.011  18.420  0.00  0.00    -0.291 OA
ATOM     14  C   UNL     1      47.468  20.091  19.262  0.00  0.00    +0.236 C 
ENDBRANCH  12  13
ENDBRANCH  16  15
BRANCH  17  18
ATOM     18  O   UNL     1      49.937  13.361  20.209  0.00  0.00    -0.301 OA
ATOM     19  C   UNL     1      51.074  14.083  20.688  0.00  0.00    +0.236 C 
ENDBRANCH  17  18
BRANCH  21  22
ATOM     22  O   UNL     1      51.974  10.277  17.225  0.00  0.00    -0.308 OA
ATOM     23  C   UNL     1      53.328  10.555  17.584  0.00  0.00    +0.239 C 
ENDBRANCH  21  22
TORSDOF 5
ENDMDL
MODEL 9
REMARK VINA RESULT:      -4.9      4.256      6.366
REMARK  Name = ZINC95486017
REMARK  13 active torsions:
REMARK  status: ('A' for Active; 'I' for Inactive)
REMARK    1  A    between atoms: C1_1  and  C2_2
REMARK    2  A    between atoms: C6_6  and  O1_8
REMARK    3  A    between atoms: O1_8  and  C8_9
REMARK    4  A    between atoms: C9_10  and  O4_33
REMARK    5  A    between atoms: C11_12  and  C26_32
REMARK    6  A    between atoms: C12_13  and  C13_14
REMARK    7  A    between atoms: C14_15  and  O3_30
REMARK    8  A    between atoms: C16_17  and  O2_28
REMARK    9  A    between atoms: C20_21  and  C23_27
REMARK   10  A    between atoms: C21_24  and  C22_26
REMARK   11  A    between atoms: O2_28  and  C24_29
REMARK   12  A    between atoms: O3_30  and  C25_31
REMARK   13  A    between atoms: O4_33  and  C27_34
REMARK                            x       y       z     vdW  Elec       q    Type
REMARK                         _______ _______ _______ _____ _____    ______ ____
ROOT
ATOM     16  C   UNL     1      48.652  16.073  18.335  0.00  0.00    -0.102 A 
ATOM     17  C   UNL     1      48.747  17.239  17.570  0.00  0.00    +0.182 A 
ATOM     20  C   UNL     1      47.672  18.108  17.510  0.00  0.00    -0.167 A 
ATOM     21  C   UNL     1      46.510  17.819  18.208  0.00  0.00    +0.178 A 
ATOM     24  C   UNL     1      46.412  16.658  18.972  0.00  0.00    -0.179 A 
ATOM     25  C   UNL     1      45.127  16.397  19.713  0.00  0.00    +0.230 C 
ATOM     26  C   UNL     1      45.081  17.274  20.967  0.00  0.00    +0.042 C 
ATOM     27  N   UNL     1      45.031  14.980  20.091  0.00  0.00    -0.670 NA
ATOM     28  H   UNL     1      44.880  14.393  19.284  0.00  0.00    +0.343 HD
ATOM     29  C   UNL     1      46.242  14.572  20.820  0.00  0.00    +0.165 C 
ATOM     30  C   UNL     1      46.028  13.195  21.452  0.00  0.00    +0.037 C 
ATOM     31  C   UNL     1      47.406  14.509  19.830  0.00  0.00    +0.058 C 
ATOM     32  C   UNL     1      47.473  15.784  19.030  0.00  0.00    +0.014 A 
ENDROOT
BRANCH  16  15
ATOM      1  C   UNL     1      48.107  12.739  14.442  0.00  0.00    +0.090 C 
ATOM      2  C   UNL     1      49.130  12.914  15.534  0.00  0.00    -0.026 A 
ATOM      3  C   UNL     1      48.982  13.926  16.435  0.00  0.00    -0.032 A 
ATOM      4  C   UNL     1      49.929  14.098  17.457  0.00  0.00    +0.046 A 
ATOM      5  C   UNL     1      51.033  13.216  17.541  0.00  0.00    -0.103 A 
ATOM      6  C   UNL     1      51.983  13.388  18.567  0.00  0.00    +0.173 A 
ATOM      9  C   UNL     1      51.832  14.411  19.478  0.00  0.00    -0.108 A 
ATOM     10  C   UNL     1      50.750  15.280  19.401  0.00  0.00    -0.008 A 
ATOM     11  C   UNL     1      50.612  16.387  20.414  0.00  0.00    +0.092 C 
ATOM     12  C   UNL     1      51.161  12.179  16.596  0.00  0.00    +0.171 A 
ATOM     15  C   UNL     1      49.798  15.139  18.406  0.00  0.00    -0.072 A 
ATOM     33  C   UNL     1      50.208  12.038  15.611  0.00  0.00    -0.112 A 
BRANCH   6   7
ATOM      7  O   UNL     1      53.046  12.548  18.657  0.00  0.00    -0.291 OA
ATOM      8  C   UNL     1      54.148  12.980  19.457  0.00  0.00    +0.237 C 
ENDBRANCH   6   7
BRANCH  12  13
ATOM     13  O   UNL     1      52.213  11.322  16.658  0.00  0.00    -0.291 OA
ATOM     14  C   UNL     1      52.736  10.845  15.417  0.00  0.00    +0.236 C 
ENDBRANCH  12  13
ENDBRANCH  16  15
BRANCH  17  18
ATOM     18  O   UNL     1      49.890  17.518  16.890  0.00  0.00    -0.301 OA
ATOM     19  C   UNL     1      50.632  18.665  17.312  0.00  0.00    +0.236 C 
ENDBRANCH  17  18
BRANCH  21  22
ATOM     22  O   UNL     1      45.458  18.675  18.146  0.00  0.00    -0.308 OA
ATOM     23  C   UNL     1      45.687  20.017  18.580  0.00  0.00    +0.239 C 
ENDBRANCH  21  22
TORSDOF 5
ENDMDL
