MODEL 1
REMARK VINA RESULT:      -5.7      0.000      0.000
REMARK  Name = ZINC95486115
REMARK  19 active torsions:
REMARK  status: ('A' for Active; 'I' for Inactive)
REMARK    1  A    between atoms: C1_1  and  C2_2
REMARK    2  A    between atoms: C3_3  and  C4_4
REMARK    3  A    between atoms: C3_3  and  C5_5
REMARK    4  A    between atoms: C5_5  and  C6_7
REMARK    5  A    between atoms: C6_7  and  C7_8
REMARK    6  A    between atoms: C8_10  and  O11_55
REMARK    7  A    between atoms: C13_19  and  O6_36
REMARK    8  A    between atoms: C14_21  and  C23_35
REMARK    9  A    between atoms: C18_28  and  C19_30
REMARK   10  A    between atoms: O6_36  and  C24_37
REMARK   11  A    between atoms: C24_37  and  C25_39
REMARK   12  A    between atoms: C26_40  and  C34_54
REMARK   13  A    between atoms: C27_42  and  C31_47
REMARK   14  A    between atoms: C28_44  and  C29_45
REMARK   15  A    between atoms: C28_44  and  C30_46
REMARK   16  A    between atoms: C31_47  and  C32_49
REMARK   17  A    between atoms: C31_47  and  O10_53
REMARK   18  A    between atoms: C32_49  and  O9_51
REMARK   19  A    between atoms: O9_51  and  C33_52
REMARK                            x       y       z     vdW  Elec       q    Type
REMARK                         _______ _______ _______ _____ _____    ______ ____
ROOT
ATOM      6  C   UNL     1      47.969  17.979  18.809  0.00  0.00    +0.015 C 
ATOM      7  C   UNL     1      48.733  17.230  17.860  0.00  0.00    +0.204 C 
ATOM     10  C   UNL     1      48.063  15.917  17.251  0.00  0.00    +0.109 C 
ATOM     11  C   UNL     1      48.189  14.605  17.945  0.00  0.00    +0.028 C 
ATOM     12  C   UNL     1      49.053  14.662  19.263  0.00  0.00    +0.089 C 
ATOM     13  C   UNL     1      48.384  15.114  20.490  0.00  0.00    -0.003 C 
ATOM     14  C   UNL     1      49.455  15.817  21.384  0.00  0.00    +0.028 C 
ATOM     15  C   UNL     1      47.127  15.970  20.459  0.00  0.00    -0.016 C 
ATOM     23  C   UNL     1      49.469  13.133  19.475  0.00  0.00    -0.001 C 
ATOM     24  C   UNL     1      50.324  12.653  18.374  0.00  0.00    +0.211 C 
ATOM     29  C   UNL     1      49.726  12.955  17.033  0.00  0.00    -0.061 C 
ATOM     30  C   UNL     1      50.604  14.034  16.310  0.00  0.00    +0.079 C 
ATOM     31  C   UNL     1      49.800  11.638  16.184  0.00  0.00    +0.260 C 
ATOM     37  O   UNL     1      49.132  11.798  14.909  0.00  0.00    -0.372 OA
ATOM     38  C   UNL     1      47.868  12.337  14.949  0.00  0.00    +0.485 C 
ATOM     39  O   UNL     1      46.966  11.759  14.370  0.00  0.00    -0.449 OA
ATOM     40  C   UNL     1      47.587  13.535  15.749  0.00  0.00    +0.092 C 
ATOM     41  C   UNL     1      48.271  13.350  17.102  0.00  0.00    +0.037 C 
ATOM     42  O   UNL     1      46.945  15.323  17.891  0.00  0.00    -0.272 OA
ATOM     43  C   UNL     1      46.988  17.359  19.856  0.00  0.00    -0.015 C 
ATOM     44  C   UNL     1      45.579  17.349  19.157  0.00  0.00    +0.018 C 
ATOM     45  C   UNL     1      46.787  18.327  20.932  0.00  0.00    +0.028 C 
ENDROOT
BRANCH  31  32
ATOM     32  C   UNL     1      51.239  11.252  15.951  0.00  0.00    -0.188 A 
ATOM     33  C   UNL     1      51.990  10.316  16.697  0.00  0.00    -0.046 A 
ATOM     34  C   UNL     1      53.219  10.278  16.150  0.00  0.00    +0.166 A 
ATOM     35  O   UNL     1      53.250  11.139  15.119  0.00  0.00    -0.173 OA
ATOM     36  C   UNL     1      52.051  11.728  14.990  0.00  0.00    +0.208 A 
ENDBRANCH  31  32
BRANCH   7   8
ATOM      8  O   UNL     1      50.065  16.988  18.254  0.00  0.00    -0.544 OA
ATOM      9  H   UNL     1      50.291  17.350  19.123  0.00  0.00    +0.368 HD
ENDBRANCH   7   8
BRANCH   6   5
ATOM      5  C   UNL     1      48.910  18.785  19.688  0.00  0.00    +0.036 C 
BRANCH   5   4
ATOM      4  C   UNL     1      49.079  20.166  19.109  0.00  0.00    +0.380 C 
ATOM     46  O   UNL     1      48.106  20.801  18.758  0.00  0.00    -0.460 OA
BRANCH   4   3
ATOM      1  C   UNL     1      52.563  21.506  19.902  0.00  0.00    +0.087 C 
ATOM      2  C   UNL     1      51.186  20.912  20.046  0.00  0.00    +0.066 C 
ATOM      3  C   UNL     1      50.416  20.742  18.969  0.00  0.00    -0.227 C 
ATOM     47  C   UNL     1      50.924  21.145  17.609  0.00  0.00    +0.092 C 
ENDBRANCH   4   3
ENDBRANCH   5   4
ENDBRANCH   6   5
BRANCH  15  16
ATOM     16  C   UNL     1      45.892  15.100  20.392  0.00  0.00    +0.270 C 
BRANCH  16  17
ATOM     17  O   UNL     1      46.259  13.784  19.969  0.00  0.00    -0.502 OA
ATOM     18  H   UNL     1      47.213  13.642  19.911  0.00  0.00    +0.370 HD
ENDBRANCH  16  17
BRANCH  16  19
ATOM     19  C   UNL     1      45.251  15.030  21.753  0.00  0.00    +0.424 C 
ATOM     22  O   UNL     1      45.048  13.958  22.271  0.00  0.00    -0.497 OA
BRANCH  19  20
ATOM     20  O   UNL     1      44.906  16.159  22.390  0.00  0.00    -0.352 OA
ATOM     21  C   UNL     1      43.588  16.661  22.155  0.00  0.00    +0.257 C 
ENDBRANCH  19  20
ENDBRANCH  16  19
ENDBRANCH  15  16
BRANCH  24  25
ATOM     25  O   UNL     1      51.607  13.266  18.459  0.00  0.00    -0.327 OA
BRANCH  25  26
ATOM     26  C   UNL     1      52.356  12.965  19.532  0.00  0.00    +0.457 C 
ATOM     27  C   UNL     1      52.830  14.062  20.450  0.00  0.00    +0.149 C 
ATOM     28  O   UNL     1      52.649  11.816  19.761  0.00  0.00    -0.507 OA
ENDBRANCH  25  26
ENDBRANCH  24  25
TORSDOF 11
ENDMDL
MODEL 2
REMARK VINA RESULT:      -5.6      1.884      8.152
REMARK  Name = ZINC95486115
REMARK  19 active torsions:
REMARK  status: ('A' for Active; 'I' for Inactive)
REMARK    1  A    between atoms: C1_1  and  C2_2
REMARK    2  A    between atoms: C3_3  and  C4_4
REMARK    3  A    between atoms: C3_3  and  C5_5
REMARK    4  A    between atoms: C5_5  and  C6_7
REMARK    5  A    between atoms: C6_7  and  C7_8
REMARK    6  A    between atoms: C8_10  and  O11_55
REMARK    7  A    between atoms: C13_19  and  O6_36
REMARK    8  A    between atoms: C14_21  and  C23_35
REMARK    9  A    between atoms: C18_28  and  C19_30
REMARK   10  A    between atoms: O6_36  and  C24_37
REMARK   11  A    between atoms: C24_37  and  C25_39
REMARK   12  A    between atoms: C26_40  and  C34_54
REMARK   13  A    between atoms: C27_42  and  C31_47
REMARK   14  A    between atoms: C28_44  and  C29_45
REMARK   15  A    between atoms: C28_44  and  C30_46
REMARK   16  A    between atoms: C31_47  and  C32_49
REMARK   17  A    between atoms: C31_47  and  O10_53
REMARK   18  A    between atoms: C32_49  and  O9_51
REMARK   19  A    between atoms: O9_51  and  C33_52
REMARK                            x       y       z     vdW  Elec       q    Type
REMARK                         _______ _______ _______ _____ _____    ______ ____
ROOT
ATOM      6  C   UNL     1      49.585  13.698  17.009  0.00  0.00    +0.015 C 
ATOM      7  C   UNL     1      48.778  14.871  16.881  0.00  0.00    +0.204 C 
ATOM     10  C   UNL     1      49.328  16.216  17.538  0.00  0.00    +0.109 C 
ATOM     11  C   UNL     1      49.045  16.537  18.966  0.00  0.00    +0.028 C 
ATOM     12  C   UNL     1      48.150  15.462  19.695  0.00  0.00    +0.089 C 
ATOM     13  C   UNL     1      48.823  14.266  20.218  0.00  0.00    -0.003 C 
ATOM     14  C   UNL     1      47.802  13.085  20.166  0.00  0.00    +0.028 C 
ATOM     15  C   UNL     1      50.162  13.788  19.679  0.00  0.00    -0.016 C 
ATOM     23  C   UNL     1      47.572  16.277  20.942  0.00  0.00    -0.001 C 
ATOM     24  C   UNL     1      46.707  17.387  20.503  0.00  0.00    +0.211 C 
ATOM     29  C   UNL     1      47.376  18.235  19.462  0.00  0.00    -0.061 C 
ATOM     30  C   UNL     1      46.637  18.043  18.092  0.00  0.00    +0.079 C 
ATOM     31  C   UNL     1      47.193  19.732  19.894  0.00  0.00    +0.260 C 
ATOM     37  O   UNL     1      47.914  20.623  19.010  0.00  0.00    -0.372 OA
ATOM     38  C   UNL     1      49.225  20.297  18.755  0.00  0.00    +0.485 C 
ATOM     39  O   UNL     1      50.080  21.151  18.904  0.00  0.00    -0.449 OA
ATOM     40  C   UNL     1      49.603  18.925  18.402  0.00  0.00    +0.092 C 
ATOM     41  C   UNL     1      48.861  17.988  19.354  0.00  0.00    +0.037 C 
ATOM     42  O   UNL     1      50.358  16.165  18.513  0.00  0.00    -0.272 OA
ATOM     43  C   UNL     1      50.463  13.349  18.255  0.00  0.00    -0.015 C 
ATOM     44  C   UNL     1      51.885  13.946  17.947  0.00  0.00    +0.018 C 
ATOM     45  C   UNL     1      50.729  11.911  18.246  0.00  0.00    +0.028 C 
ENDROOT
BRANCH  31  32
ATOM     32  C   UNL     1      45.730  20.097  19.890  0.00  0.00    -0.188 A 
ATOM     33  C   UNL     1      44.942  20.401  18.757  0.00  0.00    -0.046 A 
ATOM     34  C   UNL     1      43.702  20.666  19.204  0.00  0.00    +0.166 A 
ATOM     35  O   UNL     1      43.698  20.539  20.542  0.00  0.00    -0.173 OA
ATOM     36  C   UNL     1      44.924  20.189  20.962  0.00  0.00    +0.208 A 
ENDBRANCH  31  32
BRANCH   7   8
ATOM      8  O   UNL     1      47.416  14.672  17.187  0.00  0.00    -0.544 OA
ATOM      9  H   UNL     1      47.240  14.537  18.128  0.00  0.00    +0.368 HD
ENDBRANCH   7   8
BRANCH   6   5
ATOM      5  C   UNL     1      48.705  12.466  16.881  0.00  0.00    +0.036 C 
BRANCH   5   4
ATOM      4  C   UNL     1      48.390  12.223  15.428  0.00  0.00    +0.380 C 
ATOM     46  O   UNL     1      47.235  12.169  15.058  0.00  0.00    -0.460 OA
BRANCH   4   3
ATOM      1  C   UNL     1      50.716  12.726  12.445  0.00  0.00    +0.087 C 
ATOM      2  C   UNL     1      49.598  12.901  13.440  0.00  0.00    +0.066 C 
ATOM      3  C   UNL     1      49.474  12.052  14.462  0.00  0.00    -0.227 C 
ATOM     47  C   UNL     1      50.452  10.917  14.620  0.00  0.00    +0.092 C 
ENDBRANCH   4   3
ENDBRANCH   5   4
ENDBRANCH   6   5
BRANCH  15  16
ATOM     16  C   UNL     1      51.302  14.458  20.413  0.00  0.00    +0.270 C 
BRANCH  16  17
ATOM     17  O   UNL     1      50.776  15.395  21.355  0.00  0.00    -0.502 OA
ATOM     18  H   UNL     1      50.693  16.295  21.010  0.00  0.00    +0.370 HD
ENDBRANCH  16  17
BRANCH  16  19
ATOM     19  C   UNL     1      52.113  13.418  21.138  0.00  0.00    +0.424 C 
ATOM     22  O   UNL     1      51.558  12.524  21.733  0.00  0.00    -0.497 OA
BRANCH  19  20
ATOM     20  O   UNL     1      53.454  13.482  21.126  0.00  0.00    -0.352 OA
ATOM     21  C   UNL     1      54.151  12.395  20.514  0.00  0.00    +0.257 C 
ENDBRANCH  19  20
ENDBRANCH  16  19
ENDBRANCH  15  16
BRANCH  24  25
ATOM     25  O   UNL     1      45.492  16.869  19.970  0.00  0.00    -0.327 OA
BRANCH  25  26
ATOM     26  C   UNL     1      44.747  16.104  20.783  0.00  0.00    +0.457 C 
ATOM     27  C   UNL     1      43.953  16.739  21.895  0.00  0.00    +0.149 C 
ATOM     28  O   UNL     1      44.713  14.907  20.624  0.00  0.00    -0.507 OA
ENDBRANCH  25  26
ENDBRANCH  24  25
TORSDOF 11
ENDMDL
MODEL 3
REMARK VINA RESULT:      -5.2      1.737      2.168
REMARK  Name = ZINC95486115
REMARK  19 active torsions:
REMARK  status: ('A' for Active; 'I' for Inactive)
REMARK    1  A    between atoms: C1_1  and  C2_2
REMARK    2  A    between atoms: C3_3  and  C4_4
REMARK    3  A    between atoms: C3_3  and  C5_5
REMARK    4  A    between atoms: C5_5  and  C6_7
REMARK    5  A    between atoms: C6_7  and  C7_8
REMARK    6  A    between atoms: C8_10  and  O11_55
REMARK    7  A    between atoms: C13_19  and  O6_36
REMARK    8  A    between atoms: C14_21  and  C23_35
REMARK    9  A    between atoms: C18_28  and  C19_30
REMARK   10  A    between atoms: O6_36  and  C24_37
REMARK   11  A    between atoms: C24_37  and  C25_39
REMARK   12  A    between atoms: C26_40  and  C34_54
REMARK   13  A    between atoms: C27_42  and  C31_47
REMARK   14  A    between atoms: C28_44  and  C29_45
REMARK   15  A    between atoms: C28_44  and  C30_46
REMARK   16  A    between atoms: C31_47  and  C32_49
REMARK   17  A    between atoms: C31_47  and  O10_53
REMARK   18  A    between atoms: C32_49  and  O9_51
REMARK   19  A    between atoms: O9_51  and  C33_52
REMARK                            x       y       z     vdW  Elec       q    Type
REMARK                         _______ _______ _______ _____ _____    ______ ____
ROOT
ATOM      6  C   UNL     1      48.177  19.099  18.744  0.00  0.00    +0.015 C 
ATOM      7  C   UNL     1      49.035  18.053  18.283  0.00  0.00    +0.204 C 
ATOM     10  C   UNL     1      48.346  16.773  17.627  0.00  0.00    +0.109 C 
ATOM     11  C   UNL     1      47.899  15.631  18.474  0.00  0.00    +0.028 C 
ATOM     12  C   UNL     1      48.211  15.816  20.008  0.00  0.00    +0.089 C 
ATOM     13  C   UNL     1      47.268  16.618  20.798  0.00  0.00    -0.003 C 
ATOM     14  C   UNL     1      48.072  17.302  21.949  0.00  0.00    +0.028 C 
ATOM     15  C   UNL     1      46.346  17.646  20.160  0.00  0.00    -0.016 C 
ATOM     23  C   UNL     1      48.151  14.317  20.560  0.00  0.00    -0.001 C 
ATOM     24  C   UNL     1      49.209  13.483  19.963  0.00  0.00    +0.211 C 
ATOM     29  C   UNL     1      49.229  13.595  18.468  0.00  0.00    -0.061 C 
ATOM     30  C   UNL     1      50.537  14.339  18.026  0.00  0.00    +0.079 C 
ATOM     31  C   UNL     1      49.296  12.137  17.893  0.00  0.00    +0.260 C 
ATOM     37  O   UNL     1      49.196  12.139  16.449  0.00  0.00    -0.372 OA
ATOM     38  C   UNL     1      48.169  12.878  15.912  0.00  0.00    +0.485 C 
ATOM     39  O   UNL     1      47.431  12.350  15.099  0.00  0.00    -0.449 OA
ATOM     40  C   UNL     1      47.905  14.245  16.374  0.00  0.00    +0.092 C 
ATOM     41  C   UNL     1      47.985  14.233  17.900  0.00  0.00    +0.037 C 
ATOM     42  O   UNL     1      46.966  16.520  17.836  0.00  0.00    -0.272 OA
ATOM     43  C   UNL     1      46.766  18.883  19.381  0.00  0.00    -0.015 C 
ATOM     44  C   UNL     1      45.749  18.963  18.185  0.00  0.00    +0.018 C 
ATOM     45  C   UNL     1      46.420  20.074  20.156  0.00  0.00    +0.028 C 
ENDROOT
BRANCH  31  32
ATOM     32  C   UNL     1      50.588  11.477  18.305  0.00  0.00    -0.188 A 
ATOM     33  C   UNL     1      50.787  10.649  19.433  0.00  0.00    -0.046 A 
ATOM     34  C   UNL     1      52.079  10.277  19.420  0.00  0.00    +0.166 A 
ATOM     35  O   UNL     1      52.670  10.833  18.350  0.00  0.00    -0.173 OA
ATOM     36  C   UNL     1      51.769  11.558  17.668  0.00  0.00    +0.208 A 
ENDBRANCH  31  32
BRANCH   7   8
ATOM      8  O   UNL     1      50.036  17.679  19.203  0.00  0.00    -0.544 OA
ATOM      9  H   UNL     1      50.888  17.470  18.795  0.00  0.00    +0.368 HD
ENDBRANCH   7   8
BRANCH   6   5
ATOM      5  C   UNL     1      48.894  19.902  19.816  0.00  0.00    +0.036 C 
BRANCH   5   4
ATOM      4  C   UNL     1      49.957  20.758  19.177  0.00  0.00    +0.380 C 
ATOM     46  O   UNL     1      49.742  21.299  18.112  0.00  0.00    -0.460 OA
BRANCH   4   3
ATOM      1  C   UNL     1      52.632  21.339  21.836  0.00  0.00    +0.087 C 
ATOM      2  C   UNL     1      51.301  21.156  21.154  0.00  0.00    +0.066 C 
ATOM      3  C   UNL     1      51.249  20.936  19.839  0.00  0.00    -0.227 C 
ATOM     47  C   UNL     1      52.522  20.872  19.035  0.00  0.00    +0.092 C 
ENDBRANCH   4   3
ENDBRANCH   5   4
ENDBRANCH   6   5
BRANCH  15  16
ATOM     16  C   UNL     1      45.054  17.000  19.715  0.00  0.00    +0.270 C 
BRANCH  16  17
ATOM     17  O   UNL     1      45.210  15.579  19.709  0.00  0.00    -0.502 OA
ATOM     18  H   UNL     1      45.871  15.253  20.334  0.00  0.00    +0.370 HD
ENDBRANCH  16  17
BRANCH  16  19
ATOM     19  C   UNL     1      43.949  17.380  20.665  0.00  0.00    +0.424 C 
ATOM     22  O   UNL     1      43.748  16.716  21.654  0.00  0.00    -0.497 OA
BRANCH  19  20
ATOM     20  O   UNL     1      43.186  18.455  20.412  0.00  0.00    -0.352 OA
ATOM     21  C   UNL     1      42.647  19.149  21.539  0.00  0.00    +0.257 C 
ENDBRANCH  19  20
ENDBRANCH  16  19
ENDBRANCH  15  16
BRANCH  24  25
ATOM     25  O   UNL     1      50.479  13.877  20.476  0.00  0.00    -0.327 OA
BRANCH  25  26
ATOM     26  C   UNL     1      50.649  13.802  21.805  0.00  0.00    +0.457 C 
ATOM     27  C   UNL     1      50.563  12.468  22.501  0.00  0.00    +0.149 C 
ATOM     28  O   UNL     1      50.871  14.803  22.443  0.00  0.00    -0.507 OA
ENDBRANCH  25  26
ENDBRANCH  24  25
TORSDOF 11
ENDMDL
MODEL 4
REMARK VINA RESULT:      -5.0      2.468      6.382
REMARK  Name = ZINC95486115
REMARK  19 active torsions:
REMARK  status: ('A' for Active; 'I' for Inactive)
REMARK    1  A    between atoms: C1_1  and  C2_2
REMARK    2  A    between atoms: C3_3  and  C4_4
REMARK    3  A    between atoms: C3_3  and  C5_5
REMARK    4  A    between atoms: C5_5  and  C6_7
REMARK    5  A    between atoms: C6_7  and  C7_8
REMARK    6  A    between atoms: C8_10  and  O11_55
REMARK    7  A    between atoms: C13_19  and  O6_36
REMARK    8  A    between atoms: C14_21  and  C23_35
REMARK    9  A    between atoms: C18_28  and  C19_30
REMARK   10  A    between atoms: O6_36  and  C24_37
REMARK   11  A    between atoms: C24_37  and  C25_39
REMARK   12  A    between atoms: C26_40  and  C34_54
REMARK   13  A    between atoms: C27_42  and  C31_47
REMARK   14  A    between atoms: C28_44  and  C29_45
REMARK   15  A    between atoms: C28_44  and  C30_46
REMARK   16  A    between atoms: C31_47  and  C32_49
REMARK   17  A    between atoms: C31_47  and  O10_53
REMARK   18  A    between atoms: C32_49  and  O9_51
REMARK   19  A    between atoms: O9_51  and  C33_52
REMARK                            x       y       z     vdW  Elec       q    Type
REMARK                         _______ _______ _______ _____ _____    ______ ____
ROOT
ATOM      6  C   UNL     1      48.723  18.715  20.777  0.00  0.00    +0.015 C 
ATOM      7  C   UNL     1      49.346  17.517  21.246  0.00  0.00    +0.204 C 
ATOM     10  C   UNL     1      50.937  17.518  21.373  0.00  0.00    +0.109 C 
ATOM     11  C   UNL     1      51.794  17.156  20.209  0.00  0.00    +0.028 C 
ATOM     12  C   UNL     1      50.981  16.756  18.919  0.00  0.00    +0.089 C 
ATOM     13  C   UNL     1      50.486  17.846  18.067  0.00  0.00    -0.003 C 
ATOM     14  C   UNL     1      49.166  17.357  17.389  0.00  0.00    +0.028 C 
ATOM     15  C   UNL     1      50.278  19.256  18.596  0.00  0.00    -0.016 C 
ATOM     23  C   UNL     1      52.054  15.929  18.071  0.00  0.00    -0.001 C 
ATOM     24  C   UNL     1      52.457  14.698  18.773  0.00  0.00    +0.211 C 
ATOM     29  C   UNL     1      52.861  14.971  20.191  0.00  0.00    -0.061 C 
ATOM     30  C   UNL     1      51.800  14.341  21.158  0.00  0.00    +0.079 C 
ATOM     31  C   UNL     1      54.224  14.234  20.437  0.00  0.00    +0.260 C 
ATOM     37  O   UNL     1      54.757  14.542  21.747  0.00  0.00    -0.372 OA
ATOM     38  C   UNL     1      54.801  15.873  22.088  0.00  0.00    +0.485 C 
ATOM     39  O   UNL     1      55.846  16.336  22.505  0.00  0.00    -0.449 OA
ATOM     40  C   UNL     1      53.641  16.744  21.867  0.00  0.00    +0.092 C 
ATOM     41  C   UNL     1      53.098  16.435  20.473  0.00  0.00    +0.037 C 
ATOM     42  O   UNL     1      51.705  18.504  20.704  0.00  0.00    -0.272 OA
ATOM     43  C   UNL     1      49.332  19.680  19.708  0.00  0.00    -0.015 C 
ATOM     44  C   UNL     1      50.135  20.757  20.525  0.00  0.00    +0.018 C 
ATOM     45  C   UNL     1      48.249  20.478  19.135  0.00  0.00    +0.028 C 
ENDROOT
BRANCH  31  32
ATOM     32  C   UNL     1      54.036  12.743  20.309  0.00  0.00    -0.188 A 
ATOM     33  C   UNL     1      54.356  11.948  19.185  0.00  0.00    -0.046 A 
ATOM     34  C   UNL     1      54.031  10.681  19.499  0.00  0.00    +0.166 A 
ATOM     35  O   UNL     1      53.533  10.668  20.747  0.00  0.00    -0.173 OA
ATOM     36  C   UNL     1      53.539  11.915  21.245  0.00  0.00    +0.208 A 
ENDBRANCH  31  32
BRANCH   7   8
ATOM      8  O   UNL     1      48.885  16.341  20.618  0.00  0.00    -0.544 OA
ATOM      9  H   UNL     1      47.963  16.387  20.326  0.00  0.00    +0.368 HD
ENDBRANCH   7   8
BRANCH   6   5
ATOM      5  C   UNL     1      47.372  18.374  20.170  0.00  0.00    +0.036 C 
BRANCH   5   4
ATOM      4  C   UNL     1      46.324  18.361  21.252  0.00  0.00    +0.380 C 
ATOM     46  O   UNL     1      46.180  17.376  21.946  0.00  0.00    -0.460 OA
BRANCH   4   3
ATOM      1  C   UNL     1      45.112  21.828  22.290  0.00  0.00    +0.087 C 
ATOM      2  C   UNL     1      45.982  20.617  22.068  0.00  0.00    +0.066 C 
ATOM      3  C   UNL     1      45.480  19.536  21.468  0.00  0.00    -0.227 C 
ATOM     47  C   UNL     1      44.043  19.525  21.014  0.00  0.00    +0.092 C 
ENDBRANCH   4   3
ENDBRANCH   5   4
ENDBRANCH   6   5
BRANCH  15  16
ATOM     16  C   UNL     1      51.551  20.063  18.477  0.00  0.00    +0.270 C 
BRANCH  16  17
ATOM     17  O   UNL     1      52.666  19.177  18.358  0.00  0.00    -0.502 OA
ATOM     18  H   UNL     1      52.917  18.979  17.446  0.00  0.00    +0.370 HD
ENDBRANCH  16  17
BRANCH  16  19
ATOM     19  C   UNL     1      51.477  20.943  17.257  0.00  0.00    +0.424 C 
ATOM     22  O   UNL     1      50.703  21.870  17.226  0.00  0.00    -0.497 OA
BRANCH  19  20
ATOM     20  O   UNL     1      52.270  20.697  16.203  0.00  0.00    -0.352 OA
ATOM     21  C   UNL     1      51.834  19.697  15.280  0.00  0.00    +0.257 C 
ENDBRANCH  19  20
ENDBRANCH  16  19
ENDBRANCH  15  16
BRANCH  24  25
ATOM     25  O   UNL     1      51.379  13.767  18.768  0.00  0.00    -0.327 OA
BRANCH  25  26
ATOM     26  C   UNL     1      51.017  13.259  17.579  0.00  0.00    +0.457 C 
ATOM     27  C   UNL     1      49.619  13.480  17.061  0.00  0.00    +0.149 C 
ATOM     28  O   UNL     1      51.811  12.627  16.925  0.00  0.00    -0.507 OA
ENDBRANCH  25  26
ENDBRANCH  24  25
TORSDOF 11
ENDMDL
MODEL 5
REMARK VINA RESULT:      -4.6      2.143      8.237
REMARK  Name = ZINC95486115
REMARK  19 active torsions:
REMARK  status: ('A' for Active; 'I' for Inactive)
REMARK    1  A    between atoms: C1_1  and  C2_2
REMARK    2  A    between atoms: C3_3  and  C4_4
REMARK    3  A    between atoms: C3_3  and  C5_5
REMARK    4  A    between atoms: C5_5  and  C6_7
REMARK    5  A    between atoms: C6_7  and  C7_8
REMARK    6  A    between atoms: C8_10  and  O11_55
REMARK    7  A    between atoms: C13_19  and  O6_36
REMARK    8  A    between atoms: C14_21  and  C23_35
REMARK    9  A    between atoms: C18_28  and  C19_30
REMARK   10  A    between atoms: O6_36  and  C24_37
REMARK   11  A    between atoms: C24_37  and  C25_39
REMARK   12  A    between atoms: C26_40  and  C34_54
REMARK   13  A    between atoms: C27_42  and  C31_47
REMARK   14  A    between atoms: C28_44  and  C29_45
REMARK   15  A    between atoms: C28_44  and  C30_46
REMARK   16  A    between atoms: C31_47  and  C32_49
REMARK   17  A    between atoms: C31_47  and  O10_53
REMARK   18  A    between atoms: C32_49  and  O9_51
REMARK   19  A    between atoms: O9_51  and  C33_52
REMARK                            x       y       z     vdW  Elec       q    Type
REMARK                         _______ _______ _______ _____ _____    ______ ____
ROOT
ATOM      6  C   UNL     1      50.136  14.672  17.678  0.00  0.00    +0.015 C 
ATOM      7  C   UNL     1      48.955  15.477  17.622  0.00  0.00    +0.204 C 
ATOM     10  C   UNL     1      48.982  16.873  18.392  0.00  0.00    +0.109 C 
ATOM     11  C   UNL     1      48.613  16.955  19.833  0.00  0.00    +0.028 C 
ATOM     12  C   UNL     1      48.177  15.575  20.459  0.00  0.00    +0.089 C 
ATOM     13  C   UNL     1      49.245  14.669  20.904  0.00  0.00    -0.003 C 
ATOM     14  C   UNL     1      48.725  13.205  20.740  0.00  0.00    +0.028 C 
ATOM     15  C   UNL     1      50.661  14.755  20.358  0.00  0.00    -0.016 C 
ATOM     23  C   UNL     1      47.352  16.023  21.753  0.00  0.00    -0.001 C 
ATOM     24  C   UNL     1      46.139  16.772  21.381  0.00  0.00    +0.211 C 
ATOM     29  C   UNL     1      46.444  17.884  20.422  0.00  0.00    -0.061 C 
ATOM     30  C   UNL     1      45.815  17.545  19.026  0.00  0.00    +0.079 C 
ATOM     31  C   UNL     1      45.731  19.173  20.963  0.00  0.00    +0.260 C 
ATOM     37  O   UNL     1      46.070  20.333  20.165  0.00  0.00    -0.372 OA
ATOM     38  C   UNL     1      47.408  20.528  19.914  0.00  0.00    +0.485 C 
ATOM     39  O   UNL     1      47.893  21.620  20.145  0.00  0.00    -0.449 OA
ATOM     40  C   UNL     1      48.257  19.419  19.465  0.00  0.00    +0.092 C 
ATOM     41  C   UNL     1      47.916  18.205  20.327  0.00  0.00    +0.037 C 
ATOM     42  O   UNL     1      49.968  17.124  19.381  0.00  0.00    -0.272 OA
ATOM     43  C   UNL     1      51.091  14.569  18.912  0.00  0.00    -0.015 C 
ATOM     44  C   UNL     1      52.194  15.666  18.680  0.00  0.00    +0.018 C 
ATOM     45  C   UNL     1      51.862  13.333  18.799  0.00  0.00    +0.028 C 
ENDROOT
BRANCH  31  32
ATOM     32  C   UNL     1      44.236  18.979  20.956  0.00  0.00    -0.188 A 
ATOM     33  C   UNL     1      43.440  18.536  22.036  0.00  0.00    -0.046 A 
ATOM     34  C   UNL     1      42.169  18.509  21.598  0.00  0.00    +0.166 A 
ATOM     35  O   UNL     1      42.153  18.910  20.316  0.00  0.00    -0.173 OA
ATOM     36  C   UNL     1      43.403  19.201  19.923  0.00  0.00    +0.208 A 
ENDBRANCH  31  32
BRANCH   7   8
ATOM      8  O   UNL     1      47.762  14.772  17.883  0.00  0.00    -0.544 OA
ATOM      9  H   UNL     1      47.869  14.031  18.497  0.00  0.00    +0.368 HD
ENDBRANCH   7   8
BRANCH   6   5
ATOM      5  C   UNL     1      49.765  13.218  17.438  0.00  0.00    +0.036 C 
BRANCH   5   4
ATOM      4  C   UNL     1      49.818  12.923  15.961  0.00  0.00    +0.380 C 
ATOM     46  O   UNL     1      50.633  13.485  15.259  0.00  0.00    -0.460 OA
BRANCH   4   3
ATOM      1  C   UNL     1      46.617  11.095  14.973  0.00  0.00    +0.087 C 
ATOM      2  C   UNL     1      47.575  12.088  15.579  0.00  0.00    +0.066 C 
ATOM      3  C   UNL     1      48.887  11.960  15.373  0.00  0.00    -0.227 C 
ATOM     47  C   UNL     1      49.411  10.823  14.534  0.00  0.00    +0.092 C 
ENDBRANCH   4   3
ENDBRANCH   5   4
ENDBRANCH   6   5
BRANCH  15  16
ATOM     16  C   UNL     1      51.484  15.735  21.165  0.00  0.00    +0.270 C 
BRANCH  16  17
ATOM     17  O   UNL     1      50.645  16.390  22.118  0.00  0.00    -0.502 OA
ATOM     18  H   UNL     1      50.162  15.786  22.698  0.00  0.00    +0.370 HD
ENDBRANCH  16  17
BRANCH  16  19
ATOM     19  C   UNL     1      52.581  14.996  21.885  0.00  0.00    +0.424 C 
ATOM     22  O   UNL     1      52.354  13.926  22.398  0.00  0.00    -0.497 OA
BRANCH  19  20
ATOM     20  O   UNL     1      53.812  15.527  21.960  0.00  0.00    -0.352 OA
ATOM     21  C   UNL     1      53.921  16.941  21.787  0.00  0.00    +0.257 C 
ENDBRANCH  19  20
ENDBRANCH  16  19
ENDBRANCH  15  16
BRANCH  24  25
ATOM     25  O   UNL     1      45.192  15.891  20.784  0.00  0.00    -0.327 OA
BRANCH  25  26
ATOM     26  C   UNL     1      44.737  14.882  21.544  0.00  0.00    +0.457 C 
ATOM     27  C   UNL     1      45.090  13.459  21.195  0.00  0.00    +0.149 C 
ATOM     28  O   UNL     1      44.044  15.115  22.505  0.00  0.00    -0.507 OA
ENDBRANCH  25  26
ENDBRANCH  24  25
TORSDOF 11
ENDMDL
MODEL 6
REMARK VINA RESULT:      -4.5      2.384      5.201
REMARK  Name = ZINC95486115
REMARK  19 active torsions:
REMARK  status: ('A' for Active; 'I' for Inactive)
REMARK    1  A    between atoms: C1_1  and  C2_2
REMARK    2  A    between atoms: C3_3  and  C4_4
REMARK    3  A    between atoms: C3_3  and  C5_5
REMARK    4  A    between atoms: C5_5  and  C6_7
REMARK    5  A    between atoms: C6_7  and  C7_8
REMARK    6  A    between atoms: C8_10  and  O11_55
REMARK    7  A    between atoms: C13_19  and  O6_36
REMARK    8  A    between atoms: C14_21  and  C23_35
REMARK    9  A    between atoms: C18_28  and  C19_30
REMARK   10  A    between atoms: O6_36  and  C24_37
REMARK   11  A    between atoms: C24_37  and  C25_39
REMARK   12  A    between atoms: C26_40  and  C34_54
REMARK   13  A    between atoms: C27_42  and  C31_47
REMARK   14  A    between atoms: C28_44  and  C29_45
REMARK   15  A    between atoms: C28_44  and  C30_46
REMARK   16  A    between atoms: C31_47  and  C32_49
REMARK   17  A    between atoms: C31_47  and  O10_53
REMARK   18  A    between atoms: C32_49  and  O9_51
REMARK   19  A    between atoms: O9_51  and  C33_52
REMARK                            x       y       z     vdW  Elec       q    Type
REMARK                         _______ _______ _______ _____ _____    ______ ____
ROOT
ATOM      6  C   UNL     1      47.884  18.303  19.774  0.00  0.00    +0.015 C 
ATOM      7  C   UNL     1      47.854  16.920  19.412  0.00  0.00    +0.204 C 
ATOM     10  C   UNL     1      48.881  15.946  20.146  0.00  0.00    +0.109 C 
ATOM     11  C   UNL     1      50.259  15.750  19.613  0.00  0.00    +0.028 C 
ATOM     12  C   UNL     1      50.547  16.548  18.284  0.00  0.00    +0.089 C 
ATOM     13  C   UNL     1      50.923  17.962  18.413  0.00  0.00    -0.003 C 
ATOM     14  C   UNL     1      50.416  18.709  17.138  0.00  0.00    +0.028 C 
ATOM     15  C   UNL     1      50.571  18.786  19.642  0.00  0.00    -0.016 C 
ATOM     23  C   UNL     1      51.800  15.768  17.671  0.00  0.00    -0.001 C 
ATOM     24  C   UNL     1      51.448  14.382  17.318  0.00  0.00    +0.211 C 
ATOM     29  C   UNL     1      50.767  13.674  18.452  0.00  0.00    -0.061 C 
ATOM     30  C   UNL     1      49.270  13.412  18.070  0.00  0.00    +0.079 C 
ATOM     31  C   UNL     1      51.466  12.279  18.616  0.00  0.00    +0.260 C 
ATOM     37  O   UNL     1      50.957  11.571  19.772  0.00  0.00    -0.372 OA
ATOM     38  C   UNL     1      50.903  12.282  20.946  0.00  0.00    +0.485 C 
ATOM     39  O   UNL     1      51.399  11.798  21.947  0.00  0.00    -0.449 OA
ATOM     40  C   UNL     1      50.345  13.639  20.978  0.00  0.00    +0.092 C 
ATOM     41  C   UNL     1      50.906  14.391  19.773  0.00  0.00    +0.037 C 
ATOM     42  O   UNL     1      50.006  16.478  20.827  0.00  0.00    -0.272 OA
ATOM     43  C   UNL     1      49.174  19.098  20.157  0.00  0.00    -0.015 C 
ATOM     44  C   UNL     1      49.291  18.980  21.720  0.00  0.00    +0.018 C 
ATOM     45  C   UNL     1      48.909  20.525  19.977  0.00  0.00    +0.028 C 
ENDROOT
BRANCH  31  32
ATOM     32  C   UNL     1      51.251  11.444  17.380  0.00  0.00    -0.188 A 
ATOM     33  C   UNL     1      50.011  10.977  16.886  0.00  0.00    -0.046 A 
ATOM     34  C   UNL     1      50.276  10.277  15.769  0.00  0.00    +0.166 A 
ATOM     35  O   UNL     1      51.604  10.295  15.562  0.00  0.00    -0.173 OA
ATOM     36  C   UNL     1      52.198  11.006  16.533  0.00  0.00    +0.208 A 
ENDBRANCH  31  32
BRANCH   7   8
ATOM      8  O   UNL     1      47.833  16.687  18.021  0.00  0.00    -0.544 OA
ATOM      9  H   UNL     1      46.943  16.635  17.644  0.00  0.00    +0.368 HD
ENDBRANCH   7   8
BRANCH   6   5
ATOM      5  C   UNL     1      47.321  19.133  18.632  0.00  0.00    +0.036 C 
BRANCH   5   4
ATOM      4  C   UNL     1      45.828  19.260  18.791  0.00  0.00    +0.380 C 
ATOM     46  O   UNL     1      45.093  18.429  18.298  0.00  0.00    -0.460 OA
BRANCH   4   3
ATOM      1  C   UNL     1      44.824  22.785  19.854  0.00  0.00    +0.087 C 
ATOM      2  C   UNL     1      45.405  21.628  19.083  0.00  0.00    +0.066 C 
ATOM      3  C   UNL     1      45.265  20.382  19.540  0.00  0.00    -0.227 C 
ATOM     47  C   UNL     1      44.525  20.132  20.829  0.00  0.00    +0.092 C 
ENDBRANCH   4   3
ENDBRANCH   5   4
ENDBRANCH   6   5
BRANCH  15  16
ATOM     16  C   UNL     1      51.643  18.650  20.700  0.00  0.00    +0.270 C 
BRANCH  16  17
ATOM     17  O   UNL     1      52.647  17.740  20.246  0.00  0.00    -0.502 OA
ATOM     18  H   UNL     1      52.358  17.163  19.527  0.00  0.00    +0.370 HD
ENDBRANCH  16  17
BRANCH  16  19
ATOM     19  C   UNL     1      52.266  19.996  20.960  0.00  0.00    +0.424 C 
ATOM     22  O   UNL     1      52.751  20.240  22.040  0.00  0.00    -0.497 OA
BRANCH  19  20
ATOM     20  O   UNL     1      52.282  20.926  19.993  0.00  0.00    -0.352 OA
ATOM     21  C   UNL     1      52.943  22.159  20.287  0.00  0.00    +0.257 C 
ENDBRANCH  19  20
ENDBRANCH  16  19
ENDBRANCH  15  16
BRANCH  24  25
ATOM     25  O   UNL     1      50.585  14.378  16.185  0.00  0.00    -0.327 OA
BRANCH  25  26
ATOM     26  C   UNL     1      51.124  14.018  15.010  0.00  0.00    +0.457 C 
ATOM     27  C   UNL     1      50.300  13.253  14.006  0.00  0.00    +0.149 C 
ATOM     28  O   UNL     1      52.269  14.306  14.757  0.00  0.00    -0.507 OA
ENDBRANCH  25  26
ENDBRANCH  24  25
TORSDOF 11
ENDMDL
MODEL 7
REMARK VINA RESULT:      -4.3      1.714      2.578
REMARK  Name = ZINC95486115
REMARK  19 active torsions:
REMARK  status: ('A' for Active; 'I' for Inactive)
REMARK    1  A    between atoms: C1_1  and  C2_2
REMARK    2  A    between atoms: C3_3  and  C4_4
REMARK    3  A    between atoms: C3_3  and  C5_5
REMARK    4  A    between atoms: C5_5  and  C6_7
REMARK    5  A    between atoms: C6_7  and  C7_8
REMARK    6  A    between atoms: C8_10  and  O11_55
REMARK    7  A    between atoms: C13_19  and  O6_36
REMARK    8  A    between atoms: C14_21  and  C23_35
REMARK    9  A    between atoms: C18_28  and  C19_30
REMARK   10  A    between atoms: O6_36  and  C24_37
REMARK   11  A    between atoms: C24_37  and  C25_39
REMARK   12  A    between atoms: C26_40  and  C34_54
REMARK   13  A    between atoms: C27_42  and  C31_47
REMARK   14  A    between atoms: C28_44  and  C29_45
REMARK   15  A    between atoms: C28_44  and  C30_46
REMARK   16  A    between atoms: C31_47  and  C32_49
REMARK   17  A    between atoms: C31_47  and  O10_53
REMARK   18  A    between atoms: C32_49  and  O9_51
REMARK   19  A    between atoms: O9_51  and  C33_52
REMARK                            x       y       z     vdW  Elec       q    Type
REMARK                         _______ _______ _______ _____ _____    ______ ____
ROOT
ATOM      6  C   UNL     1      48.890  18.037  18.490  0.00  0.00    +0.015 C 
ATOM      7  C   UNL     1      50.101  17.315  18.252  0.00  0.00    +0.204 C 
ATOM     10  C   UNL     1      49.975  15.865  17.599  0.00  0.00    +0.109 C 
ATOM     11  C   UNL     1      49.773  14.661  18.452  0.00  0.00    +0.028 C 
ATOM     12  C   UNL     1      49.742  14.973  19.998  0.00  0.00    +0.089 C 
ATOM     13  C   UNL     1      48.472  15.444  20.565  0.00  0.00    -0.003 C 
ATOM     14  C   UNL     1      48.808  16.379  21.771  0.00  0.00    +0.028 C 
ATOM     15  C   UNL     1      47.397  16.102  19.714  0.00  0.00    -0.016 C 
ATOM     23  C   UNL     1      50.064  13.549  20.648  0.00  0.00    -0.001 C 
ATOM     24  C   UNL     1      51.417  13.090  20.290  0.00  0.00    +0.211 C 
ATOM     29  C   UNL     1      51.659  13.167  18.812  0.00  0.00    -0.061 C 
ATOM     30  C   UNL     1      52.720  14.285  18.523  0.00  0.00    +0.079 C 
ATOM     31  C   UNL     1      52.281  11.797  18.370  0.00  0.00    +0.260 C 
ATOM     37  O   UNL     1      52.435  11.731  16.932  0.00  0.00    -0.372 OA
ATOM     38  C   UNL     1      51.336  12.084  16.186  0.00  0.00    +0.485 C 
ATOM     39  O   UNL     1      50.955  11.327  15.312  0.00  0.00    -0.449 OA
ATOM     40  C   UNL     1      50.578  13.302  16.494  0.00  0.00    +0.092 C 
ATOM     41  C   UNL     1      50.394  13.353  18.009  0.00  0.00    +0.037 C 
ATOM     42  O   UNL     1      48.731  15.183  17.610  0.00  0.00    -0.272 OA
ATOM     43  C   UNL     1      47.532  17.389  18.915  0.00  0.00    -0.015 C 
ATOM     44  C   UNL     1      46.764  17.107  17.573  0.00  0.00    +0.018 C 
ATOM     45  C   UNL     1      46.700  18.421  19.532  0.00  0.00    +0.028 C 
ENDROOT
BRANCH  31  32
ATOM     32  C   UNL     1      53.623  11.602  19.028  0.00  0.00    -0.188 A 
ATOM     33  C   UNL     1      54.740  12.463  18.933  0.00  0.00    -0.046 A 
ATOM     34  C   UNL     1      55.720  11.913  19.672  0.00  0.00    +0.166 A 
ATOM     35  O   UNL     1      55.258  10.770  20.206  0.00  0.00    -0.173 OA
ATOM     36  C   UNL     1      53.986  10.579  19.823  0.00  0.00    +0.208 A 
ENDBRANCH  31  32
BRANCH   7   8
ATOM      8  O   UNL     1      50.994  17.309  19.343  0.00  0.00    -0.544 OA
ATOM      9  H   UNL     1      51.704  16.655  19.267  0.00  0.00    +0.368 HD
ENDBRANCH   7   8
BRANCH   6   5
ATOM      5  C   UNL     1      49.121  19.054  19.595  0.00  0.00    +0.036 C 
BRANCH   5   4
ATOM      4  C   UNL     1      49.375  20.409  18.986  0.00  0.00    +0.380 C 
ATOM     46  O   UNL     1      48.444  21.091  18.612  0.00  0.00    -0.460 OA
BRANCH   4   3
ATOM      1  C   UNL     1      52.849  21.774  19.781  0.00  0.00    +0.087 C 
ATOM      2  C   UNL     1      51.438  21.265  19.926  0.00  0.00    +0.066 C 
ATOM      3  C   UNL     1      50.745  20.902  18.846  0.00  0.00    -0.227 C 
ATOM     47  C   UNL     1      51.373  21.001  17.479  0.00  0.00    +0.092 C 
ENDBRANCH   4   3
ENDBRANCH   5   4
ENDBRANCH   6   5
BRANCH  15  16
ATOM     16  C   UNL     1      46.472  15.061  19.125  0.00  0.00    +0.270 C 
BRANCH  16  17
ATOM     17  O   UNL     1      47.183  13.832  18.959  0.00  0.00    -0.502 OA
ATOM     18  H   UNL     1      47.127  13.462  18.068  0.00  0.00    +0.370 HD
ENDBRANCH  16  17
BRANCH  16  19
ATOM     19  C   UNL     1      45.305  14.845  20.051  0.00  0.00    +0.424 C 
ATOM     22  O   UNL     1      44.628  15.783  20.400  0.00  0.00    -0.497 OA
BRANCH  19  20
ATOM     20  O   UNL     1      45.016  13.610  20.491  0.00  0.00    -0.352 OA
ATOM     21  C   UNL     1      45.306  13.323  21.861  0.00  0.00    +0.257 C 
ENDBRANCH  19  20
ENDBRANCH  16  19
ENDBRANCH  15  16
BRANCH  24  25
ATOM     25  O   UNL     1      52.389  13.887  20.962  0.00  0.00    -0.327 OA
BRANCH  25  26
ATOM     26  C   UNL     1      53.052  13.312  21.978  0.00  0.00    +0.457 C 
ATOM     27  C   UNL     1      54.314  13.943  22.505  0.00  0.00    +0.149 C 
ATOM     28  O   UNL     1      52.636  12.290  22.468  0.00  0.00    -0.507 OA
ENDBRANCH  25  26
ENDBRANCH  24  25
TORSDOF 11
ENDMDL
MODEL 8
REMARK VINA RESULT:      -3.6      2.072      3.613
REMARK  Name = ZINC95486115
REMARK  19 active torsions:
REMARK  status: ('A' for Active; 'I' for Inactive)
REMARK    1  A    between atoms: C1_1  and  C2_2
REMARK    2  A    between atoms: C3_3  and  C4_4
REMARK    3  A    between atoms: C3_3  and  C5_5
REMARK    4  A    between atoms: C5_5  and  C6_7
REMARK    5  A    between atoms: C6_7  and  C7_8
REMARK    6  A    between atoms: C8_10  and  O11_55
REMARK    7  A    between atoms: C13_19  and  O6_36
REMARK    8  A    between atoms: C14_21  and  C23_35
REMARK    9  A    between atoms: C18_28  and  C19_30
REMARK   10  A    between atoms: O6_36  and  C24_37
REMARK   11  A    between atoms: C24_37  and  C25_39
REMARK   12  A    between atoms: C26_40  and  C34_54
REMARK   13  A    between atoms: C27_42  and  C31_47
REMARK   14  A    between atoms: C28_44  and  C29_45
REMARK   15  A    between atoms: C28_44  and  C30_46
REMARK   16  A    between atoms: C31_47  and  C32_49
REMARK   17  A    between atoms: C31_47  and  O10_53
REMARK   18  A    between atoms: C32_49  and  O9_51
REMARK   19  A    between atoms: O9_51  and  C33_52
REMARK                            x       y       z     vdW  Elec       q    Type
REMARK                         _______ _______ _______ _____ _____    ______ ____
ROOT
ATOM      6  C   UNL     1      48.237  16.507  17.995  0.00  0.00    +0.015 C 
ATOM      7  C   UNL     1      49.607  16.100  18.019  0.00  0.00    +0.204 C 
ATOM     10  C   UNL     1      49.996  14.785  17.205  0.00  0.00    +0.109 C 
ATOM     11  C   UNL     1      49.892  13.440  17.837  0.00  0.00    +0.028 C 
ATOM     12  C   UNL     1      49.416  13.477  19.339  0.00  0.00    +0.089 C 
ATOM     13  C   UNL     1      47.971  13.576  19.587  0.00  0.00    -0.003 C 
ATOM     14  C   UNL     1      47.771  14.345  20.932  0.00  0.00    +0.028 C 
ATOM     15  C   UNL     1      47.007  14.131  18.551  0.00  0.00    -0.016 C 
ATOM     23  C   UNL     1      49.906  12.061  19.897  0.00  0.00    -0.001 C 
ATOM     24  C   UNL     1      51.376  11.956  19.873  0.00  0.00    +0.211 C 
ATOM     29  C   UNL     1      51.939  12.327  18.534  0.00  0.00    -0.061 C 
ATOM     30  C   UNL     1      52.736  13.671  18.666  0.00  0.00    +0.079 C 
ATOM     31  C   UNL     1      52.962  11.207  18.134  0.00  0.00    +0.260 C 
ATOM     37  O   UNL     1      53.469  11.415  16.794  0.00  0.00    -0.372 OA
ATOM     38  C   UNL     1      52.530  11.653  15.819  0.00  0.00    +0.485 C 
ATOM     39  O   UNL     1      52.564  10.990  14.798  0.00  0.00    -0.449 OA
ATOM     40  C   UNL     1      51.449  12.621  16.037  0.00  0.00    +0.092 C 
ATOM     41  C   UNL     1      50.899  12.380  17.442  0.00  0.00    +0.037 C 
ATOM     42  O   UNL     1      48.989  13.870  16.804  0.00  0.00    -0.272 OA
ATOM     43  C   UNL     1      47.014  15.533  17.962  0.00  0.00    -0.015 C 
ATOM     44  C   UNL     1      46.683  15.327  16.439  0.00  0.00    +0.018 C 
ATOM     45  C   UNL     1      45.834  16.255  18.436  0.00  0.00    +0.028 C 
ENDROOT
BRANCH  31  32
ATOM     32  C   UNL     1      54.113  11.184  19.108  0.00  0.00    -0.188 A 
ATOM     33  C   UNL     1      55.171  12.119  19.181  0.00  0.00    -0.046 A 
ATOM     34  C   UNL     1      55.971  11.723  20.187  0.00  0.00    +0.166 A 
ATOM     35  O   UNL     1      55.455  10.605  20.724  0.00  0.00    -0.173 OA
ATOM     36  C   UNL     1      54.326  10.277  20.077  0.00  0.00    +0.208 A 
ENDBRANCH  31  32
BRANCH   7   8
ATOM      8  O   UNL     1      50.186  16.095  19.305  0.00  0.00    -0.544 OA
ATOM      9  H   UNL     1      50.168  15.232  19.742  0.00  0.00    +0.368 HD
ENDBRANCH   7   8
BRANCH   6   5
ATOM      5  C   UNL     1      47.942  17.352  19.224  0.00  0.00    +0.036 C 
BRANCH   5   4
ATOM      4  C   UNL     1      48.098  18.811  18.880  0.00  0.00    +0.380 C 
ATOM     46  O   UNL     1      47.229  19.384  18.255  0.00  0.00    -0.460 OA
BRANCH   4   3
ATOM      1  C   UNL     1      51.153  21.097  18.874  0.00  0.00    +0.087 C 
ATOM      2  C   UNL     1      49.919  20.348  18.442  0.00  0.00    +0.066 C 
ATOM      3  C   UNL     1      49.296  19.537  19.299  0.00  0.00    -0.227 C 
ATOM     47  C   UNL     1      49.827  19.369  20.699  0.00  0.00    +0.092 C 
ENDBRANCH   4   3
ENDBRANCH   5   4
ENDBRANCH   6   5
BRANCH  15  16
ATOM     16  C   UNL     1      46.531  13.035  17.624  0.00  0.00    +0.270 C 
BRANCH  16  17
ATOM     17  O   UNL     1      47.326  11.864  17.825  0.00  0.00    -0.502 OA
ATOM     18  H   UNL     1      46.811  11.057  17.958  0.00  0.00    +0.370 HD
ENDBRANCH  16  17
BRANCH  16  19
ATOM     19  C   UNL     1      45.088  12.719  17.919  0.00  0.00    +0.424 C 
ATOM     22  O   UNL     1      44.636  12.930  19.019  0.00  0.00    -0.497 OA
BRANCH  19  20
ATOM     20  O   UNL     1      44.304  12.203  16.960  0.00  0.00    -0.352 OA
ATOM     21  C   UNL     1      44.927  11.337  16.008  0.00  0.00    +0.257 C 
ENDBRANCH  19  20
ENDBRANCH  16  19
ENDBRANCH  15  16
BRANCH  24  25
ATOM     25  O   UNL     1      51.935  12.812  20.865  0.00  0.00    -0.327 OA
BRANCH  25  26
ATOM     26  C   UNL     1      51.191  13.047  21.958  0.00  0.00    +0.457 C 
ATOM     27  C   UNL     1      50.295  11.965  22.504  0.00  0.00    +0.149 C 
ATOM     28  O   UNL     1      51.239  14.123  22.502  0.00  0.00    -0.507 OA
ENDBRANCH  25  26
ENDBRANCH  24  25
TORSDOF 11
ENDMDL
MODEL 9
REMARK VINA RESULT:      -3.5      2.136      6.057
REMARK  Name = ZINC95486115
REMARK  19 active torsions:
REMARK  status: ('A' for Active; 'I' for Inactive)
REMARK    1  A    between atoms: C1_1  and  C2_2
REMARK    2  A    between atoms: C3_3  and  C4_4
REMARK    3  A    between atoms: C3_3  and  C5_5
REMARK    4  A    between atoms: C5_5  and  C6_7
REMARK    5  A    between atoms: C6_7  and  C7_8
REMARK    6  A    between atoms: C8_10  and  O11_55
REMARK    7  A    between atoms: C13_19  and  O6_36
REMARK    8  A    between atoms: C14_21  and  C23_35
REMARK    9  A    between atoms: C18_28  and  C19_30
REMARK   10  A    between atoms: O6_36  and  C24_37
REMARK   11  A    between atoms: C24_37  and  C25_39
REMARK   12  A    between atoms: C26_40  and  C34_54
REMARK   13  A    between atoms: C27_42  and  C31_47
REMARK   14  A    between atoms: C28_44  and  C29_45
REMARK   15  A    between atoms: C28_44  and  C30_46
REMARK   16  A    between atoms: C31_47  and  C32_49
REMARK   17  A    between atoms: C31_47  and  O10_53
REMARK   18  A    between atoms: C32_49  and  O9_51
REMARK   19  A    between atoms: O9_51  and  C33_52
REMARK                            x       y       z     vdW  Elec       q    Type
REMARK                         _______ _______ _______ _____ _____    ______ ____
ROOT
ATOM      6  C   UNL     1      47.011  18.825  21.082  0.00  0.00    +0.015 C 
ATOM      7  C   UNL     1      47.292  17.429  21.214  0.00  0.00    +0.204 C 
ATOM     10  C   UNL     1      48.814  17.005  21.439  0.00  0.00    +0.109 C 
ATOM     11  C   UNL     1      49.719  16.776  20.278  0.00  0.00    +0.028 C 
ATOM     12  C   UNL     1      49.018  16.954  18.878  0.00  0.00    +0.089 C 
ATOM     13  C   UNL     1      48.888  18.322  18.357  0.00  0.00    -0.003 C 
ATOM     14  C   UNL     1      47.597  18.376  17.480  0.00  0.00    +0.028 C 
ATOM     15  C   UNL     1      48.922  19.541  19.265  0.00  0.00    -0.016 C 
ATOM     23  C   UNL     1      49.991  16.153  17.895  0.00  0.00    -0.001 C 
ATOM     24  C   UNL     1      50.021  14.717  18.224  0.00  0.00    +0.211 C 
ATOM     29  C   UNL     1      50.282  14.486  19.683  0.00  0.00    -0.061 C 
ATOM     30  C   UNL     1      48.990  13.896  20.349  0.00  0.00    +0.079 C 
ATOM     31  C   UNL     1      51.408  13.399  19.787  0.00  0.00    +0.260 C 
ATOM     37  O   UNL     1      51.816  13.197  21.162  0.00  0.00    -0.372 OA
ATOM     38  C   UNL     1      52.100  14.332  21.884  0.00  0.00    +0.485 C 
ATOM     39  O   UNL     1      53.156  14.392  22.486  0.00  0.00    -0.449 OA
ATOM     40  C   UNL     1      51.197  15.487  21.856  0.00  0.00    +0.092 C 
ATOM     41  C   UNL     1      50.790  15.712  20.401  0.00  0.00    +0.037 C 
ATOM     42  O   UNL     1      49.859  17.916  21.143  0.00  0.00    -0.272 OA
ATOM     43  C   UNL     1      47.950  19.864  20.389  0.00  0.00    -0.015 C 
ATOM     44  C   UNL     1      48.852  20.446  21.538  0.00  0.00    +0.018 C 
ATOM     45  C   UNL     1      47.152  21.029  20.009  0.00  0.00    +0.028 C 
ENDROOT
BRANCH  31  32
ATOM     32  C   UNL     1      50.921  12.093  19.212  0.00  0.00    -0.188 A 
ATOM     33  C   UNL     1      49.766  11.379  19.605  0.00  0.00    -0.046 A 
ATOM     34  C   UNL     1      49.709  10.277  18.836  0.00  0.00    +0.166 A 
ATOM     35  O   UNL     1      50.763  10.286  18.003  0.00  0.00    -0.173 OA
ATOM     36  C   UNL     1      51.498  11.387  18.223  0.00  0.00    +0.208 A 
ENDBRANCH  31  32
BRANCH   7   8
ATOM      8  O   UNL     1      46.675  16.620  20.238  0.00  0.00    -0.544 OA
ATOM      9  H   UNL     1      47.113  15.769  20.098  0.00  0.00    +0.368 HD
ENDBRANCH   7   8
BRANCH   6   5
ATOM      5  C   UNL     1      45.711  19.005  20.315  0.00  0.00    +0.036 C 
BRANCH   5   4
ATOM      4  C   UNL     1      44.547  18.891  21.265  0.00  0.00    +0.380 C 
ATOM     46  O   UNL     1      44.741  18.622  22.433  0.00  0.00    -0.460 OA
BRANCH   4   3
ATOM      1  C   UNL     1      41.572  19.728  19.027  0.00  0.00    +0.087 C 
ATOM      2  C   UNL     1      42.977  19.506  19.526  0.00  0.00    +0.066 C 
ATOM      3  C   UNL     1      43.184  19.106  20.781  0.00  0.00    -0.227 C 
ATOM     47  C   UNL     1      42.013  18.877  21.702  0.00  0.00    +0.092 C 
ENDBRANCH   4   3
ENDBRANCH   5   4
ENDBRANCH   6   5
BRANCH  15  16
ATOM     16  C   UNL     1      50.344  20.011  19.473  0.00  0.00    +0.270 C 
BRANCH  16  17
ATOM     17  O   UNL     1      51.172  18.893  19.801  0.00  0.00    -0.502 OA
ATOM     18  H   UNL     1      51.884  19.099  20.421  0.00  0.00    +0.370 HD
ENDBRANCH  16  17
BRANCH  16  19
ATOM     19  C   UNL     1      50.850  20.658  18.210  0.00  0.00    +0.424 C 
ATOM     22  O   UNL     1      50.234  21.569  17.709  0.00  0.00    -0.497 OA
BRANCH  19  20
ATOM     20  O   UNL     1      51.984  20.222  17.641  0.00  0.00    -0.352 OA
ATOM     21  C   UNL     1      51.970  20.035  16.224  0.00  0.00    +0.257 C 
ENDBRANCH  19  20
ENDBRANCH  16  19
ENDBRANCH  15  16
BRANCH  24  25
ATOM     25  O   UNL     1      48.777  14.117  17.874  0.00  0.00    -0.327 OA
BRANCH  25  26
ATOM     26  C   UNL     1      48.646  13.678  16.612  0.00  0.00    +0.457 C 
ATOM     27  C   UNL     1      47.337  13.851  15.887  0.00  0.00    +0.149 C 
ATOM     28  O   UNL     1      49.578  13.145  16.059  0.00  0.00    -0.507 OA
ENDBRANCH  25  26
ENDBRANCH  24  25
TORSDOF 11
ENDMDL
