MODEL 1
REMARK VINA RESULT:      -6.5      0.000      0.000
REMARK  Name = ZINC13480348
REMARK  15 active torsions:
REMARK  status: ('A' for Active; 'I' for Inactive)
REMARK    1  A    between atoms: C1_1  and  C2_2
REMARK    2  A    between atoms: C2_2  and  C27_33
REMARK    3  A    between atoms: C3_3  and  C4_4
REMARK    4  A    between atoms: C4_4  and  C5_5
REMARK    5  A    between atoms: C5_5  and  C6_6
REMARK    6  A    between atoms: C6_6  and  C26_32
REMARK    7  A    between atoms: C7_7  and  C8_8
REMARK    8  A    between atoms: C8_8  and  O1_9
REMARK    9  A    between atoms: O1_9  and  C9_10
REMARK   10  A    between atoms: C15_16  and  O3_21
REMARK   11  A    between atoms: C17_18  and  O2_20
REMARK   12  A    between atoms: C21_25  and  C23_27
REMARK   13  A    between atoms: C21_25  and  O5_28
REMARK   14  A    between atoms: O5_28  and  C24_29
REMARK   15  A    between atoms: C24_29  and  C25_31
REMARK                            x       y       z     vdW  Elec       q    Type
REMARK                         _______ _______ _______ _____ _____    ______ ____
ROOT
ATOM     12  C   UNL     1      47.606  15.170  17.237  0.00  0.00    +0.173 A 
ATOM     13  C   UNL     1      47.344  16.523  17.174  0.00  0.00    -0.033 A 
ATOM     14  C   UNL     1      46.457  17.106  18.088  0.00  0.00    +0.046 A 
ATOM     15  C   UNL     1      46.176  18.486  18.042  0.00  0.00    -0.002 A 
ATOM     16  C   UNL     1      45.317  19.050  18.931  0.00  0.00    -0.003 A 
ATOM     17  C   UNL     1      44.690  18.254  19.911  0.00  0.00    -0.215 A 
ATOM     18  C   UNL     1      43.756  18.862  20.866  0.00  0.00    +0.402 C 
ATOM     19  C   UNL     1      43.704  20.374  20.935  0.00  0.00    +0.040 C 
ATOM     20  C   UNL     1      43.731  20.901  19.495  0.00  0.00    +0.133 C 
ATOM     25  C   UNL     1      43.573  22.423  19.505  0.00  0.00    +0.054 C 
ATOM     26  O   UNL     1      43.045  18.177  21.573  0.00  0.00    -0.439 OA
ATOM     27  C   UNL     1      44.946  16.881  19.987  0.00  0.00    +0.223 A 
ATOM     30  C   UNL     1      45.062  20.532  18.846  0.00  0.00    +0.137 C 
ATOM     31  C   UNL     1      45.837  16.293  19.071  0.00  0.00    -0.157 A 
ATOM     32  C   UNL     1      46.121  14.914  19.115  0.00  0.00    +0.190 A 
ATOM     35  C   UNL     1      46.997  14.368  18.204  0.00  0.00    -0.097 A 
ENDROOT
BRANCH  27  28
ATOM     28  O   UNL     1      44.341  16.124  20.932  0.00  0.00    -0.471 OA
ATOM     29  H   UNL     1      44.866  16.004  21.734  0.00  0.00    +0.405 HD
ENDBRANCH  27  28
BRANCH  32  33
ATOM     33  O   UNL     1      45.534  14.127  20.052  0.00  0.00    -0.484 OA
ATOM     34  H   UNL     1      45.014  13.399  19.685  0.00  0.00    +0.402 HD
ENDBRANCH  32  33
BRANCH  12  11
ATOM     11  O   UNL     1      48.467  14.611  16.348  0.00  0.00    -0.303 OA
BRANCH  11  10
ATOM     10  C   UNL     1      49.770  14.275  16.829  0.00  0.00    +0.232 C 
BRANCH  10   9
ATOM      7  C   UNL     1      51.043  15.974  18.033  0.00  0.00    -0.096 C 
ATOM      8  C   UNL     1      50.574  15.335  19.315  0.00  0.00    +0.078 C 
ATOM      9  C   UNL     1      50.622  15.516  16.880  0.00  0.00    -0.052 C 
BRANCH   7   6
ATOM      6  C   UNL     1      51.997  17.140  18.078  0.00  0.00    +0.067 C 
BRANCH   6   5
ATOM      5  C   UNL     1      51.356  18.350  17.398  0.00  0.00    +0.056 C 
BRANCH   5   4
ATOM      1  C   UNL     1      51.089  21.142  17.696  0.00  0.00    +0.072 C 
ATOM      2  C   UNL     1      50.119  20.214  18.379  0.00  0.00    -0.130 C 
ATOM      3  C   UNL     1      48.963  20.776  19.165  0.00  0.00    +0.072 C 
ATOM      4  C   UNL     1      50.280  18.916  18.290  0.00  0.00    -0.062 C 
ENDBRANCH   5   4
ENDBRANCH   6   5
ENDBRANCH   7   6
ENDBRANCH  10   9
ENDBRANCH  11  10
ENDBRANCH  12  11
BRANCH  20  21
ATOM     21  O   UNL     1      42.642  20.306  18.741  0.00  0.00    -0.346 OA
BRANCH  21  22
ATOM     22  C   UNL     1      41.397  20.697  19.056  0.00  0.00    +0.459 C 
ATOM     23  C   UNL     1      40.793  21.901  18.380  0.00  0.00    +0.152 C 
ATOM     24  O   UNL     1      40.761  20.085  19.880  0.00  0.00    -0.504 OA
ENDBRANCH  21  22
ENDBRANCH  20  21
TORSDOF 10
ENDMDL
MODEL 2
REMARK VINA RESULT:      -6.4      2.680      4.015
REMARK  Name = ZINC13480348
REMARK  15 active torsions:
REMARK  status: ('A' for Active; 'I' for Inactive)
REMARK    1  A    between atoms: C1_1  and  C2_2
REMARK    2  A    between atoms: C2_2  and  C27_33
REMARK    3  A    between atoms: C3_3  and  C4_4
REMARK    4  A    between atoms: C4_4  and  C5_5
REMARK    5  A    between atoms: C5_5  and  C6_6
REMARK    6  A    between atoms: C6_6  and  C26_32
REMARK    7  A    between atoms: C7_7  and  C8_8
REMARK    8  A    between atoms: C8_8  and  O1_9
REMARK    9  A    between atoms: O1_9  and  C9_10
REMARK   10  A    between atoms: C15_16  and  O3_21
REMARK   11  A    between atoms: C17_18  and  O2_20
REMARK   12  A    between atoms: C21_25  and  C23_27
REMARK   13  A    between atoms: C21_25  and  O5_28
REMARK   14  A    between atoms: O5_28  and  C24_29
REMARK   15  A    between atoms: C24_29  and  C25_31
REMARK                            x       y       z     vdW  Elec       q    Type
REMARK                         _______ _______ _______ _____ _____    ______ ____
ROOT
ATOM     12  C   UNL     1      50.064  18.335  20.642  0.00  0.00    +0.173 A 
ATOM     13  C   UNL     1      48.851  18.234  19.993  0.00  0.00    -0.033 A 
ATOM     14  C   UNL     1      47.888  19.240  20.155  0.00  0.00    +0.046 A 
ATOM     15  C   UNL     1      46.642  19.158  19.500  0.00  0.00    -0.002 A 
ATOM     16  C   UNL     1      45.711  20.135  19.656  0.00  0.00    -0.003 A 
ATOM     17  C   UNL     1      45.981  21.244  20.484  0.00  0.00    -0.215 A 
ATOM     18  C   UNL     1      44.971  22.295  20.658  0.00  0.00    +0.402 C 
ATOM     19  C   UNL     1      43.775  22.284  19.729  0.00  0.00    +0.040 C 
ATOM     20  C   UNL     1      43.308  20.829  19.598  0.00  0.00    +0.133 C 
ATOM     25  C   UNL     1      42.035  20.776  18.752  0.00  0.00    +0.054 C 
ATOM     26  O   UNL     1      45.088  23.140  21.522  0.00  0.00    -0.439 OA
ATOM     27  C   UNL     1      47.207  21.358  21.148  0.00  0.00    +0.223 A 
ATOM     30  C   UNL     1      44.401  20.005  18.924  0.00  0.00    +0.137 C 
ATOM     31  C   UNL     1      48.176  20.351  20.987  0.00  0.00    -0.157 A 
ATOM     32  C   UNL     1      49.422  20.430  21.639  0.00  0.00    +0.190 A 
ATOM     35  C   UNL     1      50.349  19.427  21.462  0.00  0.00    -0.097 A 
ENDROOT
BRANCH  27  28
ATOM     28  O   UNL     1      47.458  22.427  21.940  0.00  0.00    -0.471 OA
ATOM     29  H   UNL     1      48.381  22.713  21.932  0.00  0.00    +0.405 HD
ENDBRANCH  27  28
BRANCH  32  33
ATOM     33  O   UNL     1      49.708  21.490  22.437  0.00  0.00    -0.484 OA
ATOM     34  H   UNL     1      49.069  22.214  22.375  0.00  0.00    +0.402 HD
ENDBRANCH  32  33
BRANCH  12  11
ATOM     11  O   UNL     1      50.993  17.357  20.481  0.00  0.00    -0.303 OA
BRANCH  11  10
ATOM     10  C   UNL     1      50.886  16.545  19.310  0.00  0.00    +0.232 C 
BRANCH  10   9
ATOM      7  C   UNL     1      51.142  17.611  17.130  0.00  0.00    -0.096 C 
ATOM      8  C   UNL     1      49.657  17.444  16.938  0.00  0.00    +0.078 C 
ATOM      9  C   UNL     1      51.721  17.140  18.207  0.00  0.00    -0.052 C 
BRANCH   7   6
ATOM      6  C   UNL     1      51.962  18.320  16.083  0.00  0.00    +0.067 C 
BRANCH   6   5
ATOM      5  C   UNL     1      51.638  19.814  16.105  0.00  0.00    +0.056 C 
BRANCH   5   4
ATOM      1  C   UNL     1      50.127  21.183  18.054  0.00  0.00    +0.072 C 
ATOM      2  C   UNL     1      51.618  21.043  18.216  0.00  0.00    -0.130 C 
ATOM      3  C   UNL     1      52.294  21.572  19.454  0.00  0.00    +0.072 C 
ATOM      4  C   UNL     1      52.326  20.460  17.281  0.00  0.00    -0.062 C 
ENDBRANCH   5   4
ENDBRANCH   6   5
ENDBRANCH   7   6
ENDBRANCH  10   9
ENDBRANCH  11  10
ENDBRANCH  12  11
BRANCH  20  21
ATOM     21  O   UNL     1      43.036  20.287  20.917  0.00  0.00    -0.346 OA
BRANCH  21  22
ATOM     22  C   UNL     1      42.473  19.069  20.971  0.00  0.00    +0.459 C 
ATOM     23  C   UNL     1      40.984  18.936  21.163  0.00  0.00    +0.152 C 
ATOM     24  O   UNL     1      43.159  18.081  20.866  0.00  0.00    -0.504 OA
ENDBRANCH  21  22
ENDBRANCH  20  21
TORSDOF 10
ENDMDL
MODEL 3
REMARK VINA RESULT:      -6.2      1.441      6.602
REMARK  Name = ZINC13480348
REMARK  15 active torsions:
REMARK  status: ('A' for Active; 'I' for Inactive)
REMARK    1  A    between atoms: C1_1  and  C2_2
REMARK    2  A    between atoms: C2_2  and  C27_33
REMARK    3  A    between atoms: C3_3  and  C4_4
REMARK    4  A    between atoms: C4_4  and  C5_5
REMARK    5  A    between atoms: C5_5  and  C6_6
REMARK    6  A    between atoms: C6_6  and  C26_32
REMARK    7  A    between atoms: C7_7  and  C8_8
REMARK    8  A    between atoms: C8_8  and  O1_9
REMARK    9  A    between atoms: O1_9  and  C9_10
REMARK   10  A    between atoms: C15_16  and  O3_21
REMARK   11  A    between atoms: C17_18  and  O2_20
REMARK   12  A    between atoms: C21_25  and  C23_27
REMARK   13  A    between atoms: C21_25  and  O5_28
REMARK   14  A    between atoms: O5_28  and  C24_29
REMARK   15  A    between atoms: C24_29  and  C25_31
REMARK                            x       y       z     vdW  Elec       q    Type
REMARK                         _______ _______ _______ _____ _____    ______ ____
ROOT
ATOM     12  C   UNL     1      43.804  20.227  19.474  0.00  0.00    +0.173 A 
ATOM     13  C   UNL     1      44.672  19.659  18.565  0.00  0.00    -0.033 A 
ATOM     14  C   UNL     1      45.103  18.338  18.743  0.00  0.00    +0.046 A 
ATOM     15  C   UNL     1      45.990  17.738  17.825  0.00  0.00    -0.002 A 
ATOM     16  C   UNL     1      46.405  16.455  17.998  0.00  0.00    -0.003 A 
ATOM     17  C   UNL     1      45.954  15.710  19.107  0.00  0.00    -0.215 A 
ATOM     18  C   UNL     1      46.410  14.327  19.298  0.00  0.00    +0.402 C 
ATOM     19  C   UNL     1      47.137  13.660  18.149  0.00  0.00    +0.040 C 
ATOM     20  C   UNL     1      48.121  14.685  17.571  0.00  0.00    +0.133 C 
ATOM     25  C   UNL     1      48.958  14.027  16.473  0.00  0.00    +0.054 C 
ATOM     26  O   UNL     1      46.214  13.740  20.342  0.00  0.00    -0.439 OA
ATOM     27  C   UNL     1      45.074  16.273  20.037  0.00  0.00    +0.223 A 
ATOM     30  C   UNL     1      47.341  15.858  16.982  0.00  0.00    +0.137 C 
ATOM     31  C   UNL     1      44.639  17.599  19.860  0.00  0.00    -0.157 A 
ATOM     32  C   UNL     1      43.753  18.201  20.774  0.00  0.00    +0.190 A 
ATOM     35  C   UNL     1      43.346  19.502  20.575  0.00  0.00    -0.097 A 
ENDROOT
BRANCH  27  28
ATOM     28  O   UNL     1      44.646  15.550  21.098  0.00  0.00    -0.471 OA
ATOM     29  H   UNL     1      44.021  14.848  20.868  0.00  0.00    +0.405 HD
ENDBRANCH  27  28
BRANCH  32  33
ATOM     33  O   UNL     1      43.301  17.503  21.847  0.00  0.00    -0.484 OA
ATOM     34  H   UNL     1      42.460  17.826  22.201  0.00  0.00    +0.402 HD
ENDBRANCH  32  33
BRANCH  12  11
ATOM     11  O   UNL     1      43.390  21.508  19.296  0.00  0.00    -0.303 OA
BRANCH  11  10
ATOM     10  C   UNL     1      43.965  22.500  20.149  0.00  0.00    +0.232 C 
BRANCH  10   9
ATOM      7  C   UNL     1      46.110  22.012  21.206  0.00  0.00    -0.096 C 
ATOM      8  C   UNL     1      45.366  21.842  22.505  0.00  0.00    +0.078 C 
ATOM      9  C   UNL     1      45.466  22.376  20.125  0.00  0.00    -0.052 C 
BRANCH   7   6
ATOM      6  C   UNL     1      47.596  21.765  21.151  0.00  0.00    +0.067 C 
BRANCH   6   5
ATOM      5  C   UNL     1      47.872  20.484  20.363  0.00  0.00    +0.056 C 
BRANCH   5   4
ATOM      1  C   UNL     1      50.691  20.532  20.442  0.00  0.00    +0.072 C 
ATOM      2  C   UNL     1      49.967  20.779  19.144  0.00  0.00    -0.130 C 
ATOM      3  C   UNL     1      50.749  20.983  17.872  0.00  0.00    +0.072 C 
ATOM      4  C   UNL     1      48.658  20.817  19.121  0.00  0.00    -0.062 C 
ENDBRANCH   5   4
ENDBRANCH   6   5
ENDBRANCH   7   6
ENDBRANCH  10   9
ENDBRANCH  11  10
ENDBRANCH  12  11
BRANCH  20  21
ATOM     21  O   UNL     1      48.995  15.166  18.626  0.00  0.00    -0.346 OA
BRANCH  21  22
ATOM     22  C   UNL     1      50.126  15.781  18.246  0.00  0.00    +0.459 C 
ATOM     23  C   UNL     1      50.095  17.234  17.845  0.00  0.00    +0.152 C 
ATOM     24  O   UNL     1      51.169  15.172  18.227  0.00  0.00    -0.504 OA
ENDBRANCH  21  22
ENDBRANCH  20  21
TORSDOF 10
ENDMDL
MODEL 4
REMARK VINA RESULT:      -5.8      3.379      8.032
REMARK  Name = ZINC13480348
REMARK  15 active torsions:
REMARK  status: ('A' for Active; 'I' for Inactive)
REMARK    1  A    between atoms: C1_1  and  C2_2
REMARK    2  A    between atoms: C2_2  and  C27_33
REMARK    3  A    between atoms: C3_3  and  C4_4
REMARK    4  A    between atoms: C4_4  and  C5_5
REMARK    5  A    between atoms: C5_5  and  C6_6
REMARK    6  A    between atoms: C6_6  and  C26_32
REMARK    7  A    between atoms: C7_7  and  C8_8
REMARK    8  A    between atoms: C8_8  and  O1_9
REMARK    9  A    between atoms: O1_9  and  C9_10
REMARK   10  A    between atoms: C15_16  and  O3_21
REMARK   11  A    between atoms: C17_18  and  O2_20
REMARK   12  A    between atoms: C21_25  and  C23_27
REMARK   13  A    between atoms: C21_25  and  O5_28
REMARK   14  A    between atoms: O5_28  and  C24_29
REMARK   15  A    between atoms: C24_29  and  C25_31
REMARK                            x       y       z     vdW  Elec       q    Type
REMARK                         _______ _______ _______ _____ _____    ______ ____
ROOT
ATOM     12  C   UNL     1      50.554  19.783  18.668  0.00  0.00    +0.173 A 
ATOM     13  C   UNL     1      50.018  18.571  19.052  0.00  0.00    -0.033 A 
ATOM     14  C   UNL     1      50.315  17.414  18.320  0.00  0.00    +0.046 A 
ATOM     15  C   UNL     1      49.779  16.165  18.695  0.00  0.00    -0.002 A 
ATOM     16  C   UNL     1      50.070  15.043  17.986  0.00  0.00    -0.003 A 
ATOM     17  C   UNL     1      50.913  15.118  16.857  0.00  0.00    -0.215 A 
ATOM     18  C   UNL     1      51.220  13.907  16.087  0.00  0.00    +0.402 C 
ATOM     19  C   UNL     1      50.837  12.572  16.690  0.00  0.00    +0.040 C 
ATOM     20  C   UNL     1      49.434  12.725  17.291  0.00  0.00    +0.133 C 
ATOM     25  C   UNL     1      48.956  11.372  17.821  0.00  0.00    +0.054 C 
ATOM     26  O   UNL     1      51.759  13.975  15.001  0.00  0.00    -0.439 OA
ATOM     27  C   UNL     1      51.462  16.341  16.457  0.00  0.00    +0.223 A 
ATOM     30  C   UNL     1      49.482  13.732  18.437  0.00  0.00    +0.137 C 
ATOM     31  C   UNL     1      51.167  17.504  17.191  0.00  0.00    -0.157 A 
ATOM     32  C   UNL     1      51.702  18.753  16.819  0.00  0.00    +0.190 A 
ATOM     35  C   UNL     1      51.392  19.874  17.556  0.00  0.00    -0.097 A 
ENDROOT
BRANCH  27  28
ATOM     28  O   UNL     1      52.272  16.404  15.373  0.00  0.00    -0.471 OA
ATOM     29  H   UNL     1      52.770  17.229  15.303  0.00  0.00    +0.405 HD
ENDBRANCH  27  28
BRANCH  32  33
ATOM     33  O   UNL     1      52.519  18.852  15.740  0.00  0.00    -0.484 OA
ATOM     34  H   UNL     1      52.664  19.759  15.437  0.00  0.00    +0.402 HD
ENDBRANCH  32  33
BRANCH  12  11
ATOM     11  O   UNL     1      50.262  20.901  19.381  0.00  0.00    -0.303 OA
BRANCH  11  10
ATOM     10  C   UNL     1      49.187  20.811  20.319  0.00  0.00    +0.232 C 
BRANCH  10   9
ATOM      7  C   UNL     1      46.831  20.248  20.024  0.00  0.00    -0.096 C 
ATOM      8  C   UNL     1      46.975  19.288  21.177  0.00  0.00    +0.078 C 
ATOM      9  C   UNL     1      47.874  20.912  19.589  0.00  0.00    -0.052 C 
BRANCH   7   6
ATOM      6  C   UNL     1      45.487  20.445  19.371  0.00  0.00    +0.067 C 
BRANCH   6   5
ATOM      5  C   UNL     1      44.937  19.091  18.919  0.00  0.00    +0.056 C 
BRANCH   5   4
ATOM      1  C   UNL     1      45.838  16.420  19.007  0.00  0.00    +0.072 C 
ATOM      2  C   UNL     1      46.163  17.288  17.819  0.00  0.00    -0.130 C 
ATOM      3  C   UNL     1      46.910  16.710  16.645  0.00  0.00    +0.072 C 
ATOM      4  C   UNL     1      45.796  18.546  17.807  0.00  0.00    -0.062 C 
ENDBRANCH   5   4
ENDBRANCH   6   5
ENDBRANCH   7   6
ENDBRANCH  10   9
ENDBRANCH  11  10
ENDBRANCH  12  11
BRANCH  20  21
ATOM     21  O   UNL     1      48.518  13.197  16.269  0.00  0.00    -0.346 OA
BRANCH  21  22
ATOM     22  C   UNL     1      47.306  12.621  16.224  0.00  0.00    +0.459 C 
ATOM     23  C   UNL     1      46.214  13.091  17.150  0.00  0.00    +0.152 C 
ATOM     24  O   UNL     1      47.091  11.726  15.441  0.00  0.00    -0.504 OA
ENDBRANCH  21  22
ENDBRANCH  20  21
TORSDOF 10
ENDMDL
MODEL 5
REMARK VINA RESULT:      -5.7      2.964      8.105
REMARK  Name = ZINC13480348
REMARK  15 active torsions:
REMARK  status: ('A' for Active; 'I' for Inactive)
REMARK    1  A    between atoms: C1_1  and  C2_2
REMARK    2  A    between atoms: C2_2  and  C27_33
REMARK    3  A    between atoms: C3_3  and  C4_4
REMARK    4  A    between atoms: C4_4  and  C5_5
REMARK    5  A    between atoms: C5_5  and  C6_6
REMARK    6  A    between atoms: C6_6  and  C26_32
REMARK    7  A    between atoms: C7_7  and  C8_8
REMARK    8  A    between atoms: C8_8  and  O1_9
REMARK    9  A    between atoms: O1_9  and  C9_10
REMARK   10  A    between atoms: C15_16  and  O3_21
REMARK   11  A    between atoms: C17_18  and  O2_20
REMARK   12  A    between atoms: C21_25  and  C23_27
REMARK   13  A    between atoms: C21_25  and  O5_28
REMARK   14  A    between atoms: O5_28  and  C24_29
REMARK   15  A    between atoms: C24_29  and  C25_31
REMARK                            x       y       z     vdW  Elec       q    Type
REMARK                         _______ _______ _______ _____ _____    ______ ____
ROOT
ATOM     12  C   UNL     1      46.450  14.897  20.773  0.00  0.00    +0.173 A 
ATOM     13  C   UNL     1      47.634  14.983  20.071  0.00  0.00    -0.033 A 
ATOM     14  C   UNL     1      47.749  14.368  18.818  0.00  0.00    +0.046 A 
ATOM     15  C   UNL     1      48.950  14.443  18.083  0.00  0.00    -0.002 A 
ATOM     16  C   UNL     1      49.059  13.848  16.867  0.00  0.00    -0.003 A 
ATOM     17  C   UNL     1      47.967  13.139  16.326  0.00  0.00    -0.215 A 
ATOM     18  C   UNL     1      48.088  12.489  15.015  0.00  0.00    +0.402 C 
ATOM     19  C   UNL     1      49.296  12.831  14.169  0.00  0.00    +0.040 C 
ATOM     20  C   UNL     1      50.517  12.848  15.097  0.00  0.00    +0.133 C 
ATOM     25  C   UNL     1      51.782  13.084  14.270  0.00  0.00    +0.054 C 
ATOM     26  O   UNL     1      47.250  11.701  14.626  0.00  0.00    -0.439 OA
ATOM     27  C   UNL     1      46.760  13.044  17.027  0.00  0.00    +0.223 A 
ATOM     30  C   UNL     1      50.360  13.971  16.118  0.00  0.00    +0.137 C 
ATOM     31  C   UNL     1      46.641  13.662  18.285  0.00  0.00    -0.157 A 
ATOM     32  C   UNL     1      45.442  13.589  19.021  0.00  0.00    +0.190 A 
ATOM     35  C   UNL     1      45.358  14.203  20.250  0.00  0.00    -0.097 A 
ENDROOT
BRANCH  27  28
ATOM     28  O   UNL     1      45.715  12.363  16.500  0.00  0.00    -0.471 OA
ATOM     29  H   UNL     1      45.002  12.189  17.129  0.00  0.00    +0.405 HD
ENDBRANCH  27  28
BRANCH  32  33
ATOM     33  O   UNL     1      44.374  12.917  18.520  0.00  0.00    -0.484 OA
ATOM     34  H   UNL     1      43.545  13.413  18.554  0.00  0.00    +0.402 HD
ENDBRANCH  32  33
BRANCH  12  11
ATOM     11  O   UNL     1      46.344  15.496  21.987  0.00  0.00    -0.303 OA
BRANCH  11  10
ATOM     10  C   UNL     1      45.352  16.515  22.125  0.00  0.00    +0.232 C 
BRANCH  10   9
ATOM      7  C   UNL     1      45.431  18.517  20.732  0.00  0.00    -0.096 C 
ATOM      8  C   UNL     1      44.341  17.904  19.890  0.00  0.00    +0.078 C 
ATOM      9  C   UNL     1      45.940  17.845  21.735  0.00  0.00    -0.052 C 
BRANCH   7   6
ATOM      6  C   UNL     1      45.935  19.903  20.419  0.00  0.00    +0.067 C 
BRANCH   6   5
ATOM      5  C   UNL     1      46.501  19.931  18.999  0.00  0.00    +0.056 C 
BRANCH   5   4
ATOM      1  C   UNL     1      47.139  17.661  17.451  0.00  0.00    +0.072 C 
ATOM      2  C   UNL     1      48.213  18.365  18.239  0.00  0.00    -0.130 C 
ATOM      3  C   UNL     1      49.644  17.899  18.146  0.00  0.00    +0.072 C 
ATOM      4  C   UNL     1      47.904  19.382  19.005  0.00  0.00    -0.062 C 
ENDBRANCH   5   4
ENDBRANCH   6   5
ENDBRANCH   7   6
ENDBRANCH  10   9
ENDBRANCH  11  10
ENDBRANCH  12  11
BRANCH  20  21
ATOM     21  O   UNL     1      50.619  11.575  15.787  0.00  0.00    -0.346 OA
BRANCH  21  22
ATOM     22  C   UNL     1      51.806  11.274  16.339  0.00  0.00    +0.459 C 
ATOM     23  C   UNL     1      52.716  10.277  15.669  0.00  0.00    +0.152 C 
ATOM     24  O   UNL     1      52.144  11.803  17.370  0.00  0.00    -0.504 OA
ENDBRANCH  21  22
ENDBRANCH  20  21
TORSDOF 10
ENDMDL
MODEL 6
REMARK VINA RESULT:      -5.6     21.509     24.265
REMARK  Name = ZINC13480348
REMARK  15 active torsions:
REMARK  status: ('A' for Active; 'I' for Inactive)
REMARK    1  A    between atoms: C1_1  and  C2_2
REMARK    2  A    between atoms: C2_2  and  C27_33
REMARK    3  A    between atoms: C3_3  and  C4_4
REMARK    4  A    between atoms: C4_4  and  C5_5
REMARK    5  A    between atoms: C5_5  and  C6_6
REMARK    6  A    between atoms: C6_6  and  C26_32
REMARK    7  A    between atoms: C7_7  and  C8_8
REMARK    8  A    between atoms: C8_8  and  O1_9
REMARK    9  A    between atoms: O1_9  and  C9_10
REMARK   10  A    between atoms: C15_16  and  O3_21
REMARK   11  A    between atoms: C17_18  and  O2_20
REMARK   12  A    between atoms: C21_25  and  C23_27
REMARK   13  A    between atoms: C21_25  and  O5_28
REMARK   14  A    between atoms: O5_28  and  C24_29
REMARK   15  A    between atoms: C24_29  and  C25_31
REMARK                            x       y       z     vdW  Elec       q    Type
REMARK                         _______ _______ _______ _____ _____    ______ ____
ROOT
ATOM     12  C   UNL     1      51.080  33.376   4.330  0.00  0.00    +0.173 A 
ATOM     13  C   UNL     1      52.033  32.833   3.494  0.00  0.00    -0.033 A 
ATOM     14  C   UNL     1      53.379  32.824   3.883  0.00  0.00    +0.046 A 
ATOM     15  C   UNL     1      54.370  32.274   3.044  0.00  0.00    -0.002 A 
ATOM     16  C   UNL     1      55.674  32.264   3.424  0.00  0.00    -0.003 A 
ATOM     17  C   UNL     1      56.053  32.812   4.667  0.00  0.00    -0.215 A 
ATOM     18  C   UNL     1      57.463  32.808   5.073  0.00  0.00    +0.402 C 
ATOM     19  C   UNL     1      58.429  31.972   4.260  0.00  0.00    +0.040 C 
ATOM     20  C   UNL     1      58.090  32.189   2.779  0.00  0.00    +0.133 C 
ATOM     25  C   UNL     1      59.107  31.447   1.910  0.00  0.00    +0.054 C 
ATOM     26  O   UNL     1      57.844  33.458   6.026  0.00  0.00    -0.439 OA
ATOM     27  C   UNL     1      55.096  33.366   5.524  0.00  0.00    +0.223 A 
ATOM     30  C   UNL     1      56.690  31.652   2.497  0.00  0.00    +0.137 C 
ATOM     31  C   UNL     1      53.744  33.375   5.137  0.00  0.00    -0.157 A 
ATOM     32  C   UNL     1      52.752  33.924   5.973  0.00  0.00    +0.190 A 
ATOM     35  C   UNL     1      51.437  33.920   5.565  0.00  0.00    -0.097 A 
ENDROOT
BRANCH  27  28
ATOM     28  O   UNL     1      55.469  33.889   6.716  0.00  0.00    -0.471 OA
ATOM     29  H   UNL     1      56.284  33.512   7.073  0.00  0.00    +0.405 HD
ENDBRANCH  27  28
BRANCH  32  33
ATOM     33  O   UNL     1      53.090  34.453   7.176  0.00  0.00    -0.484 OA
ATOM     34  H   UNL     1      52.506  34.190   7.901  0.00  0.00    +0.402 HD
ENDBRANCH  32  33
BRANCH  12  11
ATOM     11  O   UNL     1      49.777  33.382   3.947  0.00  0.00    -0.303 OA
BRANCH  11  10
ATOM     10  C   UNL     1      49.292  34.567   3.311  0.00  0.00    +0.232 C 
BRANCH  10   9
ATOM      7  C   UNL     1      46.938  34.935   2.784  0.00  0.00    -0.096 C 
ATOM      8  C   UNL     1      47.331  34.986   1.330  0.00  0.00    +0.078 C 
ATOM      9  C   UNL     1      47.858  34.799   3.707  0.00  0.00    -0.052 C 
BRANCH   7   6
ATOM      6  C   UNL     1      45.487  35.042   3.176  0.00  0.00    +0.067 C 
BRANCH   6   5
ATOM      5  C   UNL     1      44.738  33.794   2.706  0.00  0.00    +0.056 C 
BRANCH   5   4
ATOM      1  C   UNL     1      42.837  31.715   2.554  0.00  0.00    +0.072 C 
ATOM      2  C   UNL     1      42.388  33.153   2.534  0.00  0.00    -0.130 C 
ATOM      3  C   UNL     1      40.917  33.482   2.503  0.00  0.00    +0.072 C 
ATOM      4  C   UNL     1      43.275  34.117   2.543  0.00  0.00    -0.062 C 
ENDBRANCH   5   4
ENDBRANCH   6   5
ENDBRANCH   7   6
ENDBRANCH  10   9
ENDBRANCH  11  10
ENDBRANCH  12  11
BRANCH  20  21
ATOM     21  O   UNL     1      58.135  33.608   2.475  0.00  0.00    -0.346 OA
BRANCH  21  22
ATOM     22  C   UNL     1      58.226  33.951   1.181  0.00  0.00    +0.459 C 
ATOM     23  C   UNL     1      56.976  34.090   0.350  0.00  0.00    +0.152 C 
ATOM     24  O   UNL     1      59.308  34.149   0.682  0.00  0.00    -0.504 OA
ENDBRANCH  21  22
ENDBRANCH  20  21
TORSDOF 10
ENDMDL
MODEL 7
REMARK VINA RESULT:      -5.6      3.277      8.855
REMARK  Name = ZINC13480348
REMARK  15 active torsions:
REMARK  status: ('A' for Active; 'I' for Inactive)
REMARK    1  A    between atoms: C1_1  and  C2_2
REMARK    2  A    between atoms: C2_2  and  C27_33
REMARK    3  A    between atoms: C3_3  and  C4_4
REMARK    4  A    between atoms: C4_4  and  C5_5
REMARK    5  A    between atoms: C5_5  and  C6_6
REMARK    6  A    between atoms: C6_6  and  C26_32
REMARK    7  A    between atoms: C7_7  and  C8_8
REMARK    8  A    between atoms: C8_8  and  O1_9
REMARK    9  A    between atoms: O1_9  and  C9_10
REMARK   10  A    between atoms: C15_16  and  O3_21
REMARK   11  A    between atoms: C17_18  and  O2_20
REMARK   12  A    between atoms: C21_25  and  C23_27
REMARK   13  A    between atoms: C21_25  and  O5_28
REMARK   14  A    between atoms: O5_28  and  C24_29
REMARK   15  A    between atoms: C24_29  and  C25_31
REMARK                            x       y       z     vdW  Elec       q    Type
REMARK                         _______ _______ _______ _____ _____    ______ ____
ROOT
ATOM     12  C   UNL     1      46.391  15.228  20.458  0.00  0.00    +0.173 A 
ATOM     13  C   UNL     1      47.570  15.314  19.748  0.00  0.00    -0.033 A 
ATOM     14  C   UNL     1      47.721  14.594  18.556  0.00  0.00    +0.046 A 
ATOM     15  C   UNL     1      48.918  14.668  17.814  0.00  0.00    -0.002 A 
ATOM     16  C   UNL     1      49.061  13.971  16.656  0.00  0.00    -0.003 A 
ATOM     17  C   UNL     1      48.011  13.156  16.186  0.00  0.00    -0.215 A 
ATOM     18  C   UNL     1      48.170  12.396  14.940  0.00  0.00    +0.402 C 
ATOM     19  C   UNL     1      49.359  12.725  14.062  0.00  0.00    +0.040 C 
ATOM     20  C   UNL     1      50.576  12.895  14.980  0.00  0.00    +0.133 C 
ATOM     25  C   UNL     1      51.827  13.124  14.132  0.00  0.00    +0.054 C 
ATOM     26  O   UNL     1      47.378  11.531  14.628  0.00  0.00    -0.439 OA
ATOM     27  C   UNL     1      46.810  13.059  16.897  0.00  0.00    +0.223 A 
ATOM     30  C   UNL     1      50.355  14.096  15.896  0.00  0.00    +0.137 C 
ATOM     31  C   UNL     1      46.655  13.782  18.093  0.00  0.00    -0.157 A 
ATOM     32  C   UNL     1      45.460  13.711  18.837  0.00  0.00    +0.190 A 
ATOM     35  C   UNL     1      45.340  14.429  20.005  0.00  0.00    -0.097 A 
ENDROOT
BRANCH  27  28
ATOM     28  O   UNL     1      45.805  12.276  16.438  0.00  0.00    -0.471 OA
ATOM     29  H   UNL     1      45.173  12.008  17.118  0.00  0.00    +0.405 HD
ENDBRANCH  27  28
BRANCH  32  33
ATOM     33  O   UNL     1      44.432  12.937  18.403  0.00  0.00    -0.484 OA
ATOM     34  H   UNL     1      44.150  13.129  17.498  0.00  0.00    +0.402 HD
ENDBRANCH  32  33
BRANCH  12  11
ATOM     11  O   UNL     1      46.250  15.929  21.613  0.00  0.00    -0.303 OA
BRANCH  11  10
ATOM     10  C   UNL     1      46.468  17.339  21.547  0.00  0.00    +0.232 C 
BRANCH  10   9
ATOM      7  C   UNL     1      44.404  18.549  21.064  0.00  0.00    -0.096 C 
ATOM      8  C   UNL     1      44.784  18.499  19.606  0.00  0.00    +0.078 C 
ATOM      9  C   UNL     1      45.216  18.062  21.970  0.00  0.00    -0.052 C 
BRANCH   7   6
ATOM      6  C   UNL     1      43.091  19.160  21.479  0.00  0.00    +0.067 C 
BRANCH   6   5
ATOM      5  C   UNL     1      41.982  18.668  20.549  0.00  0.00    +0.056 C 
BRANCH   5   4
ATOM      1  C   UNL     1      41.872  20.129  18.138  0.00  0.00    +0.072 C 
ATOM      2  C   UNL     1      40.866  20.393  19.228  0.00  0.00    -0.130 C 
ATOM      3  C   UNL     1      39.757  21.388  19.004  0.00  0.00    +0.072 C 
ATOM      4  C   UNL     1      40.955  19.757  20.370  0.00  0.00    -0.062 C 
ENDBRANCH   5   4
ENDBRANCH   6   5
ENDBRANCH   7   6
ENDBRANCH  10   9
ENDBRANCH  11  10
ENDBRANCH  12  11
BRANCH  20  21
ATOM     21  O   UNL     1      50.747  11.698  15.785  0.00  0.00    -0.346 OA
BRANCH  21  22
ATOM     22  C   UNL     1      51.931  11.539  16.397  0.00  0.00    +0.459 C 
ATOM     23  C   UNL     1      52.887  10.475  15.923  0.00  0.00    +0.152 C 
ATOM     24  O   UNL     1      52.230  12.250  17.327  0.00  0.00    -0.504 OA
ENDBRANCH  21  22
ENDBRANCH  20  21
TORSDOF 10
ENDMDL
MODEL 8
REMARK VINA RESULT:      -5.5      4.105      7.149
REMARK  Name = ZINC13480348
REMARK  15 active torsions:
REMARK  status: ('A' for Active; 'I' for Inactive)
REMARK    1  A    between atoms: C1_1  and  C2_2
REMARK    2  A    between atoms: C2_2  and  C27_33
REMARK    3  A    between atoms: C3_3  and  C4_4
REMARK    4  A    between atoms: C4_4  and  C5_5
REMARK    5  A    between atoms: C5_5  and  C6_6
REMARK    6  A    between atoms: C6_6  and  C26_32
REMARK    7  A    between atoms: C7_7  and  C8_8
REMARK    8  A    between atoms: C8_8  and  O1_9
REMARK    9  A    between atoms: O1_9  and  C9_10
REMARK   10  A    between atoms: C15_16  and  O3_21
REMARK   11  A    between atoms: C17_18  and  O2_20
REMARK   12  A    between atoms: C21_25  and  C23_27
REMARK   13  A    between atoms: C21_25  and  O5_28
REMARK   14  A    between atoms: O5_28  and  C24_29
REMARK   15  A    between atoms: C24_29  and  C25_31
REMARK                            x       y       z     vdW  Elec       q    Type
REMARK                         _______ _______ _______ _____ _____    ______ ____
ROOT
ATOM     12  C   UNL     1      51.757  18.451  17.499  0.00  0.00    +0.173 A 
ATOM     13  C   UNL     1      50.580  17.909  17.027  0.00  0.00    -0.033 A 
ATOM     14  C   UNL     1      50.111  16.696  17.550  0.00  0.00    +0.046 A 
ATOM     15  C   UNL     1      48.910  16.124  17.083  0.00  0.00    -0.002 A 
ATOM     16  C   UNL     1      48.456  14.950  17.593  0.00  0.00    -0.003 A 
ATOM     17  C   UNL     1      49.189  14.284  18.598  0.00  0.00    -0.215 A 
ATOM     18  C   UNL     1      48.701  13.012  19.143  0.00  0.00    +0.402 C 
ATOM     19  C   UNL     1      47.288  12.592  18.797  0.00  0.00    +0.040 C 
ATOM     20  C   UNL     1      47.074  12.884  17.306  0.00  0.00    +0.133 C 
ATOM     25  C   UNL     1      45.695  12.379  16.880  0.00  0.00    +0.054 C 
ATOM     26  O   UNL     1      49.409  12.317  19.843  0.00  0.00    -0.439 OA
ATOM     27  C   UNL     1      50.384  14.824  19.086  0.00  0.00    +0.223 A 
ATOM     30  C   UNL     1      47.161  14.388  17.068  0.00  0.00    +0.137 C 
ATOM     31  C   UNL     1      50.856  16.041  18.563  0.00  0.00    -0.157 A 
ATOM     32  C   UNL     1      52.055  16.616  19.029  0.00  0.00    +0.190 A 
ATOM     35  C   UNL     1      52.492  17.808  18.496  0.00  0.00    -0.097 A 
ENDROOT
BRANCH  27  28
ATOM     28  O   UNL     1      51.080  14.179  20.052  0.00  0.00    -0.471 OA
ATOM     29  H   UNL     1      50.913  13.228  20.088  0.00  0.00    +0.405 HD
ENDBRANCH  27  28
BRANCH  32  33
ATOM     33  O   UNL     1      52.776  15.998  19.999  0.00  0.00    -0.484 OA
ATOM     34  H   UNL     1      53.118  16.597  20.677  0.00  0.00    +0.402 HD
ENDBRANCH  32  33
BRANCH  12  11
ATOM     11  O   UNL     1      52.206  19.627  16.988  0.00  0.00    -0.303 OA
BRANCH  11  10
ATOM     10  C   UNL     1      51.829  20.821  17.676  0.00  0.00    +0.232 C 
BRANCH  10   9
ATOM      7  C   UNL     1      49.968  20.773  19.256  0.00  0.00    -0.096 C 
ATOM      8  C   UNL     1      50.987  20.705  20.364  0.00  0.00    +0.078 C 
ATOM      9  C   UNL     1      50.360  20.768  18.005  0.00  0.00    -0.052 C 
BRANCH   7   6
ATOM      6  C   UNL     1      48.499  20.846  19.586  0.00  0.00    +0.067 C 
BRANCH   6   5
ATOM      5  C   UNL     1      47.790  19.608  19.036  0.00  0.00    +0.056 C 
BRANCH   5   4
ATOM      1  C   UNL     1      45.946  17.475  18.951  0.00  0.00    +0.072 C 
ATOM      2  C   UNL     1      47.062  17.469  19.963  0.00  0.00    -0.130 C 
ATOM      3  C   UNL     1      47.236  16.290  20.885  0.00  0.00    +0.072 C 
ATOM      4  C   UNL     1      47.881  18.489  20.042  0.00  0.00    -0.062 C 
ENDBRANCH   5   4
ENDBRANCH   6   5
ENDBRANCH   7   6
ENDBRANCH  10   9
ENDBRANCH  11  10
ENDBRANCH  12  11
BRANCH  20  21
ATOM     21  O   UNL     1      48.099  12.210  16.529  0.00  0.00    -0.346 OA
BRANCH  21  22
ATOM     22  C   UNL     1      47.793  11.897  15.260  0.00  0.00    +0.459 C 
ATOM     23  C   UNL     1      48.085  12.876  14.151  0.00  0.00    +0.152 C 
ATOM     24  O   UNL     1      47.285  10.831  15.006  0.00  0.00    -0.504 OA
ENDBRANCH  21  22
ENDBRANCH  20  21
TORSDOF 10
ENDMDL
MODEL 9
REMARK VINA RESULT:      -5.5      3.182      8.702
REMARK  Name = ZINC13480348
REMARK  15 active torsions:
REMARK  status: ('A' for Active; 'I' for Inactive)
REMARK    1  A    between atoms: C1_1  and  C2_2
REMARK    2  A    between atoms: C2_2  and  C27_33
REMARK    3  A    between atoms: C3_3  and  C4_4
REMARK    4  A    between atoms: C4_4  and  C5_5
REMARK    5  A    between atoms: C5_5  and  C6_6
REMARK    6  A    between atoms: C6_6  and  C26_32
REMARK    7  A    between atoms: C7_7  and  C8_8
REMARK    8  A    between atoms: C8_8  and  O1_9
REMARK    9  A    between atoms: O1_9  and  C9_10
REMARK   10  A    between atoms: C15_16  and  O3_21
REMARK   11  A    between atoms: C17_18  and  O2_20
REMARK   12  A    between atoms: C21_25  and  C23_27
REMARK   13  A    between atoms: C21_25  and  O5_28
REMARK   14  A    between atoms: O5_28  and  C24_29
REMARK   15  A    between atoms: C24_29  and  C25_31
REMARK                            x       y       z     vdW  Elec       q    Type
REMARK                         _______ _______ _______ _____ _____    ______ ____
ROOT
ATOM     12  C   UNL     1      50.163  19.523  18.409  0.00  0.00    +0.173 A 
ATOM     13  C   UNL     1      49.734  18.235  18.651  0.00  0.00    -0.033 A 
ATOM     14  C   UNL     1      50.215  17.180  17.863  0.00  0.00    +0.046 A 
ATOM     15  C   UNL     1      49.791  15.855  18.093  0.00  0.00    -0.002 A 
ATOM     16  C   UNL     1      50.260  14.834  17.330  0.00  0.00    -0.003 A 
ATOM     17  C   UNL     1      51.178  15.091  16.290  0.00  0.00    -0.215 A 
ATOM     18  C   UNL     1      51.678  13.988  15.461  0.00  0.00    +0.402 C 
ATOM     19  C   UNL     1      51.397  12.574  15.925  0.00  0.00    +0.040 C 
ATOM     20  C   UNL     1      49.942  12.530  16.408  0.00  0.00    +0.133 C 
ATOM     25  C   UNL     1      49.574  11.095  16.789  0.00  0.00    +0.054 C 
ATOM     26  O   UNL     1      52.292  14.202  14.436  0.00  0.00    -0.439 OA
ATOM     27  C   UNL     1      51.620  16.393  16.035  0.00  0.00    +0.223 A 
ATOM     30  C   UNL     1      49.785  13.436  17.625  0.00  0.00    +0.137 C 
ATOM     31  C   UNL     1      51.140  17.453  16.824  0.00  0.00    -0.157 A 
ATOM     32  C   UNL     1      51.563  18.778  16.598  0.00  0.00    +0.190 A 
ATOM     35  C   UNL     1      51.073  19.795  17.387  0.00  0.00    -0.097 A 
ENDROOT
BRANCH  27  28
ATOM     28  O   UNL     1      52.503  16.631  15.036  0.00  0.00    -0.471 OA
ATOM     29  H   UNL     1      52.090  16.783  14.175  0.00  0.00    +0.405 HD
ENDBRANCH  27  28
BRANCH  32  33
ATOM     33  O   UNL     1      52.449  19.051  15.607  0.00  0.00    -0.484 OA
ATOM     34  H   UNL     1      52.062  19.050  14.721  0.00  0.00    +0.402 HD
ENDBRANCH  32  33
BRANCH  12  11
ATOM     11  O   UNL     1      49.692  20.541  19.176  0.00  0.00    -0.303 OA
BRANCH  11  10
ATOM     10  C   UNL     1      48.641  20.231  20.093  0.00  0.00    +0.232 C 
BRANCH  10   9
ATOM      7  C   UNL     1      46.346  20.619  19.359  0.00  0.00    -0.096 C 
ATOM      8  C   UNL     1      46.285  19.164  18.973  0.00  0.00    +0.078 C 
ATOM      9  C   UNL     1      47.460  21.127  19.825  0.00  0.00    -0.052 C 
BRANCH   7   6
ATOM      6  C   UNL     1      45.125  21.490  19.208  0.00  0.00    +0.067 C 
BRANCH   6   5
ATOM      5  C   UNL     1      43.888  20.719  19.668  0.00  0.00    +0.056 C 
BRANCH   5   4
ATOM      1  C   UNL     1      41.420  19.357  19.781  0.00  0.00    +0.072 C 
ATOM      2  C   UNL     1      41.499  20.728  19.162  0.00  0.00    -0.130 C 
ATOM      3  C   UNL     1      40.246  21.403  18.664  0.00  0.00    +0.072 C 
ATOM      4  C   UNL     1      42.656  21.334  19.055  0.00  0.00    -0.062 C 
ENDBRANCH   5   4
ENDBRANCH   6   5
ENDBRANCH   7   6
ENDBRANCH  10   9
ENDBRANCH  11  10
ENDBRANCH  12  11
BRANCH  20  21
ATOM     21  O   UNL     1      49.065  12.990  15.346  0.00  0.00    -0.346 OA
BRANCH  21  22
ATOM     22  C   UNL     1      47.756  12.723  15.478  0.00  0.00    +0.459 C 
ATOM     23  C   UNL     1      47.162  11.510  14.810  0.00  0.00    +0.152 C 
ATOM     24  O   UNL     1      47.054  13.455  16.134  0.00  0.00    -0.504 OA
ENDBRANCH  21  22
ENDBRANCH  20  21
TORSDOF 10
ENDMDL
