MODEL 1
REMARK VINA RESULT:      -4.4      0.000      0.000
REMARK  Name = ZINC00152926
REMARK  6 active torsions:
REMARK  status: ('A' for Active; 'I' for Inactive)
REMARK    1  A    between atoms: C1_1  and  O1_2
REMARK    2  A    between atoms: O1_2  and  C2_3
REMARK    3  A    between atoms: C4_5  and  C9_12
REMARK    4  A    between atoms: C6_7  and  O3_10
REMARK    5  A    between atoms: C7_8  and  O2_9
REMARK    6  A    between atoms: O3_10  and  C8_11
REMARK                            x       y       z     vdW  Elec       q    Type
REMARK                         _______ _______ _______ _____ _____    ______ ____
ROOT
ATOM      3  C   UNL     1      41.779  21.783  18.925  0.00  0.00    +0.128 A 
ATOM      4  C   UNL     1      41.990  20.468  19.291  0.00  0.00    -0.026 A 
ATOM      5  C   UNL     1      43.169  20.109  19.955  0.00  0.00    -0.124 A 
ATOM      8  C   UNL     1      44.129  21.085  20.246  0.00  0.00    -0.036 A 
ATOM      9  C   UNL     1      43.911  22.397  19.877  0.00  0.00    +0.128 A 
ATOM     12  C   UNL     1      42.739  22.751  19.211  0.00  0.00    +0.075 A 
ENDROOT
BRANCH   3   2
ATOM      1  C   UNL     1      39.452  21.403  18.613  0.00  0.00    +0.248 C 
ATOM      2  O   UNL     1      40.634  22.135  18.280  0.00  0.00    -0.302 OA
ENDBRANCH   3   2
BRANCH   5   6
ATOM      6  C   UNL     1      43.397  18.711  20.345  0.00  0.00    +0.495 C 
ATOM      7  O   UNL     1      44.260  18.061  19.793  0.00  0.00    -0.451 OA
ENDBRANCH   5   6
BRANCH   9  10
ATOM     10  O   UNL     1      44.844  23.346  20.159  0.00  0.00    -0.302 OA
ATOM     11  C   UNL     1      45.690  23.110  21.287  0.00  0.00    +0.247 C 
ENDBRANCH   9  10
BRANCH  12  13
ATOM     13  O   UNL     1      42.531  24.042  18.846  0.00  0.00    -0.471 OA
ATOM     14  H   UNL     1      42.239  24.150  17.930  0.00  0.00    +0.389 HD
ENDBRANCH  12  13
TORSDOF 4
ENDMDL
MODEL 2
REMARK VINA RESULT:      -4.4      2.730      4.511
REMARK  Name = ZINC00152926
REMARK  6 active torsions:
REMARK  status: ('A' for Active; 'I' for Inactive)
REMARK    1  A    between atoms: C1_1  and  O1_2
REMARK    2  A    between atoms: O1_2  and  C2_3
REMARK    3  A    between atoms: C4_5  and  C9_12
REMARK    4  A    between atoms: C6_7  and  O3_10
REMARK    5  A    between atoms: C7_8  and  O2_9
REMARK    6  A    between atoms: O3_10  and  C8_11
REMARK                            x       y       z     vdW  Elec       q    Type
REMARK                         _______ _______ _______ _____ _____    ______ ____
ROOT
ATOM      3  C   UNL     1      42.746  18.557  21.289  0.00  0.00    +0.128 A 
ATOM      4  C   UNL     1      43.855  18.598  20.467  0.00  0.00    -0.026 A 
ATOM      5  C   UNL     1      43.816  19.341  19.280  0.00  0.00    -0.124 A 
ATOM      8  C   UNL     1      42.654  20.040  18.934  0.00  0.00    -0.036 A 
ATOM      9  C   UNL     1      41.550  19.994  19.761  0.00  0.00    +0.128 A 
ATOM     12  C   UNL     1      41.589  19.249  20.938  0.00  0.00    +0.075 A 
ENDROOT
BRANCH   3   2
ATOM      1  C   UNL     1      43.495  16.598  22.411  0.00  0.00    +0.248 C 
ATOM      2  O   UNL     1      42.781  17.836  22.442  0.00  0.00    -0.302 OA
ENDBRANCH   3   2
BRANCH   5   6
ATOM      6  C   UNL     1      44.993  19.386  18.402  0.00  0.00    +0.495 C 
ATOM      7  O   UNL     1      45.540  18.356  18.068  0.00  0.00    -0.451 OA
ENDBRANCH   5   6
BRANCH   9  10
ATOM     10  O   UNL     1      40.420  20.673  19.425  0.00  0.00    -0.302 OA
ATOM     11  C   UNL     1      40.563  21.752  18.498  0.00  0.00    +0.247 C 
ENDBRANCH   9  10
BRANCH  12  13
ATOM     13  O   UNL     1      40.499  19.203  21.748  0.00  0.00    -0.471 OA
ATOM     14  H   UNL     1      40.527  19.831  22.482  0.00  0.00    +0.389 HD
ENDBRANCH  12  13
TORSDOF 4
ENDMDL
MODEL 3
REMARK VINA RESULT:      -4.4      2.748      3.792
REMARK  Name = ZINC00152926
REMARK  6 active torsions:
REMARK  status: ('A' for Active; 'I' for Inactive)
REMARK    1  A    between atoms: C1_1  and  O1_2
REMARK    2  A    between atoms: O1_2  and  C2_3
REMARK    3  A    between atoms: C4_5  and  C9_12
REMARK    4  A    between atoms: C6_7  and  O3_10
REMARK    5  A    between atoms: C7_8  and  O2_9
REMARK    6  A    between atoms: O3_10  and  C8_11
REMARK                            x       y       z     vdW  Elec       q    Type
REMARK                         _______ _______ _______ _____ _____    ______ ____
ROOT
ATOM      3  C   UNL     1      41.430  20.045  19.809  0.00  0.00    +0.128 A 
ATOM      4  C   UNL     1      42.520  20.130  18.964  0.00  0.00    -0.026 A 
ATOM      5  C   UNL     1      43.697  19.436  19.272  0.00  0.00    -0.124 A 
ATOM      8  C   UNL     1      43.763  18.659  20.434  0.00  0.00    -0.036 A 
ATOM      9  C   UNL     1      42.670  18.580  21.273  0.00  0.00    +0.128 A 
ATOM     12  C   UNL     1      41.502  19.276  20.968  0.00  0.00    +0.075 A 
ENDROOT
BRANCH   3   2
ATOM      1  C   UNL     1      40.326  21.601  18.388  0.00  0.00    +0.248 C 
ATOM      2  O   UNL     1      40.286  20.718  19.511  0.00  0.00    -0.302 OA
ENDBRANCH   3   2
BRANCH   5   6
ATOM      6  C   UNL     1      44.858  19.524  18.377  0.00  0.00    +0.495 C 
ATOM      7  O   UNL     1      45.471  18.520  18.078  0.00  0.00    -0.451 OA
ENDBRANCH   5   6
BRANCH   9  10
ATOM     10  O   UNL     1      42.734  17.825  22.404  0.00  0.00    -0.302 OA
ATOM     11  C   UNL     1      43.490  16.615  22.333  0.00  0.00    +0.247 C 
ENDBRANCH   9  10
BRANCH  12  13
ATOM     13  O   UNL     1      40.430  19.199  21.798  0.00  0.00    -0.471 OA
ATOM     14  H   UNL     1      39.704  18.660  21.455  0.00  0.00    +0.389 HD
ENDBRANCH  12  13
TORSDOF 4
ENDMDL
MODEL 4
REMARK VINA RESULT:      -4.4      0.615      3.639
REMARK  Name = ZINC00152926
REMARK  6 active torsions:
REMARK  status: ('A' for Active; 'I' for Inactive)
REMARK    1  A    between atoms: C1_1  and  O1_2
REMARK    2  A    between atoms: O1_2  and  C2_3
REMARK    3  A    between atoms: C4_5  and  C9_12
REMARK    4  A    between atoms: C6_7  and  O3_10
REMARK    5  A    between atoms: C7_8  and  O2_9
REMARK    6  A    between atoms: O3_10  and  C8_11
REMARK                            x       y       z     vdW  Elec       q    Type
REMARK                         _______ _______ _______ _____ _____    ______ ____
ROOT
ATOM      3  C   UNL     1      43.906  22.380  19.844  0.00  0.00    +0.128 A 
ATOM      4  C   UNL     1      44.105  21.075  20.251  0.00  0.00    -0.026 A 
ATOM      5  C   UNL     1      43.122  20.109  19.999  0.00  0.00    -0.124 A 
ATOM      8  C   UNL     1      41.944  20.471  19.336  0.00  0.00    -0.036 A 
ATOM      9  C   UNL     1      41.754  21.778  18.933  0.00  0.00    +0.128 A 
ATOM     12  C   UNL     1      42.730  22.738  19.189  0.00  0.00    +0.075 A 
ENDROOT
BRANCH   3   2
ATOM      1  C   UNL     1      45.672  23.134  21.249  0.00  0.00    +0.248 C 
ATOM      2  O   UNL     1      44.860  23.320  20.088  0.00  0.00    -0.302 OA
ENDBRANCH   3   2
BRANCH   5   6
ATOM      6  C   UNL     1      43.329  18.720  20.430  0.00  0.00    +0.495 C 
ATOM      7  O   UNL     1      42.903  18.349  21.504  0.00  0.00    -0.451 OA
ENDBRANCH   5   6
BRANCH   9  10
ATOM     10  O   UNL     1      40.609  22.130  18.288  0.00  0.00    -0.302 OA
ATOM     11  C   UNL     1      39.463  21.303  18.503  0.00  0.00    +0.247 C 
ENDBRANCH   9  10
BRANCH  12  13
ATOM     13  O   UNL     1      42.537  24.023  18.796  0.00  0.00    -0.471 OA
ATOM     14  H   UNL     1      43.330  24.574  18.849  0.00  0.00    +0.389 HD
ENDBRANCH  12  13
TORSDOF 4
ENDMDL
MODEL 5
REMARK VINA RESULT:      -4.0      1.341      4.233
REMARK  Name = ZINC00152926
REMARK  6 active torsions:
REMARK  status: ('A' for Active; 'I' for Inactive)
REMARK    1  A    between atoms: C1_1  and  O1_2
REMARK    2  A    between atoms: O1_2  and  C2_3
REMARK    3  A    between atoms: C4_5  and  C9_12
REMARK    4  A    between atoms: C6_7  and  O3_10
REMARK    5  A    between atoms: C7_8  and  O2_9
REMARK    6  A    between atoms: O3_10  and  C8_11
REMARK                            x       y       z     vdW  Elec       q    Type
REMARK                         _______ _______ _______ _____ _____    ______ ____
ROOT
ATOM      3  C   UNL     1      43.569  21.888  19.738  0.00  0.00    +0.128 A 
ATOM      4  C   UNL     1      42.380  22.128  19.077  0.00  0.00    -0.026 A 
ATOM      5  C   UNL     1      41.445  21.097  18.927  0.00  0.00    -0.124 A 
ATOM      8  C   UNL     1      41.719  19.827  19.449  0.00  0.00    -0.036 A 
ATOM      9  C   UNL     1      42.910  19.595  20.107  0.00  0.00    +0.128 A 
ATOM     12  C   UNL     1      43.841  20.621  20.250  0.00  0.00    +0.075 A 
ENDROOT
BRANCH   3   2
ATOM      1  C   UNL     1      44.319  24.038  19.050  0.00  0.00    +0.248 C 
ATOM      2  O   UNL     1      44.479  22.889  19.885  0.00  0.00    -0.302 OA
ENDBRANCH   3   2
BRANCH   5   6
ATOM      6  C   UNL     1      40.179  21.348  18.226  0.00  0.00    +0.495 C 
ATOM      7  O   UNL     1      39.181  21.625  18.856  0.00  0.00    -0.451 OA
ENDBRANCH   5   6
BRANCH   9  10
ATOM     10  O   UNL     1      43.177  18.361  20.614  0.00  0.00    -0.302 OA
ATOM     11  C   UNL     1      42.578  18.031  21.869  0.00  0.00    +0.247 C 
ENDBRANCH   9  10
BRANCH  12  13
ATOM     13  O   UNL     1      45.014  20.388  20.895  0.00  0.00    -0.471 OA
ATOM     14  H   UNL     1      45.144  20.932  21.683  0.00  0.00    +0.389 HD
ENDBRANCH  12  13
TORSDOF 4
ENDMDL
MODEL 6
REMARK VINA RESULT:      -3.9      1.421      3.836
REMARK  Name = ZINC00152926
REMARK  6 active torsions:
REMARK  status: ('A' for Active; 'I' for Inactive)
REMARK    1  A    between atoms: C1_1  and  O1_2
REMARK    2  A    between atoms: O1_2  and  C2_3
REMARK    3  A    between atoms: C4_5  and  C9_12
REMARK    4  A    between atoms: C6_7  and  O3_10
REMARK    5  A    between atoms: C7_8  and  O2_9
REMARK    6  A    between atoms: O3_10  and  C8_11
REMARK                            x       y       z     vdW  Elec       q    Type
REMARK                         _______ _______ _______ _____ _____    ______ ____
ROOT
ATOM      3  C   UNL     1      43.336  19.057  20.377  0.00  0.00    +0.128 A 
ATOM      4  C   UNL     1      42.103  19.256  19.787  0.00  0.00    -0.026 A 
ATOM      5  C   UNL     1      41.813  20.481  19.172  0.00  0.00    -0.124 A 
ATOM      8  C   UNL     1      42.775  21.498  19.158  0.00  0.00    -0.036 A 
ATOM      9  C   UNL     1      44.005  21.291  19.751  0.00  0.00    +0.128 A 
ATOM     12  C   UNL     1      44.289  20.073  20.366  0.00  0.00    +0.075 A 
ENDROOT
BRANCH   3   2
ATOM      1  C   UNL     1      42.892  17.550  22.163  0.00  0.00    +0.248 C 
ATOM      2  O   UNL     1      43.619  17.868  20.974  0.00  0.00    -0.302 OA
ENDBRANCH   3   2
BRANCH   5   6
ATOM      6  C   UNL     1      40.503  20.697  18.544  0.00  0.00    +0.495 C 
ATOM      7  O   UNL     1      39.873  21.705  18.788  0.00  0.00    -0.451 OA
ENDBRANCH   5   6
BRANCH   9  10
ATOM     10  O   UNL     1      44.940  22.279  19.738  0.00  0.00    -0.302 OA
ATOM     11  C   UNL     1      44.478  23.606  19.476  0.00  0.00    +0.247 C 
ENDBRANCH   9  10
BRANCH  12  13
ATOM     13  O   UNL     1      45.498  19.875  20.952  0.00  0.00    -0.471 OA
ATOM     14  H   UNL     1      46.188  19.583  20.341  0.00  0.00    +0.389 HD
ENDBRANCH  12  13
TORSDOF 4
ENDMDL
MODEL 7
REMARK VINA RESULT:      -3.8     20.563     21.683
REMARK  Name = ZINC00152926
REMARK  6 active torsions:
REMARK  status: ('A' for Active; 'I' for Inactive)
REMARK    1  A    between atoms: C1_1  and  O1_2
REMARK    2  A    between atoms: O1_2  and  C2_3
REMARK    3  A    between atoms: C4_5  and  C9_12
REMARK    4  A    between atoms: C6_7  and  O3_10
REMARK    5  A    between atoms: C7_8  and  O2_9
REMARK    6  A    between atoms: O3_10  and  C8_11
REMARK                            x       y       z     vdW  Elec       q    Type
REMARK                         _______ _______ _______ _____ _____    ______ ____
ROOT
ATOM      3  C   UNL     1      52.189  33.724   5.817  0.00  0.00    +0.128 A 
ATOM      4  C   UNL     1      53.527  33.410   5.673  0.00  0.00    -0.026 A 
ATOM      5  C   UNL     1      53.988  32.857   4.472  0.00  0.00    -0.124 A 
ATOM      8  C   UNL     1      53.092  32.626   3.422  0.00  0.00    -0.036 A 
ATOM      9  C   UNL     1      51.756  32.943   3.574  0.00  0.00    +0.128 A 
ATOM     12  C   UNL     1      51.299  33.488   4.772  0.00  0.00    +0.075 A 
ENDROOT
BRANCH   3   2
ATOM      1  C   UNL     1      52.442  35.400   7.486  0.00  0.00    +0.248 C 
ATOM      2  O   UNL     1      51.739  34.262   6.983  0.00  0.00    -0.302 OA
ENDBRANCH   3   2
BRANCH   5   6
ATOM      6  C   UNL     1      55.409  32.520   4.316  0.00  0.00    +0.495 C 
ATOM      7  O   UNL     1      55.758  31.753   3.443  0.00  0.00    -0.451 OA
ENDBRANCH   5   6
BRANCH   9  10
ATOM     10  O   UNL     1      50.885  32.719   2.554  0.00  0.00    -0.302 OA
ATOM     11  C   UNL     1      51.393  32.040   1.404  0.00  0.00    +0.247 C 
ENDBRANCH   9  10
BRANCH  12  13
ATOM     13  O   UNL     1      49.984  33.795   4.919  0.00  0.00    -0.471 OA
ATOM     14  H   UNL     1      49.643  34.398   4.245  0.00  0.00    +0.389 HD
ENDBRANCH  12  13
TORSDOF 4
ENDMDL
MODEL 8
REMARK VINA RESULT:      -3.7     20.842     21.273
REMARK  Name = ZINC00152926
REMARK  6 active torsions:
REMARK  status: ('A' for Active; 'I' for Inactive)
REMARK    1  A    between atoms: C1_1  and  O1_2
REMARK    2  A    between atoms: O1_2  and  C2_3
REMARK    3  A    between atoms: C4_5  and  C9_12
REMARK    4  A    between atoms: C6_7  and  O3_10
REMARK    5  A    between atoms: C7_8  and  O2_9
REMARK    6  A    between atoms: O3_10  and  C8_11
REMARK                            x       y       z     vdW  Elec       q    Type
REMARK                         _______ _______ _______ _____ _____    ______ ____
ROOT
ATOM      3  C   UNL     1      41.511  33.306   1.898  0.00  0.00    +0.128 A 
ATOM      4  C   UNL     1      41.583  32.048   1.332  0.00  0.00    -0.026 A 
ATOM      5  C   UNL     1      42.809  31.371   1.289  0.00  0.00    -0.124 A 
ATOM      8  C   UNL     1      43.956  31.974   1.820  0.00  0.00    -0.036 A 
ATOM      9  C   UNL     1      43.875  33.232   2.383  0.00  0.00    +0.128 A 
ATOM     12  C   UNL     1      42.655  33.904   2.420  0.00  0.00    +0.075 A 
ENDROOT
BRANCH   3   2
ATOM      1  C   UNL     1      39.737  34.330   0.689  0.00  0.00    +0.248 C 
ATOM      2  O   UNL     1      40.321  33.964   1.941  0.00  0.00    -0.302 OA
ENDBRANCH   3   2
BRANCH   5   6
ATOM      6  C   UNL     1      42.890  30.034   0.688  0.00  0.00    +0.495 C 
ATOM      7  O   UNL     1      42.210  29.761  -0.279  0.00  0.00    -0.451 OA
ENDBRANCH   5   6
BRANCH   9  10
ATOM     10  O   UNL     1      44.989  33.818   2.899  0.00  0.00    -0.302 OA
ATOM     11  C   UNL     1      45.823  34.540   1.989  0.00  0.00    +0.247 C 
ENDBRANCH   9  10
BRANCH  12  13
ATOM     13  O   UNL     1      42.581  35.144   2.971  0.00  0.00    -0.471 OA
ATOM     14  H   UNL     1      42.751  35.162   3.922  0.00  0.00    +0.389 HD
ENDBRANCH  12  13
TORSDOF 4
ENDMDL
MODEL 9
REMARK VINA RESULT:      -3.7     20.546     21.465
REMARK  Name = ZINC00152926
REMARK  6 active torsions:
REMARK  status: ('A' for Active; 'I' for Inactive)
REMARK    1  A    between atoms: C1_1  and  O1_2
REMARK    2  A    between atoms: O1_2  and  C2_3
REMARK    3  A    between atoms: C4_5  and  C9_12
REMARK    4  A    between atoms: C6_7  and  O3_10
REMARK    5  A    between atoms: C7_8  and  O2_9
REMARK    6  A    between atoms: O3_10  and  C8_11
REMARK                            x       y       z     vdW  Elec       q    Type
REMARK                         _______ _______ _______ _____ _____    ______ ____
ROOT
ATOM      3  C   UNL     1      51.732  32.959   3.612  0.00  0.00    +0.128 A 
ATOM      4  C   UNL     1      53.055  32.599   3.446  0.00  0.00    -0.026 A 
ATOM      5  C   UNL     1      53.968  32.796   4.490  0.00  0.00    -0.124 A 
ATOM      8  C   UNL     1      53.534  33.355   5.698  0.00  0.00    -0.036 A 
ATOM      9  C   UNL     1      52.210  33.712   5.855  0.00  0.00    +0.128 A 
ATOM     12  C   UNL     1      51.305  33.521   4.813  0.00  0.00    +0.075 A 
ENDROOT
BRANCH   3   2
ATOM      1  C   UNL     1      51.323  32.092   1.435  0.00  0.00    +0.248 C 
ATOM      2  O   UNL     1      50.844  32.768   2.599  0.00  0.00    -0.302 OA
ENDBRANCH   3   2
BRANCH   5   6
ATOM      6  C   UNL     1      55.376  32.415   4.317  0.00  0.00    +0.495 C 
ATOM      7  O   UNL     1      56.221  32.865   5.063  0.00  0.00    -0.451 OA
ENDBRANCH   5   6
BRANCH   9  10
ATOM     10  O   UNL     1      51.788  34.256   7.029  0.00  0.00    -0.302 OA
ATOM     11  C   UNL     1      52.499  35.401   7.505  0.00  0.00    +0.247 C 
ENDBRANCH   9  10
BRANCH  12  13
ATOM     13  O   UNL     1      50.004  33.877   4.970  0.00  0.00    -0.471 OA
ATOM     14  H   UNL     1      49.377  33.277   4.545  0.00  0.00    +0.389 HD
ENDBRANCH  12  13
TORSDOF 4
ENDMDL
