MODEL 1
REMARK VINA RESULT:      -7.0      0.000      0.000
REMARK  Name = ZINC03978503
REMARK  11 active torsions:
REMARK  status: ('A' for Active; 'I' for Inactive)
REMARK    1  A    between atoms: C3_3  and  O10_34
REMARK    2  A    between atoms: C4_4  and  O9_33
REMARK    3  A    between atoms: C6_6  and  C7_7
REMARK    4  A    between atoms: C8_9  and  O4_21
REMARK    5  A    between atoms: C11_13  and  O3_20
REMARK    6  A    between atoms: C13_15  and  O2_19
REMARK    7  A    between atoms: O4_21  and  C16_22
REMARK    8  A    between atoms: C16_22  and  C17_24
REMARK    9  A    between atoms: C19_26  and  O8_32
REMARK   10  A    between atoms: C20_27  and  O7_31
REMARK   11  A    between atoms: C21_28  and  O6_30
REMARK                            x       y       z     vdW  Elec       q    Type
REMARK                         _______ _______ _______ _____ _____    ______ ____
ROOT
ATOM     11  C   UNL     1      46.515  18.607  20.611  0.00  0.00    +0.253 C 
ATOM     12  C   UNL     1      48.037  18.777  20.678  0.00  0.00    +0.172 C 
ATOM     28  C   UNL     1      48.685  17.424  20.375  0.00  0.00    +0.107 C 
ATOM     29  C   UNL     1      48.062  16.827  19.139  0.00  0.00    -0.193 A 
ATOM     30  C   UNL     1      48.737  15.809  18.476  0.00  0.00    +0.162 A 
ATOM     33  C   UNL     1      48.193  15.236  17.337  0.00  0.00    -0.061 A 
ATOM     34  C   UNL     1      46.969  15.679  16.859  0.00  0.00    +0.159 A 
ATOM     37  C   UNL     1      46.297  16.695  17.518  0.00  0.00    -0.040 A 
ATOM     38  C   UNL     1      46.843  17.274  18.659  0.00  0.00    +0.170 A 
ATOM     39  O   UNL     1      46.156  18.274  19.269  0.00  0.00    -0.292 OA
ENDROOT
BRANCH  11  10
ATOM      1  C   UNL     1      46.267  20.577  22.135  0.00  0.00    +0.068 A 
ATOM      2  C   UNL     1      45.653  21.760  22.505  0.00  0.00    +0.004 A 
ATOM      3  C   UNL     1      44.610  22.264  21.746  0.00  0.00    +0.092 A 
ATOM      6  C   UNL     1      44.181  21.579  20.613  0.00  0.00    +0.081 A 
ATOM      9  C   UNL     1      44.801  20.395  20.248  0.00  0.00    +0.024 A 
ATOM     10  C   UNL     1      45.842  19.896  21.009  0.00  0.00    -0.089 A 
BRANCH   3   4
ATOM      4  O   UNL     1      44.004  23.427  22.109  0.00  0.00    -0.487 OA
ATOM      5  H   UNL     1      43.639  23.929  21.367  0.00  0.00    +0.391 HD
ENDBRANCH   3   4
BRANCH   6   7
ATOM      7  O   UNL     1      43.157  22.071  19.865  0.00  0.00    -0.485 OA
ATOM      8  H   UNL     1      42.902  22.975  20.094  0.00  0.00    +0.389 HD
ENDBRANCH   6   7
ENDBRANCH  11  10
BRANCH  30  31
ATOM     31  O   UNL     1      49.936  15.374  18.945  0.00  0.00    -0.491 OA
ATOM     32  H   UNL     1      49.885  14.931  19.803  0.00  0.00    +0.395 HD
ENDBRANCH  30  31
BRANCH  34  35
ATOM     35  O   UNL     1      46.431  15.119  15.744  0.00  0.00    -0.491 OA
ATOM     36  H   UNL     1      46.298  14.163  15.809  0.00  0.00    +0.396 HD
ENDBRANCH  34  35
BRANCH  12  13
ATOM     13  O   UNL     1      48.458  19.741  19.709  0.00  0.00    -0.323 OA
BRANCH  13  14
ATOM     14  C   UNL     1      49.763  20.074  19.707  0.00  0.00    +0.514 C 
ATOM     27  O   UNL     1      50.284  20.502  20.718  0.00  0.00    -0.494 OA
BRANCH  14  15
ATOM     15  C   UNL     1      50.562  19.919  18.476  0.00  0.00    -0.102 A 
ATOM     16  C   UNL     1      50.857  21.034  17.688  0.00  0.00    +0.074 A 
ATOM     17  C   UNL     1      51.606  20.885  16.536  0.00  0.00    +0.086 A 
ATOM     20  C   UNL     1      52.067  19.626  16.160  0.00  0.00    +0.095 A 
ATOM     23  C   UNL     1      51.774  18.513  16.945  0.00  0.00    +0.088 A 
ATOM     26  C   UNL     1      51.031  18.656  18.101  0.00  0.00    +0.080 A 
BRANCH  17  18
ATOM     18  O   UNL     1      51.894  21.970  15.767  0.00  0.00    -0.478 OA
ATOM     19  H   UNL     1      52.482  22.609  16.192  0.00  0.00    +0.392 HD
ENDBRANCH  17  18
BRANCH  20  21
ATOM     21  O   UNL     1      52.803  19.482  15.028  0.00  0.00    -0.472 OA
ATOM     22  H   UNL     1      52.275  19.410  14.221  0.00  0.00    +0.392 HD
ENDBRANCH  20  21
BRANCH  23  24
ATOM     24  O   UNL     1      52.225  17.284  16.575  0.00  0.00    -0.478 OA
ATOM     25  H   UNL     1      52.552  17.243  15.666  0.00  0.00    +0.393 HD
ENDBRANCH  23  24
ENDBRANCH  14  15
ENDBRANCH  13  14
ENDBRANCH  12  13
TORSDOF 11
ENDMDL
MODEL 2
REMARK VINA RESULT:      -6.9      0.071      1.468
REMARK  Name = ZINC03978503
REMARK  11 active torsions:
REMARK  status: ('A' for Active; 'I' for Inactive)
REMARK    1  A    between atoms: C3_3  and  O10_34
REMARK    2  A    between atoms: C4_4  and  O9_33
REMARK    3  A    between atoms: C6_6  and  C7_7
REMARK    4  A    between atoms: C8_9  and  O4_21
REMARK    5  A    between atoms: C11_13  and  O3_20
REMARK    6  A    between atoms: C13_15  and  O2_19
REMARK    7  A    between atoms: O4_21  and  C16_22
REMARK    8  A    between atoms: C16_22  and  C17_24
REMARK    9  A    between atoms: C19_26  and  O8_32
REMARK   10  A    between atoms: C20_27  and  O7_31
REMARK   11  A    between atoms: C21_28  and  O6_30
REMARK                            x       y       z     vdW  Elec       q    Type
REMARK                         _______ _______ _______ _____ _____    ______ ____
ROOT
ATOM     11  C   UNL     1      46.556  18.604  20.629  0.00  0.00    +0.253 C 
ATOM     12  C   UNL     1      48.079  18.754  20.716  0.00  0.00    +0.172 C 
ATOM     28  C   UNL     1      48.713  17.393  20.414  0.00  0.00    +0.107 C 
ATOM     29  C   UNL     1      48.098  16.812  19.167  0.00  0.00    -0.193 A 
ATOM     30  C   UNL     1      48.768  15.788  18.507  0.00  0.00    +0.162 A 
ATOM     33  C   UNL     1      48.230  15.228  17.359  0.00  0.00    -0.061 A 
ATOM     34  C   UNL     1      47.018  15.690  16.868  0.00  0.00    +0.159 A 
ATOM     37  C   UNL     1      46.351  16.710  17.524  0.00  0.00    -0.040 A 
ATOM     38  C   UNL     1      46.891  17.276  18.675  0.00  0.00    +0.170 A 
ATOM     39  O   UNL     1      46.209  18.282  19.281  0.00  0.00    -0.292 OA
ENDROOT
BRANCH  11  10
ATOM      1  C   UNL     1      46.352  20.597  22.129  0.00  0.00    +0.068 A 
ATOM      2  C   UNL     1      45.749  21.786  22.498  0.00  0.00    +0.004 A 
ATOM      3  C   UNL     1      44.685  22.280  21.760  0.00  0.00    +0.092 A 
ATOM      6  C   UNL     1      44.226  21.579  20.651  0.00  0.00    +0.081 A 
ATOM      9  C   UNL     1      44.834  20.388  20.287  0.00  0.00    +0.024 A 
ATOM     10  C   UNL     1      45.895  19.900  21.027  0.00  0.00    -0.089 A 
BRANCH   3   4
ATOM      4  O   UNL     1      44.091  23.450  22.122  0.00  0.00    -0.487 OA
ATOM      5  H   UNL     1      44.691  24.208  22.134  0.00  0.00    +0.391 HD
ENDBRANCH   3   4
BRANCH   6   7
ATOM      7  O   UNL     1      43.181  22.060  19.924  0.00  0.00    -0.485 OA
ATOM      8  H   UNL     1      43.053  23.015  20.004  0.00  0.00    +0.389 HD
ENDBRANCH   6   7
ENDBRANCH  11  10
BRANCH  30  31
ATOM     31  O   UNL     1      49.954  15.334  18.988  0.00  0.00    -0.491 OA
ATOM     32  H   UNL     1      50.700  15.469  18.387  0.00  0.00    +0.395 HD
ENDBRANCH  30  31
BRANCH  34  35
ATOM     35  O   UNL     1      46.486  15.142  15.743  0.00  0.00    -0.491 OA
ATOM     36  H   UNL     1      47.143  14.896  15.077  0.00  0.00    +0.396 HD
ENDBRANCH  34  35
BRANCH  12  13
ATOM     13  O   UNL     1      48.525  19.716  19.758  0.00  0.00    -0.323 OA
BRANCH  13  14
ATOM     14  C   UNL     1      49.841  20.004  19.747  0.00  0.00    +0.514 C 
ATOM     27  O   UNL     1      50.394  20.364  20.768  0.00  0.00    -0.494 OA
BRANCH  14  15
ATOM     15  C   UNL     1      50.613  19.880  18.496  0.00  0.00    -0.102 A 
ATOM     16  C   UNL     1      51.074  18.629  18.079  0.00  0.00    +0.074 A 
ATOM     17  C   UNL     1      51.797  18.515  16.907  0.00  0.00    +0.086 A 
ATOM     20  C   UNL     1      52.065  19.647  16.140  0.00  0.00    +0.095 A 
ATOM     23  C   UNL     1      51.605  20.895  16.553  0.00  0.00    +0.088 A 
ATOM     26  C   UNL     1      50.877  21.014  17.722  0.00  0.00    +0.080 A 
BRANCH  17  18
ATOM     18  O   UNL     1      52.247  17.298  16.501  0.00  0.00    -0.478 OA
ATOM     19  H   UNL     1      53.145  17.092  16.793  0.00  0.00    +0.392 HD
ENDBRANCH  17  18
BRANCH  20  21
ATOM     21  O   UNL     1      52.775  19.533  14.988  0.00  0.00    -0.472 OA
ATOM     22  H   UNL     1      53.506  20.160  14.911  0.00  0.00    +0.392 HD
ENDBRANCH  20  21
BRANCH  23  24
ATOM     24  O   UNL     1      51.869  21.998  15.802  0.00  0.00    -0.478 OA
ATOM     25  H   UNL     1      52.588  21.877  15.166  0.00  0.00    +0.393 HD
ENDBRANCH  23  24
ENDBRANCH  14  15
ENDBRANCH  13  14
ENDBRANCH  12  13
TORSDOF 11
ENDMDL
MODEL 3
REMARK VINA RESULT:      -6.9      1.733      7.379
REMARK  Name = ZINC03978503
REMARK  11 active torsions:
REMARK  status: ('A' for Active; 'I' for Inactive)
REMARK    1  A    between atoms: C3_3  and  O10_34
REMARK    2  A    between atoms: C4_4  and  O9_33
REMARK    3  A    between atoms: C6_6  and  C7_7
REMARK    4  A    between atoms: C8_9  and  O4_21
REMARK    5  A    between atoms: C11_13  and  O3_20
REMARK    6  A    between atoms: C13_15  and  O2_19
REMARK    7  A    between atoms: O4_21  and  C16_22
REMARK    8  A    between atoms: C16_22  and  C17_24
REMARK    9  A    between atoms: C19_26  and  O8_32
REMARK   10  A    between atoms: C20_27  and  O7_31
REMARK   11  A    between atoms: C21_28  and  O6_30
REMARK                            x       y       z     vdW  Elec       q    Type
REMARK                         _______ _______ _______ _____ _____    ______ ____
ROOT
ATOM     11  C   UNL     1      49.261  16.206  18.379  0.00  0.00    +0.253 C 
ATOM     12  C   UNL     1      48.325  17.148  19.143  0.00  0.00    +0.172 C 
ATOM     28  C   UNL     1      49.148  18.334  19.652  0.00  0.00    +0.107 C 
ATOM     29  C   UNL     1      49.996  18.883  18.533  0.00  0.00    -0.193 A 
ATOM     30  C   UNL     1      50.523  20.163  18.659  0.00  0.00    +0.162 A 
ATOM     33  C   UNL     1      51.308  20.698  17.651  0.00  0.00    -0.061 A 
ATOM     34  C   UNL     1      51.570  19.952  16.511  0.00  0.00    +0.159 A 
ATOM     37  C   UNL     1      51.044  18.678  16.384  0.00  0.00    -0.040 A 
ATOM     38  C   UNL     1      50.253  18.141  17.394  0.00  0.00    +0.170 A 
ATOM     39  O   UNL     1      49.748  16.891  17.223  0.00  0.00    -0.292 OA
ENDROOT
BRANCH  11  10
ATOM      1  C   UNL     1      48.081  14.063  18.905  0.00  0.00    +0.068 A 
ATOM      2  C   UNL     1      47.386  12.930  18.521  0.00  0.00    +0.004 A 
ATOM      3  C   UNL     1      47.114  12.706  17.181  0.00  0.00    +0.092 A 
ATOM      6  C   UNL     1      47.541  13.622  16.225  0.00  0.00    +0.081 A 
ATOM      9  C   UNL     1      48.236  14.754  16.616  0.00  0.00    +0.024 A 
ATOM     10  C   UNL     1      48.505  14.973  17.955  0.00  0.00    -0.089 A 
BRANCH   3   4
ATOM      4  O   UNL     1      46.432  11.592  16.802  0.00  0.00    -0.487 OA
ATOM      5  H   UNL     1      46.966  10.786  16.797  0.00  0.00    +0.391 HD
ENDBRANCH   3   4
BRANCH   6   7
ATOM      7  O   UNL     1      47.277  13.406  14.908  0.00  0.00    -0.485 OA
ATOM      8  H   UNL     1      47.973  13.713  14.311  0.00  0.00    +0.389 HD
ENDBRANCH   6   7
ENDBRANCH  11  10
BRANCH  30  31
ATOM     31  O   UNL     1      50.267  20.893  19.776  0.00  0.00    -0.491 OA
ATOM     32  H   UNL     1      49.749  20.422  20.444  0.00  0.00    +0.395 HD
ENDBRANCH  30  31
BRANCH  34  35
ATOM     35  O   UNL     1      52.341  20.472  15.521  0.00  0.00    -0.491 OA
ATOM     36  H   UNL     1      51.855  21.021  14.890  0.00  0.00    +0.396 HD
ENDBRANCH  34  35
BRANCH  12  13
ATOM     13  O   UNL     1      47.294  17.617  18.271  0.00  0.00    -0.323 OA
BRANCH  13  14
ATOM     14  C   UNL     1      46.024  17.502  18.707  0.00  0.00    +0.514 C 
ATOM     27  O   UNL     1      45.511  16.405  18.804  0.00  0.00    -0.494 OA
BRANCH  14  15
ATOM     15  C   UNL     1      45.257  18.709  19.069  0.00  0.00    -0.102 A 
ATOM     16  C   UNL     1      45.670  19.964  18.613  0.00  0.00    +0.074 A 
ATOM     17  C   UNL     1      44.949  21.093  18.954  0.00  0.00    +0.086 A 
ATOM     20  C   UNL     1      43.812  20.981  19.751  0.00  0.00    +0.095 A 
ATOM     23  C   UNL     1      43.400  19.731  20.206  0.00  0.00    +0.088 A 
ATOM     26  C   UNL     1      44.112  18.598  19.863  0.00  0.00    +0.080 A 
BRANCH  17  18
ATOM     18  O   UNL     1      45.350  22.315  18.511  0.00  0.00    -0.478 OA
ATOM     19  H   UNL     1      44.639  22.968  18.460  0.00  0.00    +0.392 HD
ENDBRANCH  17  18
BRANCH  20  21
ATOM     21  O   UNL     1      43.106  22.092  20.084  0.00  0.00    -0.472 OA
ATOM     22  H   UNL     1      42.322  22.239  19.538  0.00  0.00    +0.392 HD
ENDBRANCH  20  21
BRANCH  23  24
ATOM     24  O   UNL     1      42.289  19.625  20.985  0.00  0.00    -0.478 OA
ATOM     25  H   UNL     1      41.458  19.647  20.489  0.00  0.00    +0.393 HD
ENDBRANCH  23  24
ENDBRANCH  14  15
ENDBRANCH  13  14
ENDBRANCH  12  13
TORSDOF 11
ENDMDL
MODEL 4
REMARK VINA RESULT:      -6.8      2.060      6.381
REMARK  Name = ZINC03978503
REMARK  11 active torsions:
REMARK  status: ('A' for Active; 'I' for Inactive)
REMARK    1  A    between atoms: C3_3  and  O10_34
REMARK    2  A    between atoms: C4_4  and  O9_33
REMARK    3  A    between atoms: C6_6  and  C7_7
REMARK    4  A    between atoms: C8_9  and  O4_21
REMARK    5  A    between atoms: C11_13  and  O3_20
REMARK    6  A    between atoms: C13_15  and  O2_19
REMARK    7  A    between atoms: O4_21  and  C16_22
REMARK    8  A    between atoms: C16_22  and  C17_24
REMARK    9  A    between atoms: C19_26  and  O8_32
REMARK   10  A    between atoms: C20_27  and  O7_31
REMARK   11  A    between atoms: C21_28  and  O6_30
REMARK                            x       y       z     vdW  Elec       q    Type
REMARK                         _______ _______ _______ _____ _____    ______ ____
ROOT
ATOM     11  C   UNL     1      48.939  18.512  20.581  0.00  0.00    +0.253 C 
ATOM     12  C   UNL     1      48.887  20.012  20.891  0.00  0.00    +0.172 C 
ATOM     28  C   UNL     1      50.277  20.603  20.637  0.00  0.00    +0.107 C 
ATOM     29  C   UNL     1      50.786  20.143  19.295  0.00  0.00    -0.193 A 
ATOM     30  C   UNL     1      51.832  20.841  18.703  0.00  0.00    +0.162 A 
ATOM     33  C   UNL     1      52.328  20.446  17.471  0.00  0.00    -0.061 A 
ATOM     34  C   UNL     1      51.778  19.347  16.827  0.00  0.00    +0.159 A 
ATOM     37  C   UNL     1      50.735  18.653  17.415  0.00  0.00    -0.040 A 
ATOM     38  C   UNL     1      50.234  19.051  18.650  0.00  0.00    +0.170 A 
ATOM     39  O   UNL     1      49.203  18.347  19.187  0.00  0.00    -0.292 OA
ENDROOT
BRANCH  11  10
ATOM      1  C   UNL     1      47.077  18.043  22.186  0.00  0.00    +0.068 A 
ATOM      2  C   UNL     1      45.862  17.462  22.505  0.00  0.00    +0.004 A 
ATOM      3  C   UNL     1      45.183  16.713  21.558  0.00  0.00    +0.092 A 
ATOM      6  C   UNL     1      45.725  16.547  20.287  0.00  0.00    +0.081 A 
ATOM      9  C   UNL     1      46.941  17.131  19.974  0.00  0.00    +0.024 A 
ATOM     10  C   UNL     1      47.615  17.877  20.923  0.00  0.00    -0.089 A 
BRANCH   3   4
ATOM      4  O   UNL     1      43.989  16.141  21.870  0.00  0.00    -0.487 OA
ATOM      5  H   UNL     1      43.929  15.205  21.637  0.00  0.00    +0.391 HD
ENDBRANCH   3   4
BRANCH   6   7
ATOM      7  O   UNL     1      45.062  15.812  19.354  0.00  0.00    -0.485 OA
ATOM      8  H   UNL     1      44.206  15.476  19.653  0.00  0.00    +0.389 HD
ENDBRANCH   6   7
ENDBRANCH  11  10
BRANCH  30  31
ATOM     31  O   UNL     1      52.372  21.917  19.335  0.00  0.00    -0.491 OA
ATOM     32  H   UNL     1      53.037  22.387  18.813  0.00  0.00    +0.395 HD
ENDBRANCH  30  31
BRANCH  34  35
ATOM     35  O   UNL     1      52.262  18.954  15.619  0.00  0.00    -0.491 OA
ATOM     36  H   UNL     1      51.577  18.757  14.966  0.00  0.00    +0.396 HD
ENDBRANCH  34  35
BRANCH  12  13
ATOM     13  O   UNL     1      47.930  20.649  20.041  0.00  0.00    -0.323 OA
BRANCH  13  14
ATOM     14  C   UNL     1      47.068  21.504  20.624  0.00  0.00    +0.514 C 
ATOM     27  O   UNL     1      47.464  22.292  21.460  0.00  0.00    -0.494 OA
BRANCH  14  15
ATOM     15  C   UNL     1      45.642  21.486  20.246  0.00  0.00    -0.102 A 
ATOM     16  C   UNL     1      44.931  20.284  20.253  0.00  0.00    +0.074 A 
ATOM     17  C   UNL     1      43.595  20.269  19.899  0.00  0.00    +0.086 A 
ATOM     20  C   UNL     1      42.958  21.453  19.534  0.00  0.00    +0.095 A 
ATOM     23  C   UNL     1      43.665  22.653  19.527  0.00  0.00    +0.088 A 
ATOM     26  C   UNL     1      44.999  22.674  19.886  0.00  0.00    +0.080 A 
BRANCH  17  18
ATOM     18  O   UNL     1      42.902  19.099  19.906  0.00  0.00    -0.478 OA
ATOM     19  H   UNL     1      43.454  18.316  20.036  0.00  0.00    +0.392 HD
ENDBRANCH  17  18
BRANCH  20  21
ATOM     21  O   UNL     1      41.645  21.436  19.187  0.00  0.00    -0.472 OA
ATOM     22  H   UNL     1      41.445  21.930  18.380  0.00  0.00    +0.392 HD
ENDBRANCH  20  21
BRANCH  23  24
ATOM     24  O   UNL     1      43.039  23.807  19.169  0.00  0.00    -0.478 OA
ATOM     25  H   UNL     1      43.076  23.996  18.221  0.00  0.00    +0.393 HD
ENDBRANCH  23  24
ENDBRANCH  14  15
ENDBRANCH  13  14
ENDBRANCH  12  13
TORSDOF 11
ENDMDL
MODEL 5
REMARK VINA RESULT:      -6.7      1.610      7.092
REMARK  Name = ZINC03978503
REMARK  11 active torsions:
REMARK  status: ('A' for Active; 'I' for Inactive)
REMARK    1  A    between atoms: C3_3  and  O10_34
REMARK    2  A    between atoms: C4_4  and  O9_33
REMARK    3  A    between atoms: C6_6  and  C7_7
REMARK    4  A    between atoms: C8_9  and  O4_21
REMARK    5  A    between atoms: C11_13  and  O3_20
REMARK    6  A    between atoms: C13_15  and  O2_19
REMARK    7  A    between atoms: O4_21  and  C16_22
REMARK    8  A    between atoms: C16_22  and  C17_24
REMARK    9  A    between atoms: C19_26  and  O8_32
REMARK   10  A    between atoms: C20_27  and  O7_31
REMARK   11  A    between atoms: C21_28  and  O6_30
REMARK                            x       y       z     vdW  Elec       q    Type
REMARK                         _______ _______ _______ _____ _____    ______ ____
ROOT
ATOM     11  C   UNL     1      48.888  19.899  19.781  0.00  0.00    +0.253 C 
ATOM     12  C   UNL     1      47.952  18.702  19.571  0.00  0.00    +0.172 C 
ATOM     28  C   UNL     1      47.023  18.602  20.784  0.00  0.00    +0.107 C 
ATOM     29  C   UNL     1      46.434  19.956  21.087  0.00  0.00    -0.193 A 
ATOM     30  C   UNL     1      45.299  20.028  21.886  0.00  0.00    +0.162 A 
ATOM     33  C   UNL     1      44.733  21.256  22.188  0.00  0.00    -0.061 A 
ATOM     34  C   UNL     1      45.302  22.419  21.691  0.00  0.00    +0.159 A 
ATOM     37  C   UNL     1      46.432  22.348  20.893  0.00  0.00    -0.040 A 
ATOM     38  C   UNL     1      46.999  21.116  20.587  0.00  0.00    +0.170 A 
ATOM     39  O   UNL     1      48.101  21.091  19.793  0.00  0.00    -0.292 OA
ENDROOT
BRANCH  11  10
ATOM      1  C   UNL     1      50.277  21.188  18.147  0.00  0.00    +0.068 A 
ATOM      2  C   UNL     1      51.194  21.252  17.113  0.00  0.00    +0.004 A 
ATOM      3  C   UNL     1      51.725  20.086  16.587  0.00  0.00    +0.092 A 
ATOM      6  C   UNL     1      51.334  18.853  17.098  0.00  0.00    +0.081 A 
ATOM      9  C   UNL     1      50.415  18.796  18.133  0.00  0.00    +0.024 A 
ATOM     10  C   UNL     1      49.888  19.963  18.655  0.00  0.00    -0.089 A 
BRANCH   3   4
ATOM      4  O   UNL     1      52.628  20.147  15.570  0.00  0.00    -0.487 OA
ATOM      5  H   UNL     1      52.281  20.547  14.761  0.00  0.00    +0.391 HD
ENDBRANCH   3   4
BRANCH   6   7
ATOM      7  O   UNL     1      51.853  17.705  16.584  0.00  0.00    -0.485 OA
ATOM      8  H   UNL     1      52.733  17.810  16.196  0.00  0.00    +0.389 HD
ENDBRANCH   6   7
ENDBRANCH  11  10
BRANCH  30  31
ATOM     31  O   UNL     1      44.742  18.889  22.374  0.00  0.00    -0.491 OA
ATOM     32  H   UNL     1      43.781  18.844  22.268  0.00  0.00    +0.395 HD
ENDBRANCH  30  31
BRANCH  34  35
ATOM     35  O   UNL     1      44.751  23.626  21.985  0.00  0.00    -0.491 OA
ATOM     36  H   UNL     1      44.759  24.252  21.247  0.00  0.00    +0.396 HD
ENDBRANCH  34  35
BRANCH  12  13
ATOM     13  O   UNL     1      47.177  18.897  18.386  0.00  0.00    -0.323 OA
BRANCH  13  14
ATOM     14  C   UNL     1      46.054  18.163  18.262  0.00  0.00    +0.514 C 
ATOM     27  O   UNL     1      44.966  18.701  18.322  0.00  0.00    -0.494 OA
BRANCH  14  15
ATOM     15  C   UNL     1      46.145  16.706  18.051  0.00  0.00    -0.102 A 
ATOM     16  C   UNL     1      45.728  15.826  19.053  0.00  0.00    +0.074 A 
ATOM     17  C   UNL     1      45.814  14.462  18.853  0.00  0.00    +0.086 A 
ATOM     20  C   UNL     1      46.315  13.963  17.653  0.00  0.00    +0.095 A 
ATOM     23  C   UNL     1      46.731  14.838  16.653  0.00  0.00    +0.088 A 
ATOM     26  C   UNL     1      46.642  16.203  16.845  0.00  0.00    +0.080 A 
BRANCH  17  18
ATOM     18  O   UNL     1      45.408  13.605  19.828  0.00  0.00    -0.478 OA
ATOM     19  H   UNL     1      44.632  13.906  20.319  0.00  0.00    +0.392 HD
ENDBRANCH  17  18
BRANCH  20  21
ATOM     21  O   UNL     1      46.398  12.621  17.458  0.00  0.00    -0.472 OA
ATOM     22  H   UNL     1      45.560  12.153  17.573  0.00  0.00    +0.392 HD
ENDBRANCH  20  21
BRANCH  23  24
ATOM     24  O   UNL     1      47.221  14.348  15.482  0.00  0.00    -0.478 OA
ATOM     25  H   UNL     1      46.639  13.707  15.050  0.00  0.00    +0.393 HD
ENDBRANCH  23  24
ENDBRANCH  14  15
ENDBRANCH  13  14
ENDBRANCH  12  13
TORSDOF 11
ENDMDL
MODEL 6
REMARK VINA RESULT:      -6.7      2.062      6.372
REMARK  Name = ZINC03978503
REMARK  11 active torsions:
REMARK  status: ('A' for Active; 'I' for Inactive)
REMARK    1  A    between atoms: C3_3  and  O10_34
REMARK    2  A    between atoms: C4_4  and  O9_33
REMARK    3  A    between atoms: C6_6  and  C7_7
REMARK    4  A    between atoms: C8_9  and  O4_21
REMARK    5  A    between atoms: C11_13  and  O3_20
REMARK    6  A    between atoms: C13_15  and  O2_19
REMARK    7  A    between atoms: O4_21  and  C16_22
REMARK    8  A    between atoms: C16_22  and  C17_24
REMARK    9  A    between atoms: C19_26  and  O8_32
REMARK   10  A    between atoms: C20_27  and  O7_31
REMARK   11  A    between atoms: C21_28  and  O6_30
REMARK                            x       y       z     vdW  Elec       q    Type
REMARK                         _______ _______ _______ _____ _____    ______ ____
ROOT
ATOM     11  C   UNL     1      47.884  20.152  20.547  0.00  0.00    +0.253 C 
ATOM     12  C   UNL     1      47.657  18.637  20.490  0.00  0.00    +0.172 C 
ATOM     28  C   UNL     1      46.271  18.337  21.069  0.00  0.00    +0.107 C 
ATOM     29  C   UNL     1      45.252  19.261  20.452  0.00  0.00    -0.193 A 
ATOM     30  C   UNL     1      43.906  18.924  20.541  0.00  0.00    +0.162 A 
ATOM     33  C   UNL     1      42.941  19.751  19.988  0.00  0.00    -0.061 A 
ATOM     34  C   UNL     1      43.321  20.919  19.343  0.00  0.00    +0.159 A 
ATOM     37  C   UNL     1      44.661  21.253  19.253  0.00  0.00    -0.040 A 
ATOM     38  C   UNL     1      45.631  20.423  19.805  0.00  0.00    +0.170 A 
ATOM     39  O   UNL     1      46.935  20.784  19.685  0.00  0.00    -0.292 OA
ENDROOT
BRANCH  11  10
ATOM      1  C   UNL     1      50.327  20.463  20.987  0.00  0.00    +0.068 A 
ATOM      2  C   UNL     1      51.612  20.757  20.566  0.00  0.00    +0.004 A 
ATOM      3  C   UNL     1      51.852  21.062  19.237  0.00  0.00    +0.092 A 
ATOM      6  C   UNL     1      50.799  21.072  18.327  0.00  0.00    +0.081 A 
ATOM      9  C   UNL     1      49.515  20.777  18.754  0.00  0.00    +0.024 A 
ATOM     10  C   UNL     1      49.282  20.473  20.083  0.00  0.00    -0.089 A 
BRANCH   3   4
ATOM      4  O   UNL     1      53.115  21.352  18.822  0.00  0.00    -0.487 OA
ATOM      5  H   UNL     1      53.804  21.090  19.447  0.00  0.00    +0.391 HD
ENDBRANCH   3   4
BRANCH   6   7
ATOM      7  O   UNL     1      51.030  21.371  17.020  0.00  0.00    -0.485 OA
ATOM      8  H   UNL     1      51.967  21.449  16.794  0.00  0.00    +0.389 HD
ENDBRANCH   6   7
ENDBRANCH  11  10
BRANCH  30  31
ATOM     31  O   UNL     1      43.534  17.780  21.173  0.00  0.00    -0.491 OA
ATOM     32  H   UNL     1      43.231  17.082  20.577  0.00  0.00    +0.395 HD
ENDBRANCH  30  31
BRANCH  34  35
ATOM     35  O   UNL     1      42.378  21.733  18.801  0.00  0.00    -0.491 OA
ATOM     36  H   UNL     1      41.580  21.825  19.339  0.00  0.00    +0.396 HD
ENDBRANCH  34  35
BRANCH  12  13
ATOM     13  O   UNL     1      47.719  18.189  19.134  0.00  0.00    -0.323 OA
BRANCH  13  14
ATOM     14  C   UNL     1      48.341  17.017  18.905  0.00  0.00    +0.514 C 
ATOM     27  O   UNL     1      49.521  16.892  19.168  0.00  0.00    -0.494 OA
BRANCH  14  15
ATOM     15  C   UNL     1      47.589  15.882  18.337  0.00  0.00    -0.102 A 
ATOM     16  C   UNL     1      46.574  15.272  19.079  0.00  0.00    +0.074 A 
ATOM     17  C   UNL     1      45.871  14.209  18.545  0.00  0.00    +0.086 A 
ATOM     20  C   UNL     1      46.173  13.746  17.267  0.00  0.00    +0.095 A 
ATOM     23  C   UNL     1      47.183  14.352  16.525  0.00  0.00    +0.088 A 
ATOM     26  C   UNL     1      47.885  15.419  17.051  0.00  0.00    +0.080 A 
BRANCH  17  18
ATOM     18  O   UNL     1      44.884  13.616  19.267  0.00  0.00    -0.478 OA
ATOM     19  H   UNL     1      44.082  14.149  19.352  0.00  0.00    +0.392 HD
ENDBRANCH  17  18
BRANCH  20  21
ATOM     21  O   UNL     1      45.480  12.701  16.743  0.00  0.00    -0.472 OA
ATOM     22  H   UNL     1      44.940  12.224  17.388  0.00  0.00    +0.392 HD
ENDBRANCH  20  21
BRANCH  23  24
ATOM     24  O   UNL     1      47.476  13.896  15.277  0.00  0.00    -0.478 OA
ATOM     25  H   UNL     1      47.297  12.954  15.151  0.00  0.00    +0.393 HD
ENDBRANCH  23  24
ENDBRANCH  14  15
ENDBRANCH  13  14
ENDBRANCH  12  13
TORSDOF 11
ENDMDL
MODEL 7
REMARK VINA RESULT:      -6.5      2.056      3.067
REMARK  Name = ZINC03978503
REMARK  11 active torsions:
REMARK  status: ('A' for Active; 'I' for Inactive)
REMARK    1  A    between atoms: C3_3  and  O10_34
REMARK    2  A    between atoms: C4_4  and  O9_33
REMARK    3  A    between atoms: C6_6  and  C7_7
REMARK    4  A    between atoms: C8_9  and  O4_21
REMARK    5  A    between atoms: C11_13  and  O3_20
REMARK    6  A    between atoms: C13_15  and  O2_19
REMARK    7  A    between atoms: O4_21  and  C16_22
REMARK    8  A    between atoms: C16_22  and  C17_24
REMARK    9  A    between atoms: C19_26  and  O8_32
REMARK   10  A    between atoms: C20_27  and  O7_31
REMARK   11  A    between atoms: C21_28  and  O6_30
REMARK                            x       y       z     vdW  Elec       q    Type
REMARK                         _______ _______ _______ _____ _____    ______ ____
ROOT
ATOM     11  C   UNL     1      44.566  18.739  20.684  0.00  0.00    +0.253 C 
ATOM     12  C   UNL     1      45.974  19.302  20.909  0.00  0.00    +0.172 C 
ATOM     28  C   UNL     1      46.800  18.247  21.648  0.00  0.00    +0.107 C 
ATOM     29  C   UNL     1      46.639  16.909  20.971  0.00  0.00    -0.193 A 
ATOM     30  C   UNL     1      47.572  15.912  21.233  0.00  0.00    +0.162 A 
ATOM     33  C   UNL     1      47.454  14.670  20.630  0.00  0.00    -0.061 A 
ATOM     34  C   UNL     1      46.400  14.420  19.764  0.00  0.00    +0.159 A 
ATOM     37  C   UNL     1      45.472  15.414  19.502  0.00  0.00    -0.040 A 
ATOM     38  C   UNL     1      45.591  16.663  20.104  0.00  0.00    +0.170 A 
ATOM     39  O   UNL     1      44.664  17.612  19.811  0.00  0.00    -0.292 OA
ENDROOT
BRANCH  11  10
ATOM      1  C   UNL     1      42.675  19.422  19.194  0.00  0.00    +0.068 A 
ATOM      2  C   UNL     1      41.871  20.387  18.612  0.00  0.00    +0.004 A 
ATOM      3  C   UNL     1      42.085  21.726  18.893  0.00  0.00    +0.092 A 
ATOM      6  C   UNL     1      43.108  22.099  19.758  0.00  0.00    +0.081 A 
ATOM      9  C   UNL     1      43.910  21.129  20.337  0.00  0.00    +0.024 A 
ATOM     10  C   UNL     1      43.692  19.793  20.054  0.00  0.00    -0.089 A 
BRANCH   3   4
ATOM      4  O   UNL     1      41.295  22.676  18.321  0.00  0.00    -0.487 OA
ATOM      5  H   UNL     1      41.066  22.494  17.400  0.00  0.00    +0.391 HD
ENDBRANCH   3   4
BRANCH   6   7
ATOM      7  O   UNL     1      43.321  23.414  20.036  0.00  0.00    -0.485 OA
ATOM      8  H   UNL     1      44.236  23.700  19.906  0.00  0.00    +0.389 HD
ENDBRANCH   6   7
ENDBRANCH  11  10
BRANCH  30  31
ATOM     31  O   UNL     1      48.604  16.156  22.082  0.00  0.00    -0.491 OA
ATOM     32  H   UNL     1      48.482  16.940  22.636  0.00  0.00    +0.395 HD
ENDBRANCH  30  31
BRANCH  34  35
ATOM     35  O   UNL     1      46.279  13.203  19.172  0.00  0.00    -0.491 OA
ATOM     36  H   UNL     1      47.072  12.916  18.698  0.00  0.00    +0.396 HD
ENDBRANCH  34  35
BRANCH  12  13
ATOM     13  O   UNL     1      46.583  19.596  19.650  0.00  0.00    -0.323 OA
BRANCH  13  14
ATOM     14  C   UNL     1      47.693  20.359  19.671  0.00  0.00    +0.514 C 
ATOM     27  O   UNL     1      47.701  21.405  20.290  0.00  0.00    -0.494 OA
BRANCH  14  15
ATOM     15  C   UNL     1      48.901  19.924  18.945  0.00  0.00    -0.102 A 
ATOM     16  C   UNL     1      49.015  18.602  18.506  0.00  0.00    +0.074 A 
ATOM     17  C   UNL     1      50.148  18.197  17.825  0.00  0.00    +0.086 A 
ATOM     20  C   UNL     1      51.175  19.104  17.577  0.00  0.00    +0.095 A 
ATOM     23  C   UNL     1      51.063  20.422  18.014  0.00  0.00    +0.088 A 
ATOM     26  C   UNL     1      49.930  20.835  18.689  0.00  0.00    +0.080 A 
BRANCH  17  18
ATOM     18  O   UNL     1      50.260  16.911  17.397  0.00  0.00    -0.478 OA
ATOM     19  H   UNL     1      49.415  16.492  17.183  0.00  0.00    +0.392 HD
ENDBRANCH  17  18
BRANCH  20  21
ATOM     21  O   UNL     1      52.287  18.703  16.908  0.00  0.00    -0.472 OA
ATOM     22  H   UNL     1      52.571  19.314  16.215  0.00  0.00    +0.392 HD
ENDBRANCH  20  21
BRANCH  23  24
ATOM     24  O   UNL     1      52.068  21.305  17.770  0.00  0.00    -0.478 OA
ATOM     25  H   UNL     1      51.773  22.137  17.373  0.00  0.00    +0.393 HD
ENDBRANCH  23  24
ENDBRANCH  14  15
ENDBRANCH  13  14
ENDBRANCH  12  13
TORSDOF 11
ENDMDL
MODEL 8
REMARK VINA RESULT:      -6.5      2.083      5.301
REMARK  Name = ZINC03978503
REMARK  11 active torsions:
REMARK  status: ('A' for Active; 'I' for Inactive)
REMARK    1  A    between atoms: C3_3  and  O10_34
REMARK    2  A    between atoms: C4_4  and  O9_33
REMARK    3  A    between atoms: C6_6  and  C7_7
REMARK    4  A    between atoms: C8_9  and  O4_21
REMARK    5  A    between atoms: C11_13  and  O3_20
REMARK    6  A    between atoms: C13_15  and  O2_19
REMARK    7  A    between atoms: O4_21  and  C16_22
REMARK    8  A    between atoms: C16_22  and  C17_24
REMARK    9  A    between atoms: C19_26  and  O8_32
REMARK   10  A    between atoms: C20_27  and  O7_31
REMARK   11  A    between atoms: C21_28  and  O6_30
REMARK                            x       y       z     vdW  Elec       q    Type
REMARK                         _______ _______ _______ _____ _____    ______ ____
ROOT
ATOM     11  C   UNL     1      47.780  20.218  20.616  0.00  0.00    +0.253 C 
ATOM     12  C   UNL     1      47.516  18.710  20.711  0.00  0.00    +0.172 C 
ATOM     28  C   UNL     1      46.126  18.504  21.320  0.00  0.00    +0.107 C 
ATOM     29  C   UNL     1      45.127  19.386  20.615  0.00  0.00    -0.193 A 
ATOM     30  C   UNL     1      43.774  19.092  20.739  0.00  0.00    +0.162 A 
ATOM     33  C   UNL     1      42.827  19.883  20.107  0.00  0.00    -0.061 A 
ATOM     34  C   UNL     1      43.232  20.971  19.349  0.00  0.00    +0.159 A 
ATOM     37  C   UNL     1      44.579  21.262  19.223  0.00  0.00    -0.040 A 
ATOM     38  C   UNL     1      45.531  20.468  19.854  0.00  0.00    +0.170 A 
ATOM     39  O   UNL     1      46.843  20.783  19.697  0.00  0.00    -0.292 OA
ENDROOT
BRANCH  11  10
ATOM      1  C   UNL     1      50.253  20.306  20.982  0.00  0.00    +0.068 A 
ATOM      2  C   UNL     1      51.543  20.525  20.532  0.00  0.00    +0.004 A 
ATOM      3  C   UNL     1      51.763  20.895  19.215  0.00  0.00    +0.092 A 
ATOM      6  C   UNL     1      50.686  21.047  18.348  0.00  0.00    +0.081 A 
ATOM      9  C   UNL     1      49.397  20.826  18.805  0.00  0.00    +0.024 A 
ATOM     10  C   UNL     1      49.183  20.457  20.120  0.00  0.00    -0.089 A 
BRANCH   3   4
ATOM      4  O   UNL     1      53.031  21.111  18.772  0.00  0.00    -0.487 OA
ATOM      5  H   UNL     1      53.714  20.940  19.434  0.00  0.00    +0.391 HD
ENDBRANCH   3   4
BRANCH   6   7
ATOM      7  O   UNL     1      50.897  21.411  17.055  0.00  0.00    -0.485 OA
ATOM      8  H   UNL     1      51.414  22.222  16.953  0.00  0.00    +0.389 HD
ENDBRANCH   6   7
ENDBRANCH  11  10
BRANCH  30  31
ATOM     31  O   UNL     1      43.377  18.027  21.483  0.00  0.00    -0.491 OA
ATOM     32  H   UNL     1      42.552  17.622  21.181  0.00  0.00    +0.395 HD
ENDBRANCH  30  31
BRANCH  34  35
ATOM     35  O   UNL     1      42.307  21.750  18.729  0.00  0.00    -0.491 OA
ATOM     36  H   UNL     1      41.760  21.276  18.087  0.00  0.00    +0.396 HD
ENDBRANCH  34  35
BRANCH  12  13
ATOM     13  O   UNL     1      47.562  18.128  19.407  0.00  0.00    -0.323 OA
BRANCH  13  14
ATOM     14  C   UNL     1      48.239  16.971  19.277  0.00  0.00    +0.514 C 
ATOM     27  O   UNL     1      47.639  15.914  19.258  0.00  0.00    -0.494 OA
BRANCH  14  15
ATOM     15  C   UNL     1      49.709  16.986  19.155  0.00  0.00    -0.102 A 
ATOM     16  C   UNL     1      50.308  17.412  17.967  0.00  0.00    +0.074 A 
ATOM     17  C   UNL     1      51.686  17.425  17.855  0.00  0.00    +0.086 A 
ATOM     20  C   UNL     1      52.477  17.016  18.926  0.00  0.00    +0.095 A 
ATOM     23  C   UNL     1      51.881  16.592  20.111  0.00  0.00    +0.088 A 
ATOM     26  C   UNL     1      50.505  16.582  20.231  0.00  0.00    +0.080 A 
BRANCH  17  18
ATOM     18  O   UNL     1      52.270  17.839  16.699  0.00  0.00    -0.478 OA
ATOM     19  H   UNL     1      52.213  18.792  16.547  0.00  0.00    +0.392 HD
ENDBRANCH  17  18
BRANCH  20  21
ATOM     21  O   UNL     1      53.830  17.031  18.814  0.00  0.00    -0.472 OA
ATOM     22  H   UNL     1      54.216  17.917  18.810  0.00  0.00    +0.392 HD
ENDBRANCH  20  21
BRANCH  23  24
ATOM     24  O   UNL     1      52.657  16.192  21.155  0.00  0.00    -0.478 OA
ATOM     25  H   UNL     1      53.506  15.813  20.890  0.00  0.00    +0.393 HD
ENDBRANCH  23  24
ENDBRANCH  14  15
ENDBRANCH  13  14
ENDBRANCH  12  13
TORSDOF 11
ENDMDL
MODEL 9
REMARK VINA RESULT:      -6.3      1.843      2.197
REMARK  Name = ZINC03978503
REMARK  11 active torsions:
REMARK  status: ('A' for Active; 'I' for Inactive)
REMARK    1  A    between atoms: C3_3  and  O10_34
REMARK    2  A    between atoms: C4_4  and  O9_33
REMARK    3  A    between atoms: C6_6  and  C7_7
REMARK    4  A    between atoms: C8_9  and  O4_21
REMARK    5  A    between atoms: C11_13  and  O3_20
REMARK    6  A    between atoms: C13_15  and  O2_19
REMARK    7  A    between atoms: O4_21  and  C16_22
REMARK    8  A    between atoms: C16_22  and  C17_24
REMARK    9  A    between atoms: C19_26  and  O8_32
REMARK   10  A    between atoms: C20_27  and  O7_31
REMARK   11  A    between atoms: C21_28  and  O6_30
REMARK                            x       y       z     vdW  Elec       q    Type
REMARK                         _______ _______ _______ _____ _____    ______ ____
ROOT
ATOM     11  C   UNL     1      45.606  16.839  19.485  0.00  0.00    +0.253 C 
ATOM     12  C   UNL     1      46.987  17.164  20.065  0.00  0.00    +0.172 C 
ATOM     28  C   UNL     1      47.831  15.887  20.041  0.00  0.00    +0.107 C 
ATOM     29  C   UNL     1      47.734  15.239  18.684  0.00  0.00    -0.193 A 
ATOM     30  C   UNL     1      48.693  14.300  18.322  0.00  0.00    +0.162 A 
ATOM     33  C   UNL     1      48.634  13.683  17.083  0.00  0.00    -0.061 A 
ATOM     34  C   UNL     1      47.611  14.002  16.201  0.00  0.00    +0.159 A 
ATOM     37  C   UNL     1      46.657  14.937  16.561  0.00  0.00    -0.040 A 
ATOM     38  C   UNL     1      46.717  15.561  17.803  0.00  0.00    +0.170 A 
ATOM     39  O   UNL     1      45.766  16.480  18.111  0.00  0.00    -0.292 OA
ENDROOT
BRANCH  11  10
ATOM      1  C   UNL     1      44.764  19.031  18.621  0.00  0.00    +0.068 A 
ATOM      2  C   UNL     1      43.946  20.144  18.716  0.00  0.00    +0.004 A 
ATOM      3  C   UNL     1      43.075  20.273  19.785  0.00  0.00    +0.092 A 
ATOM      6  C   UNL     1      43.024  19.284  20.762  0.00  0.00    +0.081 A 
ATOM      9  C   UNL     1      43.845  18.173  20.661  0.00  0.00    +0.024 A 
ATOM     10  C   UNL     1      44.713  18.049  19.592  0.00  0.00    -0.089 A 
BRANCH   3   4
ATOM      4  O   UNL     1      42.271  21.367  19.879  0.00  0.00    -0.487 OA
ATOM      5  H   UNL     1      42.651  22.090  20.396  0.00  0.00    +0.391 HD
ENDBRANCH   3   4
BRANCH   6   7
ATOM      7  O   UNL     1      42.170  19.407  21.814  0.00  0.00    -0.485 OA
ATOM      8  H   UNL     1      41.492  18.719  21.852  0.00  0.00    +0.389 HD
ENDBRANCH   6   7
ENDBRANCH  11  10
BRANCH  30  31
ATOM     31  O   UNL     1      49.694  13.987  19.185  0.00  0.00    -0.491 OA
ATOM     32  H   UNL     1      49.988  14.729  19.733  0.00  0.00    +0.395 HD
ENDBRANCH  30  31
BRANCH  34  35
ATOM     35  O   UNL     1      47.548  13.397  14.986  0.00  0.00    -0.491 OA
ATOM     36  H   UNL     1      48.083  12.594  14.917  0.00  0.00    +0.396 HD
ENDBRANCH  34  35
BRANCH  12  13
ATOM     13  O   UNL     1      47.618  18.173  19.273  0.00  0.00    -0.323 OA
BRANCH  13  14
ATOM     14  C   UNL     1      48.872  18.526  19.618  0.00  0.00    +0.514 C 
ATOM     27  O   UNL     1      49.163  18.668  20.789  0.00  0.00    -0.494 OA
BRANCH  14  15
ATOM     15  C   UNL     1      49.892  18.738  18.574  0.00  0.00    -0.102 A 
ATOM     16  C   UNL     1      50.292  20.035  18.239  0.00  0.00    +0.074 A 
ATOM     17  C   UNL     1      51.248  20.231  17.261  0.00  0.00    +0.086 A 
ATOM     20  C   UNL     1      51.814  19.138  16.609  0.00  0.00    +0.095 A 
ATOM     23  C   UNL     1      51.417  17.846  16.941  0.00  0.00    +0.088 A 
ATOM     26  C   UNL     1      50.466  17.643  17.923  0.00  0.00    +0.080 A 
BRANCH  17  18
ATOM     18  O   UNL     1      51.638  21.493  16.934  0.00  0.00    -0.478 OA
ATOM     19  H   UNL     1      52.583  21.657  17.055  0.00  0.00    +0.392 HD
ENDBRANCH  17  18
BRANCH  20  21
ATOM     21  O   UNL     1      52.753  19.334  15.648  0.00  0.00    -0.472 OA
ATOM     22  H   UNL     1      53.111  20.232  15.623  0.00  0.00    +0.392 HD
ENDBRANCH  20  21
BRANCH  23  24
ATOM     24  O   UNL     1      51.971  16.780  16.301  0.00  0.00    -0.478 OA
ATOM     25  H   UNL     1      51.723  16.710  15.369  0.00  0.00    +0.393 HD
ENDBRANCH  23  24
ENDBRANCH  14  15
ENDBRANCH  13  14
ENDBRANCH  12  13
TORSDOF 11
ENDMDL
