MODEL 1
REMARK VINA RESULT:      -7.3      0.000      0.000
REMARK  Name = ZINC14768737
REMARK  10 active torsions:
REMARK  status: ('A' for Active; 'I' for Inactive)
REMARK    1  A    between atoms: C1_1  and  C2_2
REMARK    2  A    between atoms: C2_2  and  C28_34
REMARK    3  A    between atoms: C3_3  and  C4_4
REMARK    4  A    between atoms: C4_4  and  C5_5
REMARK    5  A    between atoms: C6_6  and  O6_33
REMARK    6  A    between atoms: C15_16  and  O3_20
REMARK    7  A    between atoms: C20_23  and  C21_25
REMARK    8  A    between atoms: C20_23  and  C22_26
REMARK    9  A    between atoms: C25_29  and  C26_31
REMARK   10  A    between atoms: C25_29  and  C27_32
REMARK                            x       y       z     vdW  Elec       q    Type
REMARK                         _______ _______ _______ _____ _____    ______ ____
ROOT
ATOM      6  C   UNL     1      49.332  18.156  18.996  0.00  0.00    -0.097 A 
ATOM      7  C   UNL     1      48.471  18.956  19.732  0.00  0.00    +0.156 A 
ATOM     10  C   UNL     1      47.133  18.603  19.877  0.00  0.00    +0.077 A 
ATOM     11  C   UNL     1      46.656  17.432  19.283  0.00  0.00    -0.028 A 
ATOM     12  C   UNL     1      45.237  17.073  19.480  0.00  0.00    +0.055 C 
ATOM     13  C   UNL     1      44.401  18.032  19.880  0.00  0.00    -0.031 C 
ATOM     14  C   UNL     1      44.920  19.429  20.114  0.00  0.00    +0.141 C 
ATOM     15  C   UNL     1      44.873  20.212  18.801  0.00  0.00    +0.036 C 
ATOM     16  C   UNL     1      44.044  20.127  21.154  0.00  0.00    +0.088 C 
ATOM     17  C   UNL     1      47.526  16.626  18.532  0.00  0.00    -0.194 A 
ATOM     18  C   UNL     1      47.051  15.394  17.882  0.00  0.00    +0.446 A 
ATOM     19  O   UNL     1      45.891  15.032  17.973  0.00  0.00    -0.434 OA
ATOM     20  C   UNL     1      48.043  14.618  17.118  0.00  0.00    -0.289 A 
ATOM     21  C   UNL     1      47.676  13.434  16.465  0.00  0.00    +0.252 A 
ATOM     24  C   UNL     1      48.638  12.726  15.753  0.00  0.00    -0.197 A 
ATOM     25  C   UNL     1      48.305  11.472  15.046  0.00  0.00    +0.058 C 
ATOM     26  C   UNL     1      49.307  10.676  14.675  0.00  0.00    -0.050 C 
ATOM     27  C   UNL     1      50.728  11.059  14.991  0.00  0.00    +0.147 C 
ATOM     28  C   UNL     1      51.103  10.511  16.370  0.00  0.00    +0.039 C 
ATOM     29  C   UNL     1      51.660  10.455  13.938  0.00  0.00    +0.089 C 
ATOM     30  O   UNL     1      50.877  12.479  14.992  0.00  0.00    -0.294 OA
ATOM     31  C   UNL     1      49.963  13.197  15.694  0.00  0.00    +0.221 A 
ATOM     32  C   UNL     1      50.317  14.365  16.339  0.00  0.00    -0.033 A 
ATOM     33  C   UNL     1      49.368  15.088  17.054  0.00  0.00    +0.223 A 
ATOM     34  O   UNL     1      49.728  16.229  17.675  0.00  0.00    -0.216 OA
ATOM     35  O   UNL     1      46.269  19.376  20.587  0.00  0.00    -0.289 OA
ATOM     36  C   UNL     1      48.874  16.992  18.390  0.00  0.00    +0.157 A 
ENDROOT
BRANCH   7   8
ATOM      8  O   UNL     1      48.936  20.090  20.315  0.00  0.00    -0.472 OA
ATOM      9  H   UNL     1      48.263  20.773  20.438  0.00  0.00    +0.397 HD
ENDBRANCH   7   8
BRANCH  21  22
ATOM     22  O   UNL     1      46.398  12.984  16.526  0.00  0.00    -0.469 OA
ATOM     23  H   UNL     1      46.228  12.380  17.261  0.00  0.00    +0.403 HD
ENDBRANCH  21  22
BRANCH   6   5
ATOM      5  C   UNL     1      50.779  18.552  18.854  0.00  0.00    +0.139 C 
BRANCH   5   4
ATOM      1  C   UNL     1      51.849  21.161  18.845  0.00  0.00    +0.076 C 
ATOM      2  C   UNL     1      51.415  20.518  17.553  0.00  0.00    -0.117 C 
ATOM      3  C   UNL     1      51.487  21.294  16.263  0.00  0.00    +0.074 C 
ATOM      4  C   UNL     1      50.973  19.284  17.551  0.00  0.00    -0.061 C 
ENDBRANCH   5   4
ENDBRANCH   6   5
TORSDOF 4
ENDMDL
MODEL 2
REMARK VINA RESULT:      -6.9      3.386      7.725
REMARK  Name = ZINC14768737
REMARK  10 active torsions:
REMARK  status: ('A' for Active; 'I' for Inactive)
REMARK    1  A    between atoms: C1_1  and  C2_2
REMARK    2  A    between atoms: C2_2  and  C28_34
REMARK    3  A    between atoms: C3_3  and  C4_4
REMARK    4  A    between atoms: C4_4  and  C5_5
REMARK    5  A    between atoms: C6_6  and  O6_33
REMARK    6  A    between atoms: C15_16  and  O3_20
REMARK    7  A    between atoms: C20_23  and  C21_25
REMARK    8  A    between atoms: C20_23  and  C22_26
REMARK    9  A    between atoms: C25_29  and  C26_31
REMARK   10  A    between atoms: C25_29  and  C27_32
REMARK                            x       y       z     vdW  Elec       q    Type
REMARK                         _______ _______ _______ _____ _____    ______ ____
ROOT
ATOM      6  C   UNL     1      48.667  16.823  18.457  0.00  0.00    -0.097 A 
ATOM      7  C   UNL     1      49.492  15.786  18.865  0.00  0.00    +0.156 A 
ATOM     10  C   UNL     1      49.089  14.924  19.880  0.00  0.00    +0.077 A 
ATOM     11  C   UNL     1      47.844  15.101  20.488  0.00  0.00    -0.028 A 
ATOM     12  C   UNL     1      47.436  14.152  21.544  0.00  0.00    +0.055 C 
ATOM     13  C   UNL     1      48.387  13.419  22.123  0.00  0.00    -0.031 C 
ATOM     14  C   UNL     1      49.823  13.579  21.693  0.00  0.00    +0.141 C 
ATOM     15  C   UNL     1      50.473  14.701  22.505  0.00  0.00    +0.036 C 
ATOM     16  C   UNL     1      50.576  12.272  21.943  0.00  0.00    +0.088 C 
ATOM     17  C   UNL     1      47.013  16.157  20.080  0.00  0.00    -0.194 A 
ATOM     18  C   UNL     1      45.701  16.379  20.710  0.00  0.00    +0.446 A 
ATOM     19  O   UNL     1      45.292  15.658  21.604  0.00  0.00    -0.434 OA
ATOM     20  C   UNL     1      44.904  17.513  20.209  0.00  0.00    -0.289 A 
ATOM     21  C   UNL     1      43.646  17.797  20.754  0.00  0.00    +0.252 A 
ATOM     24  C   UNL     1      42.919  18.875  20.257  0.00  0.00    -0.197 A 
ATOM     25  C   UNL     1      41.588  19.221  20.796  0.00  0.00    +0.058 C 
ATOM     26  C   UNL     1      40.810  20.028  20.076  0.00  0.00    -0.050 C 
ATOM     27  C   UNL     1      41.292  20.548  18.748  0.00  0.00    +0.147 C 
ATOM     28  C   UNL     1      40.900  19.560  17.647  0.00  0.00    +0.039 C 
ATOM     29  C   UNL     1      40.635  21.901  18.468  0.00  0.00    +0.089 C 
ATOM     30  O   UNL     1      42.711  20.706  18.756  0.00  0.00    -0.294 OA
ATOM     31  C   UNL     1      43.448  19.664  19.219  0.00  0.00    +0.221 A 
ATOM     32  C   UNL     1      44.689  19.377  18.687  0.00  0.00    -0.033 A 
ATOM     33  C   UNL     1      45.430  18.305  19.173  0.00  0.00    +0.223 A 
ATOM     34  O   UNL     1      46.643  18.040  18.646  0.00  0.00    -0.216 OA
ATOM     35  O   UNL     1      49.884  13.904  20.302  0.00  0.00    -0.289 OA
ATOM     36  C   UNL     1      47.429  17.022  19.056  0.00  0.00    +0.157 A 
ENDROOT
BRANCH   7   8
ATOM      8  O   UNL     1      50.699  15.608  18.269  0.00  0.00    -0.472 OA
ATOM      9  H   UNL     1      51.354  15.173  18.832  0.00  0.00    +0.397 HD
ENDBRANCH   7   8
BRANCH  21  22
ATOM     22  O   UNL     1      43.141  17.034  21.755  0.00  0.00    -0.469 OA
ATOM     23  H   UNL     1      43.779  16.829  22.453  0.00  0.00    +0.403 HD
ENDBRANCH  21  22
BRANCH   6   5
ATOM      5  C   UNL     1      49.119  17.744  17.353  0.00  0.00    +0.139 C 
BRANCH   5   4
ATOM      1  C   UNL     1      51.548  18.491  16.130  0.00  0.00    +0.076 C 
ATOM      2  C   UNL     1      51.102  19.166  17.402  0.00  0.00    -0.117 C 
ATOM      3  C   UNL     1      51.987  20.194  18.060  0.00  0.00    +0.074 C 
ATOM      4  C   UNL     1      49.945  18.860  17.936  0.00  0.00    -0.061 C 
ENDBRANCH   5   4
ENDBRANCH   6   5
TORSDOF 4
ENDMDL
MODEL 3
REMARK VINA RESULT:      -6.8      1.529      7.649
REMARK  Name = ZINC14768737
REMARK  10 active torsions:
REMARK  status: ('A' for Active; 'I' for Inactive)
REMARK    1  A    between atoms: C1_1  and  C2_2
REMARK    2  A    between atoms: C2_2  and  C28_34
REMARK    3  A    between atoms: C3_3  and  C4_4
REMARK    4  A    between atoms: C4_4  and  C5_5
REMARK    5  A    between atoms: C6_6  and  O6_33
REMARK    6  A    between atoms: C15_16  and  O3_20
REMARK    7  A    between atoms: C20_23  and  C21_25
REMARK    8  A    between atoms: C20_23  and  C22_26
REMARK    9  A    between atoms: C25_29  and  C26_31
REMARK   10  A    between atoms: C25_29  and  C27_32
REMARK                            x       y       z     vdW  Elec       q    Type
REMARK                         _______ _______ _______ _____ _____    ______ ____
ROOT
ATOM      6  C   UNL     1      50.980  17.255  17.683  0.00  0.00    -0.097 A 
ATOM      7  C   UNL     1      51.372  16.114  17.002  0.00  0.00    +0.156 A 
ATOM     10  C   UNL     1      50.461  15.092  16.756  0.00  0.00    +0.077 A 
ATOM     11  C   UNL     1      49.141  15.219  17.194  0.00  0.00    -0.028 A 
ATOM     12  C   UNL     1      48.192  14.127  16.894  0.00  0.00    +0.055 C 
ATOM     13  C   UNL     1      48.696  12.938  16.564  0.00  0.00    -0.031 C 
ATOM     14  C   UNL     1      50.190  12.746  16.509  0.00  0.00    +0.141 C 
ATOM     15  C   UNL     1      50.701  12.353  17.897  0.00  0.00    +0.036 C 
ATOM     16  C   UNL     1      50.523  11.635  15.513  0.00  0.00    +0.088 C 
ATOM     17  C   UNL     1      48.746  16.372  17.892  0.00  0.00    -0.194 A 
ATOM     18  C   UNL     1      47.365  16.530  18.379  0.00  0.00    +0.446 A 
ATOM     19  O   UNL     1      46.521  15.671  18.196  0.00  0.00    -0.434 OA
ATOM     20  C   UNL     1      47.052  17.778  19.099  0.00  0.00    -0.289 A 
ATOM     21  C   UNL     1      45.764  18.009  19.599  0.00  0.00    +0.252 A 
ATOM     24  C   UNL     1      45.502  19.198  20.273  0.00  0.00    -0.197 A 
ATOM     25  C   UNL     1      44.162  19.493  20.821  0.00  0.00    +0.058 C 
ATOM     26  C   UNL     1      43.882  20.754  21.148  0.00  0.00    -0.050 C 
ATOM     27  C   UNL     1      44.914  21.831  20.942  0.00  0.00    +0.147 C 
ATOM     28  C   UNL     1      44.771  22.403  19.530  0.00  0.00    +0.039 C 
ATOM     29  C   UNL     1      44.689  22.947  21.965  0.00  0.00    +0.089 C 
ATOM     30  O   UNL     1      46.231  21.303  21.105  0.00  0.00    -0.294 OA
ATOM     31  C   UNL     1      46.522  20.152  20.445  0.00  0.00    +0.221 A 
ATOM     32  C   UNL     1      47.788  19.916  19.950  0.00  0.00    -0.033 A 
ATOM     33  C   UNL     1      48.070  18.733  19.276  0.00  0.00    +0.223 A 
ATOM     34  O   UNL     1      49.313  18.514  18.801  0.00  0.00    -0.216 OA
ATOM     35  O   UNL     1      50.824  13.960  16.096  0.00  0.00    -0.289 OA
ATOM     36  C   UNL     1      49.673  17.397  18.136  0.00  0.00    +0.157 A 
ENDROOT
BRANCH   7   8
ATOM      8  O   UNL     1      52.654  15.992  16.569  0.00  0.00    -0.472 OA
ATOM      9  H   UNL     1      53.214  15.455  17.146  0.00  0.00    +0.397 HD
ENDBRANCH   7   8
BRANCH  21  22
ATOM     22  O   UNL     1      44.785  17.087  19.430  0.00  0.00    -0.469 OA
ATOM     23  H   UNL     1      44.226  17.242  18.656  0.00  0.00    +0.403 HD
ENDBRANCH  21  22
BRANCH   6   5
ATOM      5  C   UNL     1      51.981  18.353  17.936  0.00  0.00    +0.139 C 
BRANCH   5   4
ATOM      1  C   UNL     1      51.492  21.090  18.411  0.00  0.00    +0.076 C 
ATOM      2  C   UNL     1      51.673  20.587  17.002  0.00  0.00    -0.117 C 
ATOM      3  C   UNL     1      51.525  21.536  15.839  0.00  0.00    +0.074 C 
ATOM      4  C   UNL     1      51.959  19.327  16.787  0.00  0.00    -0.061 C 
ENDBRANCH   5   4
ENDBRANCH   6   5
TORSDOF 4
ENDMDL
MODEL 4
REMARK VINA RESULT:      -6.4      2.337      7.949
REMARK  Name = ZINC14768737
REMARK  10 active torsions:
REMARK  status: ('A' for Active; 'I' for Inactive)
REMARK    1  A    between atoms: C1_1  and  C2_2
REMARK    2  A    between atoms: C2_2  and  C28_34
REMARK    3  A    between atoms: C3_3  and  C4_4
REMARK    4  A    between atoms: C4_4  and  C5_5
REMARK    5  A    between atoms: C6_6  and  O6_33
REMARK    6  A    between atoms: C15_16  and  O3_20
REMARK    7  A    between atoms: C20_23  and  C21_25
REMARK    8  A    between atoms: C20_23  and  C22_26
REMARK    9  A    between atoms: C25_29  and  C26_31
REMARK   10  A    between atoms: C25_29  and  C27_32
REMARK                            x       y       z     vdW  Elec       q    Type
REMARK                         _______ _______ _______ _____ _____    ______ ____
ROOT
ATOM      6  C   UNL     1      48.876  16.644  17.234  0.00  0.00    -0.097 A 
ATOM      7  C   UNL     1      48.786  15.300  16.903  0.00  0.00    +0.156 A 
ATOM     10  C   UNL     1      47.757  14.517  17.415  0.00  0.00    +0.077 A 
ATOM     11  C   UNL     1      46.805  15.089  18.262  0.00  0.00    -0.028 A 
ATOM     12  C   UNL     1      45.710  14.235  18.766  0.00  0.00    +0.055 C 
ATOM     13  C   UNL     1      45.873  12.913  18.706  0.00  0.00    -0.031 C 
ATOM     14  C   UNL     1      47.146  12.340  18.139  0.00  0.00    +0.141 C 
ATOM     15  C   UNL     1      48.187  12.217  19.254  0.00  0.00    +0.036 C 
ATOM     16  C   UNL     1      46.863  10.956  17.554  0.00  0.00    +0.088 C 
ATOM     17  C   UNL     1      46.901  16.447  18.603  0.00  0.00    -0.194 A 
ATOM     18  C   UNL     1      45.922  17.077  19.505  0.00  0.00    +0.446 A 
ATOM     19  O   UNL     1      44.998  16.443  19.985  0.00  0.00    -0.434 OA
ATOM     20  C   UNL     1      46.111  18.508  19.799  0.00  0.00    -0.289 A 
ATOM     21  C   UNL     1      45.227  19.185  20.649  0.00  0.00    +0.252 A 
ATOM     24  C   UNL     1      45.434  20.537  20.905  0.00  0.00    -0.197 A 
ATOM     25  C   UNL     1      44.533  21.299  21.794  0.00  0.00    +0.058 C 
ATOM     26  C   UNL     1      44.574  22.629  21.737  0.00  0.00    -0.050 C 
ATOM     27  C   UNL     1      45.510  23.312  20.776  0.00  0.00    +0.147 C 
ATOM     28  C   UNL     1      44.803  23.502  19.433  0.00  0.00    +0.039 C 
ATOM     29  C   UNL     1      45.901  24.680  21.339  0.00  0.00    +0.089 C 
ATOM     30  O   UNL     1      46.689  22.530  20.582  0.00  0.00    -0.294 OA
ATOM     31  C   UNL     1      46.518  21.210  20.313  0.00  0.00    +0.221 A 
ATOM     32  C   UNL     1      47.385  20.536  19.477  0.00  0.00    -0.033 A 
ATOM     33  C   UNL     1      47.195  19.184  19.211  0.00  0.00    +0.223 A 
ATOM     34  O   UNL     1      48.053  18.538  18.395  0.00  0.00    -0.216 OA
ATOM     35  O   UNL     1      47.652  13.196  17.110  0.00  0.00    -0.289 OA
ATOM     36  C   UNL     1      47.945  17.229  18.083  0.00  0.00    +0.157 A 
ENDROOT
BRANCH   7   8
ATOM      8  O   UNL     1      49.708  14.745  16.074  0.00  0.00    -0.472 OA
ATOM      9  H   UNL     1      50.261  14.073  16.495  0.00  0.00    +0.397 HD
ENDBRANCH   7   8
BRANCH  21  22
ATOM     22  O   UNL     1      44.183  18.531  21.217  0.00  0.00    -0.469 OA
ATOM     23  H   UNL     1      44.435  17.732  21.700  0.00  0.00    +0.403 HD
ENDBRANCH  21  22
BRANCH   6   5
ATOM      5  C   UNL     1      49.997  17.477  16.667  0.00  0.00    +0.139 C 
BRANCH   5   4
ATOM      1  C   UNL     1      51.768  19.639  16.295  0.00  0.00    +0.076 C 
ATOM      2  C   UNL     1      51.791  18.856  17.582  0.00  0.00    -0.117 C 
ATOM      3  C   UNL     1      52.809  19.183  18.645  0.00  0.00    +0.074 C 
ATOM      4  C   UNL     1      50.928  17.890  17.777  0.00  0.00    -0.061 C 
ENDBRANCH   5   4
ENDBRANCH   6   5
TORSDOF 4
ENDMDL
MODEL 5
REMARK VINA RESULT:      -6.2      1.858      7.457
REMARK  Name = ZINC14768737
REMARK  10 active torsions:
REMARK  status: ('A' for Active; 'I' for Inactive)
REMARK    1  A    between atoms: C1_1  and  C2_2
REMARK    2  A    between atoms: C2_2  and  C28_34
REMARK    3  A    between atoms: C3_3  and  C4_4
REMARK    4  A    between atoms: C4_4  and  C5_5
REMARK    5  A    between atoms: C6_6  and  O6_33
REMARK    6  A    between atoms: C15_16  and  O3_20
REMARK    7  A    between atoms: C20_23  and  C21_25
REMARK    8  A    between atoms: C20_23  and  C22_26
REMARK    9  A    between atoms: C25_29  and  C26_31
REMARK   10  A    between atoms: C25_29  and  C27_32
REMARK                            x       y       z     vdW  Elec       q    Type
REMARK                         _______ _______ _______ _____ _____    ______ ____
ROOT
ATOM      6  C   UNL     1      50.342  16.906  17.354  0.00  0.00    -0.097 A 
ATOM      7  C   UNL     1      51.129  15.965  16.708  0.00  0.00    +0.156 A 
ATOM     10  C   UNL     1      50.822  14.611  16.796  0.00  0.00    +0.077 A 
ATOM     11  C   UNL     1      49.710  14.197  17.535  0.00  0.00    -0.028 A 
ATOM     12  C   UNL     1      49.397  12.755  17.586  0.00  0.00    +0.055 C 
ATOM     13  C   UNL     1      50.362  11.896  17.255  0.00  0.00    -0.031 C 
ATOM     14  C   UNL     1      51.719  12.413  16.849  0.00  0.00    +0.141 C 
ATOM     15  C   UNL     1      52.585  12.596  18.096  0.00  0.00    +0.036 C 
ATOM     16  C   UNL     1      52.386  11.406  15.911  0.00  0.00    +0.088 C 
ATOM     17  C   UNL     1      48.919  15.150  18.196  0.00  0.00    -0.194 A 
ATOM     18  C   UNL     1      47.750  14.746  18.994  0.00  0.00    +0.446 A 
ATOM     19  O   UNL     1      47.430  13.576  19.109  0.00  0.00    -0.434 OA
ATOM     20  C   UNL     1      46.984  15.823  19.647  0.00  0.00    -0.289 A 
ATOM     21  C   UNL     1      45.859  15.527  20.428  0.00  0.00    +0.252 A 
ATOM     24  C   UNL     1      45.159  16.568  21.029  0.00  0.00    -0.197 A 
ATOM     25  C   UNL     1      43.966  16.312  21.863  0.00  0.00    +0.058 C 
ATOM     26  C   UNL     1      43.156  17.336  22.128  0.00  0.00    -0.050 C 
ATOM     27  C   UNL     1      43.461  18.700  21.570  0.00  0.00    +0.147 C 
ATOM     28  C   UNL     1      42.813  18.838  20.191  0.00  0.00    +0.039 C 
ATOM     29  C   UNL     1      42.887  19.767  22.505  0.00  0.00    +0.089 C 
ATOM     30  O   UNL     1      44.871  18.890  21.449  0.00  0.00    -0.294 OA
ATOM     31  C   UNL     1      45.579  17.899  20.851  0.00  0.00    +0.221 A 
ATOM     32  C   UNL     1      46.689  18.182  20.080  0.00  0.00    -0.033 A 
ATOM     33  C   UNL     1      47.403  17.154  19.473  0.00  0.00    +0.223 A 
ATOM     34  O   UNL     1      48.488  17.446  18.727  0.00  0.00    -0.216 OA
ATOM     35  O   UNL     1      51.582  13.669  16.177  0.00  0.00    -0.289 OA
ATOM     36  C   UNL     1      49.238  16.514  18.103  0.00  0.00    +0.157 A 
ENDROOT
BRANCH   7   8
ATOM      8  O   UNL     1      52.205  16.366  15.984  0.00  0.00    -0.472 OA
ATOM      9  H   UNL     1      52.061  16.355  15.027  0.00  0.00    +0.397 HD
ENDBRANCH   7   8
BRANCH  21  22
ATOM     22  O   UNL     1      45.458  14.243  20.597  0.00  0.00    -0.469 OA
ATOM     23  H   UNL     1      44.586  14.051  20.225  0.00  0.00    +0.403 HD
ENDBRANCH  21  22
BRANCH   6   5
ATOM      5  C   UNL     1      50.689  18.368  17.244  0.00  0.00    +0.139 C 
BRANCH   5   4
ATOM      1  C   UNL     1      51.083  21.121  17.710  0.00  0.00    +0.076 C 
ATOM      2  C   UNL     1      51.558  20.108  18.719  0.00  0.00    -0.117 C 
ATOM      3  C   UNL     1      52.306  20.561  19.947  0.00  0.00    +0.074 C 
ATOM      4  C   UNL     1      51.321  18.833  18.530  0.00  0.00    -0.061 C 
ENDBRANCH   5   4
ENDBRANCH   6   5
TORSDOF 4
ENDMDL
MODEL 6
REMARK VINA RESULT:      -6.2      4.267      6.505
REMARK  Name = ZINC14768737
REMARK  10 active torsions:
REMARK  status: ('A' for Active; 'I' for Inactive)
REMARK    1  A    between atoms: C1_1  and  C2_2
REMARK    2  A    between atoms: C2_2  and  C28_34
REMARK    3  A    between atoms: C3_3  and  C4_4
REMARK    4  A    between atoms: C4_4  and  C5_5
REMARK    5  A    between atoms: C6_6  and  O6_33
REMARK    6  A    between atoms: C15_16  and  O3_20
REMARK    7  A    between atoms: C20_23  and  C21_25
REMARK    8  A    between atoms: C20_23  and  C22_26
REMARK    9  A    between atoms: C25_29  and  C26_31
REMARK   10  A    between atoms: C25_29  and  C27_32
REMARK                            x       y       z     vdW  Elec       q    Type
REMARK                         _______ _______ _______ _____ _____    ______ ____
ROOT
ATOM      6  C   UNL     1      49.834  16.511  17.467  0.00  0.00    -0.097 A 
ATOM      7  C   UNL     1      48.555  16.034  17.220  0.00  0.00    +0.156 A 
ATOM     10  C   UNL     1      48.176  14.773  17.667  0.00  0.00    +0.077 A 
ATOM     11  C   UNL     1      49.086  13.983  18.373  0.00  0.00    -0.028 A 
ATOM     12  C   UNL     1      48.642  12.660  18.856  0.00  0.00    +0.055 C 
ATOM     13  C   UNL     1      47.556  12.125  18.297  0.00  0.00    -0.031 C 
ATOM     14  C   UNL     1      46.829  12.872  17.207  0.00  0.00    +0.141 C 
ATOM     15  C   UNL     1      47.452  12.526  15.854  0.00  0.00    +0.036 C 
ATOM     16  C   UNL     1      45.356  12.462  17.208  0.00  0.00    +0.088 C 
ATOM     17  C   UNL     1      50.383  14.463  18.616  0.00  0.00    -0.194 A 
ATOM     18  C   UNL     1      51.371  13.650  19.345  0.00  0.00    +0.446 A 
ATOM     19  O   UNL     1      51.098  12.537  19.762  0.00  0.00    -0.434 OA
ATOM     20  C   UNL     1      52.703  14.245  19.550  0.00  0.00    -0.289 A 
ATOM     21  C   UNL     1      53.703  13.539  20.231  0.00  0.00    +0.252 A 
ATOM     24  C   UNL     1      54.950  14.131  20.407  0.00  0.00    -0.197 A 
ATOM     25  C   UNL     1      56.041  13.431  21.117  0.00  0.00    +0.058 C 
ATOM     26  C   UNL     1      57.075  14.154  21.544  0.00  0.00    -0.050 C 
ATOM     27  C   UNL     1      57.102  15.641  21.310  0.00  0.00    +0.147 C 
ATOM     28  C   UNL     1      56.414  16.347  22.481  0.00  0.00    +0.039 C 
ATOM     29  C   UNL     1      58.555  16.112  21.220  0.00  0.00    +0.089 C 
ATOM     30  O   UNL     1      56.424  15.970  20.098  0.00  0.00    -0.294 OA
ATOM     31  C   UNL     1      55.197  15.422  19.905  0.00  0.00    +0.221 A 
ATOM     32  C   UNL     1      54.206  16.111  19.235  0.00  0.00    -0.033 A 
ATOM     33  C   UNL     1      52.954  15.534  19.047  0.00  0.00    +0.223 A 
ATOM     34  O   UNL     1      51.997  16.218  18.387  0.00  0.00    -0.216 OA
ATOM     35  O   UNL     1      46.930  14.281  17.430  0.00  0.00    -0.289 OA
ATOM     36  C   UNL     1      50.757  15.737  18.160  0.00  0.00    +0.157 A 
ENDROOT
BRANCH   7   8
ATOM      8  O   UNL     1      47.667  16.804  16.540  0.00  0.00    -0.472 OA
ATOM      9  H   UNL     1      46.782  16.820  16.928  0.00  0.00    +0.397 HD
ENDBRANCH   7   8
BRANCH  21  22
ATOM     22  O   UNL     1      53.461  12.295  20.711  0.00  0.00    -0.469 OA
ATOM     23  H   UNL     1      54.197  11.915  21.211  0.00  0.00    +0.403 HD
ENDBRANCH  21  22
BRANCH   6   5
ATOM      5  C   UNL     1      50.225  17.882  16.979  0.00  0.00    +0.139 C 
BRANCH   5   4
ATOM      1  C   UNL     1      52.058  19.986  17.382  0.00  0.00    +0.076 C 
ATOM      2  C   UNL     1      50.870  19.833  18.297  0.00  0.00    -0.117 C 
ATOM      3  C   UNL     1      50.698  20.763  19.470  0.00  0.00    +0.074 C 
ATOM      4  C   UNL     1      49.988  18.891  18.072  0.00  0.00    -0.061 C 
ENDBRANCH   5   4
ENDBRANCH   6   5
TORSDOF 4
ENDMDL
MODEL 7
REMARK VINA RESULT:      -6.1      2.314      7.782
REMARK  Name = ZINC14768737
REMARK  10 active torsions:
REMARK  status: ('A' for Active; 'I' for Inactive)
REMARK    1  A    between atoms: C1_1  and  C2_2
REMARK    2  A    between atoms: C2_2  and  C28_34
REMARK    3  A    between atoms: C3_3  and  C4_4
REMARK    4  A    between atoms: C4_4  and  C5_5
REMARK    5  A    between atoms: C6_6  and  O6_33
REMARK    6  A    between atoms: C15_16  and  O3_20
REMARK    7  A    between atoms: C20_23  and  C21_25
REMARK    8  A    between atoms: C20_23  and  C22_26
REMARK    9  A    between atoms: C25_29  and  C26_31
REMARK   10  A    between atoms: C25_29  and  C27_32
REMARK                            x       y       z     vdW  Elec       q    Type
REMARK                         _______ _______ _______ _____ _____    ______ ____
ROOT
ATOM      6  C   UNL     1      50.068  13.133  15.388  0.00  0.00    -0.097 A 
ATOM      7  C   UNL     1      49.119  12.192  15.021  0.00  0.00    +0.156 A 
ATOM     10  C   UNL     1      47.803  12.313  15.455  0.00  0.00    +0.077 A 
ATOM     11  C   UNL     1      47.434  13.393  16.260  0.00  0.00    -0.028 A 
ATOM     12  C   UNL     1      46.023  13.505  16.681  0.00  0.00    +0.055 C 
ATOM     13  C   UNL     1      45.260  12.415  16.599  0.00  0.00    -0.031 C 
ATOM     14  C   UNL     1      45.849  11.124  16.091  0.00  0.00    +0.141 C 
ATOM     15  C   UNL     1      46.471  10.357  17.260  0.00  0.00    +0.036 C 
ATOM     16  C   UNL     1      44.745  10.277  15.459  0.00  0.00    +0.088 C 
ATOM     17  C   UNL     1      48.398  14.341  16.639  0.00  0.00    -0.194 A 
ATOM     18  C   UNL     1      48.044  15.483  17.498  0.00  0.00    +0.446 A 
ATOM     19  O   UNL     1      46.909  15.644  17.910  0.00  0.00    -0.434 OA
ATOM     20  C   UNL     1      49.127  16.423  17.836  0.00  0.00    -0.289 A 
ATOM     21  C   UNL     1      48.879  17.535  18.651  0.00  0.00    +0.252 A 
ATOM     24  C   UNL     1      49.925  18.404  18.950  0.00  0.00    -0.197 A 
ATOM     25  C   UNL     1      49.719  19.591  19.805  0.00  0.00    +0.058 C 
ATOM     26  C   UNL     1      50.645  20.548  19.782  0.00  0.00    -0.050 C 
ATOM     27  C   UNL     1      51.851  20.406  18.892  0.00  0.00    +0.147 C 
ATOM     28  C   UNL     1      51.534  20.994  17.515  0.00  0.00    +0.039 C 
ATOM     29  C   UNL     1      53.026  21.169  19.508  0.00  0.00    +0.089 C 
ATOM     30  O   UNL     1      52.209  19.031  18.745  0.00  0.00    -0.294 OA
ATOM     31  C   UNL     1      51.213  18.162  18.436  0.00  0.00    +0.221 A 
ATOM     32  C   UNL     1      51.449  17.064  17.634  0.00  0.00    -0.033 A 
ATOM     33  C   UNL     1      50.416  16.184  17.327  0.00  0.00    +0.223 A 
ATOM     34  O   UNL     1      50.664  15.113  16.545  0.00  0.00    -0.216 OA
ATOM     35  O   UNL     1      46.856  11.398  15.114  0.00  0.00    -0.289 OA
ATOM     36  C   UNL     1      49.724  14.210  16.197  0.00  0.00    +0.157 A 
ENDROOT
BRANCH   7   8
ATOM      8  O   UNL     1      49.476  11.145  14.232  0.00  0.00    -0.472 OA
ATOM      9  H   UNL     1      50.323  10.745  14.469  0.00  0.00    +0.397 HD
ENDBRANCH   7   8
BRANCH  21  22
ATOM     22  O   UNL     1      47.637  17.763  19.143  0.00  0.00    -0.469 OA
ATOM     23  H   UNL     1      47.389  18.698  19.170  0.00  0.00    +0.403 HD
ENDBRANCH  21  22
BRANCH   6   5
ATOM      5  C   UNL     1      51.488  12.987  14.904  0.00  0.00    +0.139 C 
BRANCH   5   4
ATOM      1  C   UNL     1      52.591  10.459  14.318  0.00  0.00    +0.076 C 
ATOM      2  C   UNL     1      52.762  11.059  15.690  0.00  0.00    -0.117 C 
ATOM      3  C   UNL     1      53.463  10.277  16.772  0.00  0.00    +0.074 C 
ATOM      4  C   UNL     1      52.300  12.258  15.943  0.00  0.00    -0.061 C 
ENDBRANCH   5   4
ENDBRANCH   6   5
TORSDOF 4
ENDMDL
MODEL 8
REMARK VINA RESULT:      -6.0      1.616      5.039
REMARK  Name = ZINC14768737
REMARK  10 active torsions:
REMARK  status: ('A' for Active; 'I' for Inactive)
REMARK    1  A    between atoms: C1_1  and  C2_2
REMARK    2  A    between atoms: C2_2  and  C28_34
REMARK    3  A    between atoms: C3_3  and  C4_4
REMARK    4  A    between atoms: C4_4  and  C5_5
REMARK    5  A    between atoms: C6_6  and  O6_33
REMARK    6  A    between atoms: C15_16  and  O3_20
REMARK    7  A    between atoms: C20_23  and  C21_25
REMARK    8  A    between atoms: C20_23  and  C22_26
REMARK    9  A    between atoms: C25_29  and  C26_31
REMARK   10  A    between atoms: C25_29  and  C27_32
REMARK                            x       y       z     vdW  Elec       q    Type
REMARK                         _______ _______ _______ _____ _____    ______ ____
ROOT
ATOM      6  C   UNL     1      47.967  18.942  18.995  0.00  0.00    -0.097 A 
ATOM      7  C   UNL     1      48.710  20.065  19.326  0.00  0.00    +0.156 A 
ATOM     10  C   UNL     1      50.079  20.098  19.086  0.00  0.00    +0.077 A 
ATOM     11  C   UNL     1      50.709  18.997  18.501  0.00  0.00    -0.028 A 
ATOM     12  C   UNL     1      52.160  19.076  18.235  0.00  0.00    +0.055 C 
ATOM     13  C   UNL     1      52.861  20.007  18.882  0.00  0.00    -0.031 C 
ATOM     14  C   UNL     1      52.167  20.932  19.849  0.00  0.00    +0.141 C 
ATOM     15  C   UNL     1      52.131  20.283  21.234  0.00  0.00    +0.036 C 
ATOM     16  C   UNL     1      52.934  22.253  19.928  0.00  0.00    +0.088 C 
ATOM     17  C   UNL     1      49.958  17.857  18.174  0.00  0.00    -0.194 A 
ATOM     18  C   UNL     1      50.594  16.674  17.570  0.00  0.00    +0.446 A 
ATOM     19  O   UNL     1      51.789  16.643  17.335  0.00  0.00    -0.434 OA
ATOM     20  C   UNL     1      49.717  15.530  17.262  0.00  0.00    -0.289 A 
ATOM     21  C   UNL     1      50.240  14.364  16.689  0.00  0.00    +0.252 A 
ATOM     24  C   UNL     1      49.384  13.303  16.410  0.00  0.00    -0.197 A 
ATOM     25  C   UNL     1      49.883  12.050  15.807  0.00  0.00    +0.058 C 
ATOM     26  C   UNL     1      48.995  11.220  15.262  0.00  0.00    -0.050 C 
ATOM     27  C   UNL     1      47.532  11.579  15.261  0.00  0.00    +0.147 C 
ATOM     28  C   UNL     1      47.213  12.387  14.002  0.00  0.00    +0.039 C 
ATOM     29  C   UNL     1      46.698  10.296  15.263  0.00  0.00    +0.089 C 
ATOM     30  O   UNL     1      47.205  12.354  16.414  0.00  0.00    -0.294 OA
ATOM     31  C   UNL     1      48.012  13.407  16.702  0.00  0.00    +0.221 A 
ATOM     32  C   UNL     1      47.504  14.560  17.267  0.00  0.00    -0.033 A 
ATOM     33  C   UNL     1      48.345  15.630  17.555  0.00  0.00    +0.223 A 
ATOM     34  O   UNL     1      47.835  16.748  18.110  0.00  0.00    -0.216 OA
ATOM     35  O   UNL     1      50.830  21.185  19.409  0.00  0.00    -0.289 OA
ATOM     36  C   UNL     1      48.576  17.832  18.422  0.00  0.00    +0.157 A 
ENDROOT
BRANCH   7   8
ATOM      8  O   UNL     1      48.097  21.139  19.887  0.00  0.00    -0.472 OA
ATOM      9  H   UNL     1      48.631  21.591  20.554  0.00  0.00    +0.397 HD
ENDBRANCH   7   8
BRANCH  21  22
ATOM     22  O   UNL     1      51.563  14.269  16.410  0.00  0.00    -0.469 OA
ATOM     23  H   UNL     1      51.920  15.028  15.928  0.00  0.00    +0.403 HD
ENDBRANCH  21  22
BRANCH   6   5
ATOM      5  C   UNL     1      46.483  18.926  19.259  0.00  0.00    +0.139 C 
BRANCH   5   4
ATOM      1  C   UNL     1      45.003  16.605  19.872  0.00  0.00    +0.076 C 
ATOM      2  C   UNL     1      45.495  17.502  20.979  0.00  0.00    -0.117 C 
ATOM      3  C   UNL     1      45.138  17.197  22.411  0.00  0.00    +0.074 C 
ATOM      4  C   UNL     1      46.233  18.547  20.696  0.00  0.00    -0.061 C 
ENDBRANCH   5   4
ENDBRANCH   6   5
TORSDOF 4
ENDMDL
MODEL 9
REMARK VINA RESULT:      -6.0      3.133      3.506
REMARK  Name = ZINC14768737
REMARK  10 active torsions:
REMARK  status: ('A' for Active; 'I' for Inactive)
REMARK    1  A    between atoms: C1_1  and  C2_2
REMARK    2  A    between atoms: C2_2  and  C28_34
REMARK    3  A    between atoms: C3_3  and  C4_4
REMARK    4  A    between atoms: C4_4  and  C5_5
REMARK    5  A    between atoms: C6_6  and  O6_33
REMARK    6  A    between atoms: C15_16  and  O3_20
REMARK    7  A    between atoms: C20_23  and  C21_25
REMARK    8  A    between atoms: C20_23  and  C22_26
REMARK    9  A    between atoms: C25_29  and  C26_31
REMARK   10  A    between atoms: C25_29  and  C27_32
REMARK                            x       y       z     vdW  Elec       q    Type
REMARK                         _______ _______ _______ _____ _____    ______ ____
ROOT
ATOM      6  C   UNL     1      48.979  19.652  20.080  0.00  0.00    -0.097 A 
ATOM      7  C   UNL     1      47.717  20.188  20.280  0.00  0.00    +0.156 A 
ATOM     10  C   UNL     1      46.619  19.354  20.464  0.00  0.00    +0.077 A 
ATOM     11  C   UNL     1      46.790  17.968  20.454  0.00  0.00    -0.028 A 
ATOM     12  C   UNL     1      45.608  17.112  20.678  0.00  0.00    +0.055 C 
ATOM     13  C   UNL     1      44.403  17.657  20.512  0.00  0.00    -0.031 C 
ATOM     14  C   UNL     1      44.286  19.104  20.104  0.00  0.00    +0.141 C 
ATOM     15  C   UNL     1      44.322  19.204  18.578  0.00  0.00    +0.036 C 
ATOM     16  C   UNL     1      42.961  19.670  20.619  0.00  0.00    +0.088 C 
ATOM     17  C   UNL     1      48.068  17.425  20.242  0.00  0.00    -0.194 A 
ATOM     18  C   UNL     1      48.280  15.968  20.211  0.00  0.00    +0.446 A 
ATOM     19  O   UNL     1      47.359  15.186  20.366  0.00  0.00    -0.434 OA
ATOM     20  C   UNL     1      49.659  15.500  19.985  0.00  0.00    -0.289 A 
ATOM     21  C   UNL     1      49.949  14.131  19.938  0.00  0.00    +0.252 A 
ATOM     24  C   UNL     1      51.263  13.723  19.723  0.00  0.00    -0.197 A 
ATOM     25  C   UNL     1      51.624  12.292  19.663  0.00  0.00    +0.058 C 
ATOM     26  C   UNL     1      52.909  11.964  19.792  0.00  0.00    -0.050 C 
ATOM     27  C   UNL     1      53.941  13.039  20.007  0.00  0.00    +0.147 C 
ATOM     28  C   UNL     1      54.091  13.303  21.507  0.00  0.00    +0.039 C 
ATOM     29  C   UNL     1      55.283  12.570  19.440  0.00  0.00    +0.089 C 
ATOM     30  O   UNL     1      53.551  14.247  19.353  0.00  0.00    -0.294 OA
ATOM     31  C   UNL     1      52.281  14.680  19.557  0.00  0.00    +0.221 A 
ATOM     32  C   UNL     1      51.986  16.027  19.605  0.00  0.00    -0.033 A 
ATOM     33  C   UNL     1      50.679  16.454  19.816  0.00  0.00    +0.223 A 
ATOM     34  O   UNL     1      50.406  17.774  19.856  0.00  0.00    -0.216 OA
ATOM     35  O   UNL     1      45.370  19.857  20.655  0.00  0.00    -0.289 OA
ATOM     36  C   UNL     1      49.170  18.275  20.056  0.00  0.00    +0.157 A 
ENDROOT
BRANCH   7   8
ATOM      8  O   UNL     1      47.550  21.536  20.298  0.00  0.00    -0.472 OA
ATOM      9  H   UNL     1      46.717  21.834  19.909  0.00  0.00    +0.397 HD
ENDBRANCH   7   8
BRANCH  21  22
ATOM     22  O   UNL     1      48.964  13.213  20.097  0.00  0.00    -0.469 OA
ATOM     23  H   UNL     1      48.913  12.842  20.989  0.00  0.00    +0.403 HD
ENDBRANCH  21  22
BRANCH   6   5
ATOM      5  C   UNL     1      50.158  20.572  19.887  0.00  0.00    +0.139 C 
BRANCH   5   4
ATOM      1  C   UNL     1      52.561  20.126  18.481  0.00  0.00    +0.076 C 
ATOM      2  C   UNL     1      51.399  20.800  17.797  0.00  0.00    -0.117 C 
ATOM      3  C   UNL     1      51.544  21.299  16.382  0.00  0.00    +0.074 C 
ATOM      4  C   UNL     1      50.264  20.953  18.433  0.00  0.00    -0.061 C 
ENDBRANCH   5   4
ENDBRANCH   6   5
TORSDOF 4
ENDMDL
