MODEL 1
REMARK VINA RESULT:      -5.8      0.000      0.000
REMARK  Name = ZINC04804529
REMARK  8 active torsions:
REMARK  status: ('A' for Active; 'I' for Inactive)
REMARK    1  A    between atoms: C1_1  and  C2_2
REMARK    2  A    between atoms: C2_2  and  C3_3
REMARK    3  A    between atoms: C17_21  and  C18_23
REMARK    4  A    between atoms: C18_23  and  C21_27
REMARK    5  A    between atoms: C19_24  and  O1_25
REMARK    6  A    between atoms: O1_25  and  C20_26
REMARK    7  A    between atoms: C21_27  and  O3_29
REMARK    8  A    between atoms: O3_29  and  C22_30
REMARK                            x       y       z     vdW  Elec       q    Type
REMARK                         _______ _______ _______ _____ _____    ______ ____
ROOT
ATOM      3  C   UNL     1      49.152  18.073  19.247  0.00  0.00    -0.002 C 
ATOM      4  C   UNL     1      47.635  17.860  19.216  0.00  0.00    +0.272 C 
ATOM      5  N   UNL     1      47.370  16.475  18.776  0.00  0.00    -0.388 N 
ATOM      6  H   UNL     1      47.887  15.829  19.384  0.00  0.00    +0.431 HD
ATOM      7  C   UNL     1      47.836  16.292  17.383  0.00  0.00    +0.268 C 
ATOM      8  C   UNL     1      49.358  16.442  17.364  0.00  0.00    +0.071 C 
ATOM      9  C   UNL     1      47.450  14.904  16.937  0.00  0.00    +0.022 A 
ATOM     10  N   UNL     1      47.965  14.195  15.886  0.00  0.00    -0.563 N 
ATOM     11  H   UNL     1      48.660  14.512  15.287  0.00  0.00    +0.422 HD
ATOM     12  C   UNL     1      47.354  12.977  15.807  0.00  0.00    +0.112 A 
ATOM     13  C   UNL     1      47.514  11.907  14.928  0.00  0.00    +0.006 A 
ATOM     14  C   UNL     1      46.715  10.797  15.137  0.00  0.00    +0.049 A 
ATOM     15  C   UNL     1      45.792  10.736  16.168  0.00  0.00    -0.009 A 
ATOM     16  C   UNL     1      45.611  11.773  17.049  0.00  0.00    +0.070 A 
ATOM     17  C   UNL     1      46.407  12.908  16.862  0.00  0.00    -0.101 A 
ATOM     18  C   UNL     1      46.503  14.168  17.564  0.00  0.00    -0.157 A 
ATOM     19  C   UNL     1      45.734  14.652  18.768  0.00  0.00    +0.149 C 
ATOM     20  C   UNL     1      45.922  16.171  18.878  0.00  0.00    +0.270 C 
ATOM     21  C   UNL     1      49.727  17.849  17.846  0.00  0.00    +0.079 C 
ENDROOT
BRANCH   3   2
ATOM      1  C   UNL     1      48.420  20.457  19.109  0.00  0.00    +0.020 C 
ATOM      2  C   UNL     1      49.457  19.501  19.701  0.00  0.00    +0.039 C 
ENDBRANCH   3   2
BRANCH  21  22
ATOM     22  C   UNL     1      51.226  17.989  17.888  0.00  0.00    -0.275 C 
ATOM     27  C   UNL     1      51.944  17.275  18.775  0.00  0.00    +0.327 C 
BRANCH  22  23
ATOM     23  C   UNL     1      51.881  18.870  16.994  0.00  0.00    +0.504 C 
ATOM     26  O   UNL     1      52.116  18.517  15.854  0.00  0.00    -0.487 OA
BRANCH  23  24
ATOM     24  O   UNL     1      52.245  20.102  17.408  0.00  0.00    -0.370 OA
ATOM     25  C   UNL     1      51.414  21.193  17.006  0.00  0.00    +0.257 C 
ENDBRANCH  23  24
ENDBRANCH  22  23
BRANCH  27  28
ATOM     28  O   UNL     1      53.286  17.400  18.813  0.00  0.00    -0.280 OA
ATOM     29  C   UNL     1      54.031  16.314  19.424  0.00  0.00    +0.264 C 
ENDBRANCH  27  28
ENDBRANCH  21  22
TORSDOF 5
ENDMDL
MODEL 2
REMARK VINA RESULT:      -5.6      3.306      7.086
REMARK  Name = ZINC04804529
REMARK  8 active torsions:
REMARK  status: ('A' for Active; 'I' for Inactive)
REMARK    1  A    between atoms: C1_1  and  C2_2
REMARK    2  A    between atoms: C2_2  and  C3_3
REMARK    3  A    between atoms: C17_21  and  C18_23
REMARK    4  A    between atoms: C18_23  and  C21_27
REMARK    5  A    between atoms: C19_24  and  O1_25
REMARK    6  A    between atoms: O1_25  and  C20_26
REMARK    7  A    between atoms: C21_27  and  O3_29
REMARK    8  A    between atoms: O3_29  and  C22_30
REMARK                            x       y       z     vdW  Elec       q    Type
REMARK                         _______ _______ _______ _____ _____    ______ ____
ROOT
ATOM      3  C   UNL     1      48.592  13.283  15.719  0.00  0.00    -0.002 C 
ATOM      4  C   UNL     1      47.735  14.063  16.721  0.00  0.00    +0.272 C 
ATOM      5  N   UNL     1      48.324  15.409  16.884  0.00  0.00    -0.388 N 
ATOM      6  H   UNL     1      48.416  15.845  15.959  0.00  0.00    +0.431 HD
ATOM      7  C   UNL     1      49.668  15.300  17.494  0.00  0.00    +0.268 C 
ATOM      8  C   UNL     1      50.583  14.570  16.509  0.00  0.00    +0.071 C 
ATOM      9  C   UNL     1      50.185  16.694  17.743  0.00  0.00    +0.022 A 
ATOM     10  N   UNL     1      51.482  17.073  17.960  0.00  0.00    -0.563 N 
ATOM     11  H   UNL     1      52.243  16.471  17.979  0.00  0.00    +0.422 HD
ATOM     12  C   UNL     1      51.544  18.424  18.145  0.00  0.00    +0.112 A 
ATOM     13  C   UNL     1      52.611  19.284  18.399  0.00  0.00    +0.006 A 
ATOM     14  C   UNL     1      52.315  20.629  18.536  0.00  0.00    +0.049 A 
ATOM     15  C   UNL     1      51.022  21.114  18.431  0.00  0.00    -0.009 A 
ATOM     16  C   UNL     1      49.951  20.292  18.183  0.00  0.00    +0.070 A 
ATOM     17  C   UNL     1      50.221  18.927  18.038  0.00  0.00    -0.101 A 
ATOM     18  C   UNL     1      49.380  17.781  17.778  0.00  0.00    -0.157 A 
ATOM     19  C   UNL     1      47.887  17.718  17.575  0.00  0.00    +0.149 C 
ATOM     20  C   UNL     1      47.444  16.256  17.725  0.00  0.00    +0.270 C 
ATOM     21  C   UNL     1      50.022  13.168  16.252  0.00  0.00    +0.079 C 
ENDROOT
BRANCH   3   2
ATOM      1  C   UNL     1      47.071  11.558  16.697  0.00  0.00    +0.020 C 
ATOM      2  C   UNL     1      48.005  11.883  15.529  0.00  0.00    +0.039 C 
ENDBRANCH   3   2
BRANCH  21  22
ATOM     22  C   UNL     1      50.883  12.462  15.237  0.00  0.00    -0.275 C 
ATOM     27  C   UNL     1      51.371  11.236  15.503  0.00  0.00    +0.327 C 
BRANCH  22  23
ATOM     23  C   UNL     1      51.177  13.087  14.000  0.00  0.00    +0.504 C 
ATOM     26  O   UNL     1      52.200  13.733  13.873  0.00  0.00    -0.487 OA
BRANCH  23  24
ATOM     24  O   UNL     1      50.322  12.966  12.964  0.00  0.00    -0.370 OA
ATOM     25  C   UNL     1      50.894  12.916  11.654  0.00  0.00    +0.257 C 
ENDBRANCH  23  24
ENDBRANCH  22  23
BRANCH  27  28
ATOM     28  O   UNL     1      52.140  10.605  14.594  0.00  0.00    -0.280 OA
ATOM     29  C   UNL     1      53.497  10.277  14.993  0.00  0.00    +0.264 C 
ENDBRANCH  27  28
ENDBRANCH  21  22
TORSDOF 5
ENDMDL
MODEL 3
REMARK VINA RESULT:      -5.5      3.400      7.351
REMARK  Name = ZINC04804529
REMARK  8 active torsions:
REMARK  status: ('A' for Active; 'I' for Inactive)
REMARK    1  A    between atoms: C1_1  and  C2_2
REMARK    2  A    between atoms: C2_2  and  C3_3
REMARK    3  A    between atoms: C17_21  and  C18_23
REMARK    4  A    between atoms: C18_23  and  C21_27
REMARK    5  A    between atoms: C19_24  and  O1_25
REMARK    6  A    between atoms: O1_25  and  C20_26
REMARK    7  A    between atoms: C21_27  and  O3_29
REMARK    8  A    between atoms: O3_29  and  C22_30
REMARK                            x       y       z     vdW  Elec       q    Type
REMARK                         _______ _______ _______ _____ _____    ______ ____
ROOT
ATOM      3  C   UNL     1      48.309  13.306  15.681  0.00  0.00    -0.002 C 
ATOM      4  C   UNL     1      47.592  14.026  16.827  0.00  0.00    +0.272 C 
ATOM      5  N   UNL     1      48.181  15.375  16.967  0.00  0.00    -0.388 N 
ATOM      6  H   UNL     1      48.136  15.852  16.059  0.00  0.00    +0.431 HD
ATOM      7  C   UNL     1      49.598  15.265  17.378  0.00  0.00    +0.268 C 
ATOM      8  C   UNL     1      50.375  14.595  16.242  0.00  0.00    +0.071 C 
ATOM      9  C   UNL     1      50.129  16.656  17.613  0.00  0.00    +0.022 A 
ATOM     10  N   UNL     1      51.438  17.050  17.664  0.00  0.00    -0.563 N 
ATOM     11  H   UNL     1      52.202  16.462  17.549  0.00  0.00    +0.422 HD
ATOM     12  C   UNL     1      51.508  18.392  17.900  0.00  0.00    +0.112 A 
ATOM     13  C   UNL     1      52.589  19.261  18.040  0.00  0.00    +0.006 A 
ATOM     14  C   UNL     1      52.299  20.593  18.278  0.00  0.00    +0.049 A 
ATOM     15  C   UNL     1      50.998  21.058  18.377  0.00  0.00    -0.009 A 
ATOM     16  C   UNL     1      49.913  20.227  18.244  0.00  0.00    +0.070 A 
ATOM     17  C   UNL     1      50.177  18.875  18.002  0.00  0.00    -0.101 A 
ATOM     18  C   UNL     1      49.323  17.725  17.810  0.00  0.00    -0.157 A 
ATOM     19  C   UNL     1      47.817  17.644  17.815  0.00  0.00    +0.149 C 
ATOM     20  C   UNL     1      47.418  16.168  17.960  0.00  0.00    +0.270 C 
ATOM     21  C   UNL     1      49.802  13.195  16.003  0.00  0.00    +0.079 C 
ENDROOT
BRANCH   3   2
ATOM      1  C   UNL     1      46.494  11.754  16.417  0.00  0.00    +0.020 C 
ATOM      2  C   UNL     1      47.719  11.904  15.512  0.00  0.00    +0.039 C 
ENDBRANCH   3   2
BRANCH  21  22
ATOM     22  C   UNL     1      50.519  12.549  14.846  0.00  0.00    -0.275 C 
ATOM     27  C   UNL     1      50.459  13.104  13.621  0.00  0.00    +0.327 C 
BRANCH  22  23
ATOM     23  C   UNL     1      51.259  11.358  15.048  0.00  0.00    +0.504 C 
ATOM     26  O   UNL     1      50.721  10.277  14.904  0.00  0.00    -0.487 OA
BRANCH  23  24
ATOM     24  O   UNL     1      52.560  11.424  15.399  0.00  0.00    -0.370 OA
ATOM     25  C   UNL     1      52.970  10.638  16.520  0.00  0.00    +0.257 C 
ENDBRANCH  23  24
ENDBRANCH  22  23
BRANCH  27  28
ATOM     28  O   UNL     1      51.102  12.526  12.587  0.00  0.00    -0.280 OA
ATOM     29  C   UNL     1      50.699  12.930  11.252  0.00  0.00    +0.264 C 
ENDBRANCH  27  28
ENDBRANCH  21  22
TORSDOF 5
ENDMDL
MODEL 4
REMARK VINA RESULT:      -5.5      1.721      2.238
REMARK  Name = ZINC04804529
REMARK  8 active torsions:
REMARK  status: ('A' for Active; 'I' for Inactive)
REMARK    1  A    between atoms: C1_1  and  C2_2
REMARK    2  A    between atoms: C2_2  and  C3_3
REMARK    3  A    between atoms: C17_21  and  C18_23
REMARK    4  A    between atoms: C18_23  and  C21_27
REMARK    5  A    between atoms: C19_24  and  O1_25
REMARK    6  A    between atoms: O1_25  and  C20_26
REMARK    7  A    between atoms: C21_27  and  O3_29
REMARK    8  A    between atoms: O3_29  and  C22_30
REMARK                            x       y       z     vdW  Elec       q    Type
REMARK                         _______ _______ _______ _____ _____    ______ ____
ROOT
ATOM      3  C   UNL     1      48.166  19.646  20.169  0.00  0.00    -0.002 C 
ATOM      4  C   UNL     1      46.701  19.212  20.067  0.00  0.00    +0.272 C 
ATOM      5  N   UNL     1      46.664  17.800  19.632  0.00  0.00    -0.388 N 
ATOM      6  H   UNL     1      47.239  17.241  20.274  0.00  0.00    +0.431 HD
ATOM      7  C   UNL     1      47.220  17.680  18.266  0.00  0.00    +0.268 C 
ATOM      8  C   UNL     1      48.703  18.053  18.319  0.00  0.00    +0.071 C 
ATOM      9  C   UNL     1      47.066  16.248  17.820  0.00  0.00    +0.022 A 
ATOM     10  N   UNL     1      47.730  15.617  16.805  0.00  0.00    -0.563 N 
ATOM     11  H   UNL     1      48.400  16.029  16.235  0.00  0.00    +0.422 HD
ATOM     12  C   UNL     1      47.310  14.322  16.711  0.00  0.00    +0.112 A 
ATOM     13  C   UNL     1      47.669  13.282  15.855  0.00  0.00    +0.006 A 
ATOM     14  C   UNL     1      47.032  12.067  16.040  0.00  0.00    +0.049 A 
ATOM     15  C   UNL     1      46.078  11.877  17.026  0.00  0.00    -0.009 A 
ATOM     16  C   UNL     1      45.703  12.881  17.883  0.00  0.00    +0.070 A 
ATOM     17  C   UNL     1      46.332  14.120  17.720  0.00  0.00    -0.101 A 
ATOM     18  C   UNL     1      46.206  15.384  18.410  0.00  0.00    -0.157 A 
ATOM     19  C   UNL     1      45.316  15.756  19.569  0.00  0.00    +0.149 C 
ATOM     20  C   UNL     1      45.273  17.287  19.668  0.00  0.00    +0.270 C 
ATOM     21  C   UNL     1      48.837  19.502  18.800  0.00  0.00    +0.079 C 
ENDROOT
BRANCH   3   2
ATOM      1  C   UNL     1      46.818  21.640  20.839  0.00  0.00    +0.020 C 
ATOM      2  C   UNL     1      48.235  21.107  20.619  0.00  0.00    +0.039 C 
ENDBRANCH   3   2
BRANCH  21  22
ATOM     22  C   UNL     1      50.295  19.861  18.913  0.00  0.00    -0.275 C 
ATOM     27  C   UNL     1      50.920  19.774  20.102  0.00  0.00    +0.327 C 
BRANCH  22  23
ATOM     23  C   UNL     1      51.010  20.290  17.768  0.00  0.00    +0.504 C 
ATOM     26  O   UNL     1      50.977  21.459  17.433  0.00  0.00    -0.487 OA
BRANCH  23  24
ATOM     24  O   UNL     1      51.727  19.401  17.050  0.00  0.00    -0.370 OA
ATOM     25  C   UNL     1      52.177  19.823  15.760  0.00  0.00    +0.257 C 
ENDBRANCH  23  24
ENDBRANCH  22  23
BRANCH  27  28
ATOM     28  O   UNL     1      52.225  20.095  20.203  0.00  0.00    -0.280 OA
ATOM     29  C   UNL     1      52.556  21.273  20.984  0.00  0.00    +0.264 C 
ENDBRANCH  27  28
ENDBRANCH  21  22
TORSDOF 5
ENDMDL
MODEL 5
REMARK VINA RESULT:      -5.3      3.745      7.690
REMARK  Name = ZINC04804529
REMARK  8 active torsions:
REMARK  status: ('A' for Active; 'I' for Inactive)
REMARK    1  A    between atoms: C1_1  and  C2_2
REMARK    2  A    between atoms: C2_2  and  C3_3
REMARK    3  A    between atoms: C17_21  and  C18_23
REMARK    4  A    between atoms: C18_23  and  C21_27
REMARK    5  A    between atoms: C19_24  and  O1_25
REMARK    6  A    between atoms: O1_25  and  C20_26
REMARK    7  A    between atoms: C21_27  and  O3_29
REMARK    8  A    between atoms: O3_29  and  C22_30
REMARK                            x       y       z     vdW  Elec       q    Type
REMARK                         _______ _______ _______ _____ _____    ______ ____
ROOT
ATOM      3  C   UNL     1      50.560  12.615  17.925  0.00  0.00    -0.002 C 
ATOM      4  C   UNL     1      51.367  13.344  19.003  0.00  0.00    +0.272 C 
ATOM      5  N   UNL     1      51.216  14.799  18.791  0.00  0.00    -0.388 N 
ATOM      6  H   UNL     1      50.215  15.028  18.769  0.00  0.00    +0.431 HD
ATOM      7  C   UNL     1      51.822  15.184  17.497  0.00  0.00    +0.268 C 
ATOM      8  C   UNL     1      51.018  14.523  16.376  0.00  0.00    +0.071 C 
ATOM      9  C   UNL     1      51.744  16.685  17.371  0.00  0.00    +0.022 A 
ATOM     10  N   UNL     1      51.857  17.430  16.229  0.00  0.00    -0.563 N 
ATOM     11  H   UNL     1      52.004  17.069  15.340  0.00  0.00    +0.422 HD
ATOM     12  C   UNL     1      51.732  18.756  16.528  0.00  0.00    +0.112 A 
ATOM     13  C   UNL     1      51.774  19.900  15.734  0.00  0.00    +0.006 A 
ATOM     14  C   UNL     1      51.607  21.116  16.373  0.00  0.00    +0.049 A 
ATOM     15  C   UNL     1      51.407  21.208  17.741  0.00  0.00    -0.009 A 
ATOM     16  C   UNL     1      51.361  20.100  18.549  0.00  0.00    +0.070 A 
ATOM     17  C   UNL     1      51.526  18.857  17.929  0.00  0.00    -0.101 A 
ATOM     18  C   UNL     1      51.541  17.501  18.430  0.00  0.00    -0.157 A 
ATOM     19  C   UNL     1      51.371  17.005  19.844  0.00  0.00    +0.149 C 
ATOM     20  C   UNL     1      51.853  15.548  19.901  0.00  0.00    +0.270 C 
ATOM     21  C   UNL     1      51.090  13.001  16.541  0.00  0.00    +0.079 C 
ENDROOT
BRANCH   3   2
ATOM      1  C   UNL     1      49.426  10.557  18.773  0.00  0.00    +0.020 C 
ATOM      2  C   UNL     1      50.696  11.104  18.119  0.00  0.00    +0.039 C 
ENDBRANCH   3   2
BRANCH  21  22
ATOM     22  C   UNL     1      50.253  12.341  15.478  0.00  0.00    -0.275 C 
ATOM     27  C   UNL     1      48.911  12.346  15.577  0.00  0.00    +0.327 C 
BRANCH  22  23
ATOM     23  C   UNL     1      50.878  11.714  14.372  0.00  0.00    +0.504 C 
ATOM     26  O   UNL     1      50.898  10.500  14.292  0.00  0.00    -0.487 OA
BRANCH  23  24
ATOM     24  O   UNL     1      51.450  12.464  13.407  0.00  0.00    -0.370 OA
ATOM     25  C   UNL     1      50.598  12.934  12.360  0.00  0.00    +0.257 C 
ENDBRANCH  23  24
ENDBRANCH  22  23
BRANCH  27  28
ATOM     28  O   UNL     1      48.162  11.756  14.625  0.00  0.00    -0.280 OA
ATOM     29  C   UNL     1      46.903  11.167  15.047  0.00  0.00    +0.264 C 
ENDBRANCH  27  28
ENDBRANCH  21  22
TORSDOF 5
ENDMDL
MODEL 6
REMARK VINA RESULT:      -5.2      4.285      6.131
REMARK  Name = ZINC04804529
REMARK  8 active torsions:
REMARK  status: ('A' for Active; 'I' for Inactive)
REMARK    1  A    between atoms: C1_1  and  C2_2
REMARK    2  A    between atoms: C2_2  and  C3_3
REMARK    3  A    between atoms: C17_21  and  C18_23
REMARK    4  A    between atoms: C18_23  and  C21_27
REMARK    5  A    between atoms: C19_24  and  O1_25
REMARK    6  A    between atoms: O1_25  and  C20_26
REMARK    7  A    between atoms: C21_27  and  O3_29
REMARK    8  A    between atoms: O3_29  and  C22_30
REMARK                            x       y       z     vdW  Elec       q    Type
REMARK                         _______ _______ _______ _____ _____    ______ ____
ROOT
ATOM      3  C   UNL     1      48.645  17.398  20.356  0.00  0.00    -0.002 C 
ATOM      4  C   UNL     1      47.622  17.193  21.477  0.00  0.00    +0.272 C 
ATOM      5  N   UNL     1      46.305  17.658  20.994  0.00  0.00    -0.388 N 
ATOM      6  H   UNL     1      46.086  17.176  20.114  0.00  0.00    +0.431 HD
ATOM      7  C   UNL     1      46.348  19.115  20.742  0.00  0.00    +0.268 C 
ATOM      8  C   UNL     1      47.320  19.373  19.589  0.00  0.00    +0.071 C 
ATOM      9  C   UNL     1      44.961  19.566  20.356  0.00  0.00    +0.022 A 
ATOM     10  N   UNL     1      44.611  20.723  19.716  0.00  0.00    -0.563 N 
ATOM     11  H   UNL     1      45.233  21.409  19.425  0.00  0.00    +0.422 HD
ATOM     12  C   UNL     1      43.257  20.767  19.548  0.00  0.00    +0.112 A 
ATOM     13  C   UNL     1      42.418  21.716  18.967  0.00  0.00    +0.006 A 
ATOM     14  C   UNL     1      41.062  21.439  18.964  0.00  0.00    +0.049 A 
ATOM     15  C   UNL     1      40.546  20.276  19.513  0.00  0.00    -0.009 A 
ATOM     16  C   UNL     1      41.346  19.324  20.092  0.00  0.00    +0.070 A 
ATOM     17  C   UNL     1      42.722  19.577  20.108  0.00  0.00    -0.101 A 
ATOM     18  C   UNL     1      43.853  18.834  20.616  0.00  0.00    -0.157 A 
ATOM     19  C   UNL     1      43.882  17.497  21.313  0.00  0.00    +0.149 C 
ATOM     20  C   UNL     1      45.251  17.338  21.987  0.00  0.00    +0.270 C 
ATOM     21  C   UNL     1      48.714  18.883  19.993  0.00  0.00    +0.079 C 
ENDROOT
BRANCH   3   2
ATOM      1  C   UNL     1      50.364  17.598  22.157  0.00  0.00    +0.020 C 
ATOM      2  C   UNL     1      50.021  16.923  20.828  0.00  0.00    +0.039 C 
ENDBRANCH   3   2
BRANCH  21  22
ATOM     22  C   UNL     1      49.668  19.077  18.843  0.00  0.00    -0.275 C 
ATOM     27  C   UNL     1      49.649  18.225  17.802  0.00  0.00    +0.327 C 
BRANCH  22  23
ATOM     23  C   UNL     1      50.584  20.158  18.857  0.00  0.00    +0.504 C 
ATOM     26  O   UNL     1      50.281  21.219  18.345  0.00  0.00    -0.487 OA
BRANCH  23  24
ATOM     24  O   UNL     1      51.792  20.009  19.438  0.00  0.00    -0.370 OA
ATOM     25  C   UNL     1      52.560  21.196  19.650  0.00  0.00    +0.257 C 
ENDBRANCH  23  24
ENDBRANCH  22  23
BRANCH  27  28
ATOM     28  O   UNL     1      50.502  18.400  16.773  0.00  0.00    -0.280 OA
ATOM     29  C   UNL     1      51.546  17.405  16.606  0.00  0.00    +0.264 C 
ENDBRANCH  27  28
ENDBRANCH  21  22
TORSDOF 5
ENDMDL
MODEL 7
REMARK VINA RESULT:      -5.1      3.624      7.436
REMARK  Name = ZINC04804529
REMARK  8 active torsions:
REMARK  status: ('A' for Active; 'I' for Inactive)
REMARK    1  A    between atoms: C1_1  and  C2_2
REMARK    2  A    between atoms: C2_2  and  C3_3
REMARK    3  A    between atoms: C17_21  and  C18_23
REMARK    4  A    between atoms: C18_23  and  C21_27
REMARK    5  A    between atoms: C19_24  and  O1_25
REMARK    6  A    between atoms: O1_25  and  C20_26
REMARK    7  A    between atoms: C21_27  and  O3_29
REMARK    8  A    between atoms: O3_29  and  C22_30
REMARK                            x       y       z     vdW  Elec       q    Type
REMARK                         _______ _______ _______ _____ _____    ______ ____
ROOT
ATOM      3  C   UNL     1      49.068  14.819  17.762  0.00  0.00    -0.002 C 
ATOM      4  C   UNL     1      49.692  16.202  17.554  0.00  0.00    +0.272 C 
ATOM      5  N   UNL     1      48.801  17.209  18.168  0.00  0.00    -0.388 N 
ATOM      6  H   UNL     1      48.634  16.951  19.148  0.00  0.00    +0.431 HD
ATOM      7  C   UNL     1      47.504  17.235  17.455  0.00  0.00    +0.268 C 
ATOM      8  C   UNL     1      46.811  15.889  17.674  0.00  0.00    +0.071 C 
ATOM      9  C   UNL     1      46.669  18.345  18.041  0.00  0.00    +0.022 A 
ATOM     10  N   UNL     1      45.314  18.509  17.939  0.00  0.00    -0.563 N 
ATOM     11  H   UNL     1      44.715  17.911  17.464  0.00  0.00    +0.422 HD
ATOM     12  C   UNL     1      44.934  19.639  18.604  0.00  0.00    +0.112 A 
ATOM     13  C   UNL     1      43.689  20.237  18.793  0.00  0.00    +0.006 A 
ATOM     14  C   UNL     1      43.659  21.403  19.537  0.00  0.00    +0.049 A 
ATOM     15  C   UNL     1      44.805  21.965  20.074  0.00  0.00    -0.009 A 
ATOM     16  C   UNL     1      46.044  21.400  19.905  0.00  0.00    +0.070 A 
ATOM     17  C   UNL     1      46.105  20.219  19.157  0.00  0.00    -0.101 A 
ATOM     18  C   UNL     1      47.197  19.355  18.772  0.00  0.00    -0.157 A 
ATOM     19  C   UNL     1      48.668  19.479  19.079  0.00  0.00    +0.149 C 
ATOM     20  C   UNL     1      49.436  18.549  18.130  0.00  0.00    +0.270 C 
ATOM     21  C   UNL     1      47.690  14.775  17.096  0.00  0.00    +0.079 C 
ENDROOT
BRANCH   3   2
ATOM      1  C   UNL     1      51.074  14.434  16.323  0.00  0.00    +0.020 C 
ATOM      2  C   UNL     1      49.971  13.754  17.136  0.00  0.00    +0.039 C 
ENDBRANCH   3   2
BRANCH  21  22
ATOM     22  C   UNL     1      47.046  13.439  17.358  0.00  0.00    -0.275 C 
ATOM     27  C   UNL     1      46.805  12.595  16.338  0.00  0.00    +0.327 C 
BRANCH  22  23
ATOM     23  C   UNL     1      46.694  13.070  18.680  0.00  0.00    +0.504 C 
ATOM     26  O   UNL     1      47.513  12.531  19.400  0.00  0.00    -0.487 OA
BRANCH  23  24
ATOM     24  O   UNL     1      45.450  13.318  19.140  0.00  0.00    -0.370 OA
ATOM     25  C   UNL     1      45.338  13.801  20.480  0.00  0.00    +0.257 C 
ENDBRANCH  23  24
ENDBRANCH  22  23
BRANCH  27  28
ATOM     28  O   UNL     1      46.229  11.400  16.574  0.00  0.00    -0.280 OA
ATOM     29  C   UNL     1      45.827  10.622  15.415  0.00  0.00    +0.264 C 
ENDBRANCH  27  28
ENDBRANCH  21  22
TORSDOF 5
ENDMDL
MODEL 8
REMARK VINA RESULT:      -5.1      2.332      6.368
REMARK  Name = ZINC04804529
REMARK  8 active torsions:
REMARK  status: ('A' for Active; 'I' for Inactive)
REMARK    1  A    between atoms: C1_1  and  C2_2
REMARK    2  A    between atoms: C2_2  and  C3_3
REMARK    3  A    between atoms: C17_21  and  C18_23
REMARK    4  A    between atoms: C18_23  and  C21_27
REMARK    5  A    between atoms: C19_24  and  O1_25
REMARK    6  A    between atoms: O1_25  and  C20_26
REMARK    7  A    between atoms: C21_27  and  O3_29
REMARK    8  A    between atoms: O3_29  and  C22_30
REMARK                            x       y       z     vdW  Elec       q    Type
REMARK                         _______ _______ _______ _____ _____    ______ ____
ROOT
ATOM      3  C   UNL     1      49.536  16.593  17.560  0.00  0.00    -0.002 C 
ATOM      4  C   UNL     1      48.020  16.460  17.727  0.00  0.00    +0.272 C 
ATOM      5  N   UNL     1      47.473  17.790  18.069  0.00  0.00    -0.388 N 
ATOM      6  H   UNL     1      47.773  18.465  17.355  0.00  0.00    +0.431 HD
ATOM      7  C   UNL     1      47.992  18.225  19.385  0.00  0.00    +0.268 C 
ATOM      8  C   UNL     1      49.504  18.424  19.261  0.00  0.00    +0.071 C 
ATOM      9  C   UNL     1      47.328  19.530  19.743  0.00  0.00    +0.022 A 
ATOM     10  N   UNL     1      47.744  20.447  20.669  0.00  0.00    -0.563 N 
ATOM     11  H   UNL     1      48.539  20.363  21.220  0.00  0.00    +0.422 HD
ATOM     12  C   UNL     1      46.873  21.498  20.703  0.00  0.00    +0.112 A 
ATOM     13  C   UNL     1      46.847  22.666  21.463  0.00  0.00    +0.006 A 
ATOM     14  C   UNL     1      45.796  23.538  21.240  0.00  0.00    +0.049 A 
ATOM     15  C   UNL     1      44.806  23.276  20.307  0.00  0.00    -0.009 A 
ATOM     16  C   UNL     1      44.804  22.135  19.545  0.00  0.00    +0.070 A 
ATOM     17  C   UNL     1      45.855  21.235  19.749  0.00  0.00    -0.101 A 
ATOM     18  C   UNL     1      46.188  19.960  19.155  0.00  0.00    -0.157 A 
ATOM     19  C   UNL     1      45.461  19.188  18.083  0.00  0.00    +0.149 C 
ATOM     20  C   UNL     1      45.991  17.747  18.089  0.00  0.00    +0.270 C 
ATOM     21  C   UNL     1      50.152  17.092  18.870  0.00  0.00    +0.079 C 
ENDROOT
BRANCH   3   2
ATOM      1  C   UNL     1      49.013  14.286  16.754  0.00  0.00    +0.020 C 
ATOM      2  C   UNL     1      50.131  15.229  17.205  0.00  0.00    +0.039 C 
ENDBRANCH   3   2
BRANCH  21  22
ATOM     22  C   UNL     1      51.634  17.290  18.686  0.00  0.00    -0.275 C 
ATOM     27  C   UNL     1      52.504  16.457  19.286  0.00  0.00    +0.327 C 
BRANCH  22  23
ATOM     23  C   UNL     1      52.112  18.353  17.881  0.00  0.00    +0.504 C 
ATOM     26  O   UNL     1      52.643  19.317  18.399  0.00  0.00    -0.487 OA
BRANCH  23  24
ATOM     24  O   UNL     1      51.979  18.295  16.540  0.00  0.00    -0.370 OA
ATOM     25  C   UNL     1      52.124  19.522  15.821  0.00  0.00    +0.257 C 
ENDBRANCH  23  24
ENDBRANCH  22  23
BRANCH  27  28
ATOM     28  O   UNL     1      53.830  16.634  19.120  0.00  0.00    -0.280 OA
ATOM     29  C   UNL     1      54.704  15.600  19.646  0.00  0.00    +0.264 C 
ENDBRANCH  27  28
ENDBRANCH  21  22
TORSDOF 5
ENDMDL
MODEL 9
REMARK VINA RESULT:      -5.0      5.052      7.216
REMARK  Name = ZINC04804529
REMARK  8 active torsions:
REMARK  status: ('A' for Active; 'I' for Inactive)
REMARK    1  A    between atoms: C1_1  and  C2_2
REMARK    2  A    between atoms: C2_2  and  C3_3
REMARK    3  A    between atoms: C17_21  and  C18_23
REMARK    4  A    between atoms: C18_23  and  C21_27
REMARK    5  A    between atoms: C19_24  and  O1_25
REMARK    6  A    between atoms: O1_25  and  C20_26
REMARK    7  A    between atoms: C21_27  and  O3_29
REMARK    8  A    between atoms: O3_29  and  C22_30
REMARK                            x       y       z     vdW  Elec       q    Type
REMARK                         _______ _______ _______ _____ _____    ______ ____
ROOT
ATOM      3  C   UNL     1      43.312  18.640  21.586  0.00  0.00    -0.002 C 
ATOM      4  C   UNL     1      43.610  17.213  22.054  0.00  0.00    +0.272 C 
ATOM      5  N   UNL     1      44.933  16.819  21.526  0.00  0.00    -0.388 N 
ATOM      6  H   UNL     1      45.626  17.522  21.809  0.00  0.00    +0.431 HD
ATOM      7  C   UNL     1      44.888  16.763  20.048  0.00  0.00    +0.268 C 
ATOM      8  C   UNL     1      44.643  18.179  19.522  0.00  0.00    +0.071 C 
ATOM      9  C   UNL     1      46.220  16.255  19.557  0.00  0.00    +0.022 A 
ATOM     10  N   UNL     1      46.740  16.369  18.296  0.00  0.00    -0.563 N 
ATOM     11  H   UNL     1      46.300  16.804  17.549  0.00  0.00    +0.422 HD
ATOM     12  C   UNL     1      47.970  15.778  18.248  0.00  0.00    +0.112 A 
ATOM     13  C   UNL     1      48.893  15.625  17.215  0.00  0.00    +0.006 A 
ATOM     14  C   UNL     1      50.069  14.960  17.516  0.00  0.00    +0.049 A 
ATOM     15  C   UNL     1      50.331  14.462  18.782  0.00  0.00    -0.009 A 
ATOM     16  C   UNL     1      49.442  14.597  19.819  0.00  0.00    +0.070 A 
ATOM     17  C   UNL     1      48.245  15.266  19.543  0.00  0.00    -0.101 A 
ATOM     18  C   UNL     1      47.094  15.596  20.353  0.00  0.00    -0.157 A 
ATOM     19  C   UNL     1      46.834  15.300  21.809  0.00  0.00    +0.149 C 
ATOM     20  C   UNL     1      45.336  15.503  22.079  0.00  0.00    +0.270 C 
ATOM     21  C   UNL     1      43.299  18.684  20.056  0.00  0.00    +0.079 C 
ENDROOT
BRANCH   3   2
ATOM      1  C   UNL     1      40.851  18.217  21.482  0.00  0.00    +0.020 C 
ATOM      2  C   UNL     1      41.946  19.076  22.120  0.00  0.00    +0.039 C 
ENDBRANCH   3   2
BRANCH  21  22
ATOM     22  C   UNL     1      43.075  20.100  19.594  0.00  0.00    -0.275 C 
ATOM     27  C   UNL     1      43.982  21.053  19.879  0.00  0.00    +0.327 C 
BRANCH  22  23
ATOM     23  C   UNL     1      41.911  20.429  18.858  0.00  0.00    +0.504 C 
ATOM     26  O   UNL     1      41.796  20.063  17.704  0.00  0.00    -0.487 OA
BRANCH  23  24
ATOM     24  O   UNL     1      40.929  21.150  19.438  0.00  0.00    -0.370 OA
ATOM     25  C   UNL     1      39.792  21.465  18.631  0.00  0.00    +0.257 C 
ENDBRANCH  23  24
ENDBRANCH  22  23
BRANCH  27  28
ATOM     28  O   UNL     1      43.782  22.320  19.465  0.00  0.00    -0.280 OA
ATOM     29  C   UNL     1      44.695  23.330  19.969  0.00  0.00    +0.264 C 
ENDBRANCH  27  28
ENDBRANCH  21  22
TORSDOF 5
ENDMDL
