MODEL 1
REMARK VINA RESULT:      -5.9      0.000      0.000
REMARK  Name = ZINC00135449
REMARK  7 active torsions:
REMARK  status: ('A' for Active; 'I' for Inactive)
REMARK    1  A    between atoms: C1_1  and  N1_2
REMARK    2  A    between atoms: C6_7  and  O4_25
REMARK    3  A    between atoms: C7_8  and  O3_23
REMARK    4  A    between atoms: C15_17  and  O2_21
REMARK    5  A    between atoms: C16_18  and  O1_20
REMARK    6  A    between atoms: O2_21  and  C18_22
REMARK    7  A    between atoms: O3_23  and  C19_24
REMARK                            x       y       z     vdW  Elec       q    Type
REMARK                         _______ _______ _______ _____ _____    ______ ____
ROOT
ATOM      1  C   UNL     1      45.324  13.175  22.505  0.00  0.00    +0.331 C 
ATOM      2  N   UNL     1      45.969  13.861  21.378  0.00  0.00    -0.383 N 
ATOM      3  H   UNL     1      46.823  14.295  21.693  0.00  0.00    +0.426 HD
ATOM      4  C   UNL     1      46.272  12.891  20.327  0.00  0.00    +0.268 C 
ATOM      5  C   UNL     1      47.109  13.527  19.228  0.00  0.00    +0.129 C 
ATOM      6  C   UNL     1      46.674  14.933  18.927  0.00  0.00    -0.067 A 
ATOM      7  C   UNL     1      47.256  15.583  17.846  0.00  0.00    +0.023 A 
ATOM      8  C   UNL     1      46.879  16.868  17.502  0.00  0.00    +0.128 A 
ATOM     11  C   UNL     1      45.908  17.524  18.252  0.00  0.00    +0.091 A 
ATOM     14  C   UNL     1      45.338  16.883  19.349  0.00  0.00    -0.008 A 
ATOM     15  C   UNL     1      44.303  17.566  20.161  0.00  0.00    -0.029 A 
ATOM     16  C   UNL     1      43.635  18.683  19.666  0.00  0.00    -0.004 A 
ATOM     17  C   UNL     1      42.660  19.296  20.434  0.00  0.00    +0.112 A 
ATOM     20  C   UNL     1      42.350  18.792  21.695  0.00  0.00    +0.097 A 
ATOM     23  C   UNL     1      43.022  17.684  22.188  0.00  0.00    +0.047 A 
ATOM     24  C   UNL     1      44.002  17.077  21.430  0.00  0.00    -0.104 A 
ATOM     25  C   UNL     1      44.752  15.888  21.966  0.00  0.00    +0.116 C 
ATOM     26  C   UNL     1      45.719  15.580  19.682  0.00  0.00    -0.123 A 
ATOM     27  C   UNL     1      45.062  14.892  20.850  0.00  0.00    +0.241 C 
ENDROOT
BRANCH   8   9
ATOM      9  O   UNL     1      47.455  17.489  16.439  0.00  0.00    -0.485 OA
ATOM     10  H   UNL     1      48.310  17.894  16.636  0.00  0.00    +0.407 HD
ENDBRANCH   8   9
BRANCH  11  12
ATOM     12  O   UNL     1      45.517  18.782  17.915  0.00  0.00    -0.325 OA
ATOM     13  C   UNL     1      46.353  19.859  18.345  0.00  0.00    +0.246 C 
ENDBRANCH  11  12
BRANCH  17  18
ATOM     18  O   UNL     1      42.005  20.388  19.957  0.00  0.00    -0.300 OA
ATOM     19  C   UNL     1      41.664  20.385  18.569  0.00  0.00    +0.249 C 
ENDBRANCH  17  18
BRANCH  20  21
ATOM     21  O   UNL     1      41.385  19.389  22.444  0.00  0.00    -0.482 OA
ATOM     22  H   UNL     1      40.493  19.298  22.081  0.00  0.00    +0.396 HD
ENDBRANCH  20  21
TORSDOF 4
ENDMDL
MODEL 2
REMARK VINA RESULT:      -5.8      3.972      7.196
REMARK  Name = ZINC00135449
REMARK  7 active torsions:
REMARK  status: ('A' for Active; 'I' for Inactive)
REMARK    1  A    between atoms: C1_1  and  N1_2
REMARK    2  A    between atoms: C6_7  and  O4_25
REMARK    3  A    between atoms: C7_8  and  O3_23
REMARK    4  A    between atoms: C15_17  and  O2_21
REMARK    5  A    between atoms: C16_18  and  O1_20
REMARK    6  A    between atoms: O2_21  and  C18_22
REMARK    7  A    between atoms: O3_23  and  C19_24
REMARK                            x       y       z     vdW  Elec       q    Type
REMARK                         _______ _______ _______ _____ _____    ______ ____
ROOT
ATOM      1  C   UNL     1      46.536  22.358  22.260  0.00  0.00    +0.331 C 
ATOM      2  N   UNL     1      46.244  21.197  21.409  0.00  0.00    -0.383 N 
ATOM      3  H   UNL     1      46.262  20.358  21.969  0.00  0.00    +0.426 HD
ATOM      4  C   UNL     1      44.920  21.354  20.808  0.00  0.00    +0.268 C 
ATOM      5  C   UNL     1      44.504  20.088  20.076  0.00  0.00    +0.129 C 
ATOM      6  C   UNL     1      45.653  19.454  19.343  0.00  0.00    -0.067 A 
ATOM      7  C   UNL     1      45.384  18.373  18.513  0.00  0.00    +0.023 A 
ATOM      8  C   UNL     1      46.395  17.763  17.792  0.00  0.00    +0.128 A 
ATOM     11  C   UNL     1      47.699  18.234  17.903  0.00  0.00    +0.091 A 
ATOM     14  C   UNL     1      47.974  19.304  18.750  0.00  0.00    -0.008 A 
ATOM     15  C   UNL     1      49.358  19.818  18.882  0.00  0.00    -0.029 A 
ATOM     16  C   UNL     1      50.328  19.498  17.936  0.00  0.00    -0.004 A 
ATOM     17  C   UNL     1      51.610  20.003  18.069  0.00  0.00    +0.112 A 
ATOM     20  C   UNL     1      51.923  20.830  19.145  0.00  0.00    +0.097 A 
ATOM     23  C   UNL     1      50.957  21.141  20.089  0.00  0.00    +0.047 A 
ATOM     24  C   UNL     1      49.681  20.632  19.966  0.00  0.00    -0.104 A 
ATOM     25  C   UNL     1      48.632  20.946  20.998  0.00  0.00    +0.116 C 
ATOM     26  C   UNL     1      46.944  19.920  19.466  0.00  0.00    -0.123 A 
ATOM     27  C   UNL     1      47.259  21.100  20.349  0.00  0.00    +0.241 C 
ENDROOT
BRANCH   8   9
ATOM      9  O   UNL     1      46.116  16.708  16.981  0.00  0.00    -0.485 OA
ATOM     10  H   UNL     1      45.304  16.238  17.215  0.00  0.00    +0.407 HD
ENDBRANCH   8   9
BRANCH  11  12
ATOM     12  O   UNL     1      48.699  17.652  17.187  0.00  0.00    -0.325 OA
ATOM     13  C   UNL     1      49.115  16.347  17.594  0.00  0.00    +0.246 C 
ENDBRANCH  11  12
BRANCH  17  18
ATOM     18  O   UNL     1      52.562  19.691  17.150  0.00  0.00    -0.300 OA
ATOM     19  C   UNL     1      52.149  19.629  15.783  0.00  0.00    +0.249 C 
ENDBRANCH  17  18
BRANCH  20  21
ATOM     21  O   UNL     1      53.180  21.332  19.269  0.00  0.00    -0.482 OA
ATOM     22  H   UNL     1      53.690  21.324  18.447  0.00  0.00    +0.396 HD
ENDBRANCH  20  21
TORSDOF 4
ENDMDL
MODEL 3
REMARK VINA RESULT:      -5.6     22.849     25.002
REMARK  Name = ZINC00135449
REMARK  7 active torsions:
REMARK  status: ('A' for Active; 'I' for Inactive)
REMARK    1  A    between atoms: C1_1  and  N1_2
REMARK    2  A    between atoms: C6_7  and  O4_25
REMARK    3  A    between atoms: C7_8  and  O3_23
REMARK    4  A    between atoms: C15_17  and  O2_21
REMARK    5  A    between atoms: C16_18  and  O1_20
REMARK    6  A    between atoms: O2_21  and  C18_22
REMARK    7  A    between atoms: O3_23  and  C19_24
REMARK                            x       y       z     vdW  Elec       q    Type
REMARK                         _______ _______ _______ _____ _____    ______ ____
ROOT
ATOM      1  C   UNL     1      57.561  32.365   3.840  0.00  0.00    +0.331 C 
ATOM      2  N   UNL     1      56.293  32.496   4.569  0.00  0.00    -0.383 N 
ATOM      3  H   UNL     1      56.066  31.616   5.007  0.00  0.00    +0.426 HD
ATOM      4  C   UNL     1      56.424  33.531   5.594  0.00  0.00    +0.268 C 
ATOM      5  C   UNL     1      55.198  33.562   6.492  0.00  0.00    +0.129 C 
ATOM      6  C   UNL     1      53.927  33.345   5.723  0.00  0.00    -0.067 A 
ATOM      7  C   UNL     1      52.720  33.494   6.395  0.00  0.00    +0.023 A 
ATOM      8  C   UNL     1      51.515  33.333   5.736  0.00  0.00    +0.128 A 
ATOM     11  C   UNL     1      51.508  33.013   4.383  0.00  0.00    +0.091 A 
ATOM     14  C   UNL     1      52.717  32.842   3.711  0.00  0.00    -0.008 A 
ATOM     15  C   UNL     1      52.731  32.499   2.269  0.00  0.00    -0.029 A 
ATOM     16  C   UNL     1      51.593  32.678   1.486  0.00  0.00    -0.004 A 
ATOM     17  C   UNL     1      51.633  32.368   0.138  0.00  0.00    +0.112 A 
ATOM     20  C   UNL     1      52.808  31.880  -0.429  0.00  0.00    +0.097 A 
ATOM     23  C   UNL     1      53.936  31.696   0.355  0.00  0.00    +0.047 A 
ATOM     24  C   UNL     1      53.898  31.994   1.701  0.00  0.00    -0.104 A 
ATOM     25  C   UNL     1      55.111  31.776   2.565  0.00  0.00    +0.116 C 
ATOM     26  C   UNL     1      53.929  33.018   4.384  0.00  0.00    -0.123 A 
ATOM     27  C   UNL     1      55.224  32.865   3.629  0.00  0.00    +0.241 C 
ENDROOT
BRANCH   8   9
ATOM      9  O   UNL     1      50.342  33.485   6.407  0.00  0.00    -0.485 OA
ATOM     10  H   UNL     1      49.768  34.173   6.043  0.00  0.00    +0.407 HD
ENDBRANCH   8   9
BRANCH  11  12
ATOM     12  O   UNL     1      50.330  32.867   3.719  0.00  0.00    -0.325 OA
ATOM     13  C   UNL     1      49.569  34.052   3.481  0.00  0.00    +0.246 C 
ENDBRANCH  11  12
BRANCH  17  18
ATOM     18  O   UNL     1      50.525  32.539  -0.632  0.00  0.00    -0.300 OA
ATOM     19  C   UNL     1      49.651  33.614  -0.281  0.00  0.00    +0.249 C 
ENDBRANCH  17  18
BRANCH  20  21
ATOM     21  O   UNL     1      52.847  31.584  -1.756  0.00  0.00    -0.482 OA
ATOM     22  H   UNL     1      52.702  30.649  -1.954  0.00  0.00    +0.396 HD
ENDBRANCH  20  21
TORSDOF 4
ENDMDL
MODEL 4
REMARK VINA RESULT:      -5.6     22.786     24.824
REMARK  Name = ZINC00135449
REMARK  7 active torsions:
REMARK  status: ('A' for Active; 'I' for Inactive)
REMARK    1  A    between atoms: C1_1  and  N1_2
REMARK    2  A    between atoms: C6_7  and  O4_25
REMARK    3  A    between atoms: C7_8  and  O3_23
REMARK    4  A    between atoms: C15_17  and  O2_21
REMARK    5  A    between atoms: C16_18  and  O1_20
REMARK    6  A    between atoms: O2_21  and  C18_22
REMARK    7  A    between atoms: O3_23  and  C19_24
REMARK                            x       y       z     vdW  Elec       q    Type
REMARK                         _______ _______ _______ _____ _____    ______ ____
ROOT
ATOM      1  C   UNL     1      57.609  31.397   2.528  0.00  0.00    +0.331 C 
ATOM      2  N   UNL     1      56.980  32.005   3.709  0.00  0.00    -0.383 N 
ATOM      3  H   UNL     1      56.769  31.286   4.384  0.00  0.00    +0.426 HD
ATOM      4  C   UNL     1      57.897  32.978   4.301  0.00  0.00    +0.268 C 
ATOM      5  C   UNL     1      57.361  33.486   5.630  0.00  0.00    +0.129 C 
ATOM      6  C   UNL     1      55.874  33.695   5.599  0.00  0.00    -0.067 A 
ATOM      7  C   UNL     1      55.272  34.295   6.698  0.00  0.00    +0.023 A 
ATOM      8  C   UNL     1      53.911  34.537   6.718  0.00  0.00    +0.128 A 
ATOM     11  C   UNL     1      53.130  34.171   5.627  0.00  0.00    +0.091 A 
ATOM     14  C   UNL     1      53.728  33.550   4.532  0.00  0.00    -0.008 A 
ATOM     15  C   UNL     1      52.912  33.152   3.360  0.00  0.00    -0.029 A 
ATOM     16  C   UNL     1      51.640  33.682   3.167  0.00  0.00    -0.004 A 
ATOM     17  C   UNL     1      50.902  33.309   2.057  0.00  0.00    +0.112 A 
ATOM     20  C   UNL     1      51.436  32.409   1.139  0.00  0.00    +0.097 A 
ATOM     23  C   UNL     1      52.700  31.877   1.337  0.00  0.00    +0.047 A 
ATOM     24  C   UNL     1      53.435  32.238   2.448  0.00  0.00    -0.104 A 
ATOM     25  C   UNL     1      54.799  31.649   2.683  0.00  0.00    +0.116 C 
ATOM     26  C   UNL     1      55.106  33.320   4.517  0.00  0.00    -0.123 A 
ATOM     27  C   UNL     1      55.737  32.681   3.308  0.00  0.00    +0.241 C 
ENDROOT
BRANCH   8   9
ATOM      9  O   UNL     1      53.338  35.129   7.800  0.00  0.00    -0.485 OA
ATOM     10  H   UNL     1      53.854  35.045   8.613  0.00  0.00    +0.407 HD
ENDBRANCH   8   9
BRANCH  11  12
ATOM     12  O   UNL     1      51.793  34.419   5.628  0.00  0.00    -0.325 OA
ATOM     13  C   UNL     1      50.969  33.527   6.381  0.00  0.00    +0.246 C 
ENDBRANCH  11  12
BRANCH  17  18
ATOM     18  O   UNL     1      49.657  33.821   1.864  0.00  0.00    -0.300 OA
ATOM     19  C   UNL     1      49.063  34.514   2.964  0.00  0.00    +0.249 C 
ENDBRANCH  17  18
BRANCH  20  21
ATOM     21  O   UNL     1      50.713  32.051   0.043  0.00  0.00    -0.482 OA
ATOM     22  H   UNL     1      49.959  32.629  -0.136  0.00  0.00    +0.396 HD
ENDBRANCH  20  21
TORSDOF 4
ENDMDL
MODEL 5
REMARK VINA RESULT:      -5.6      3.469      6.888
REMARK  Name = ZINC00135449
REMARK  7 active torsions:
REMARK  status: ('A' for Active; 'I' for Inactive)
REMARK    1  A    between atoms: C1_1  and  N1_2
REMARK    2  A    between atoms: C6_7  and  O4_25
REMARK    3  A    between atoms: C7_8  and  O3_23
REMARK    4  A    between atoms: C15_17  and  O2_21
REMARK    5  A    between atoms: C16_18  and  O1_20
REMARK    6  A    between atoms: O2_21  and  C18_22
REMARK    7  A    between atoms: O3_23  and  C19_24
REMARK                            x       y       z     vdW  Elec       q    Type
REMARK                         _______ _______ _______ _____ _____    ______ ____
ROOT
ATOM      1  C   UNL     1      45.270  22.405  20.228  0.00  0.00    +0.331 C 
ATOM      2  N   UNL     1      45.266  20.936  20.193  0.00  0.00    -0.383 N 
ATOM      3  H   UNL     1      45.416  20.579  21.124  0.00  0.00    +0.426 HD
ATOM      4  C   UNL     1      43.975  20.465  19.692  0.00  0.00    +0.268 C 
ATOM      5  C   UNL     1      43.864  18.954  19.822  0.00  0.00    +0.129 C 
ATOM      6  C   UNL     1      45.157  18.261  19.500  0.00  0.00    -0.067 A 
ATOM      7  C   UNL     1      45.159  16.873  19.436  0.00  0.00    +0.023 A 
ATOM      8  C   UNL     1      46.312  16.178  19.119  0.00  0.00    +0.128 A 
ATOM     11  C   UNL     1      47.488  16.876  18.865  0.00  0.00    +0.091 A 
ATOM     14  C   UNL     1      47.494  18.266  18.949  0.00  0.00    -0.008 A 
ATOM     15  C   UNL     1      48.738  19.027  18.683  0.00  0.00    -0.029 A 
ATOM     16  C   UNL     1      49.807  18.431  18.020  0.00  0.00    -0.004 A 
ATOM     17  C   UNL     1      50.953  19.164  17.767  0.00  0.00    +0.112 A 
ATOM     20  C   UNL     1      51.030  20.494  18.173  0.00  0.00    +0.097 A 
ATOM     23  C   UNL     1      49.967  21.083  18.839  0.00  0.00    +0.047 A 
ATOM     24  C   UNL     1      48.827  20.352  19.103  0.00  0.00    -0.104 A 
ATOM     25  C   UNL     1      47.676  20.977  19.845  0.00  0.00    +0.116 C 
ATOM     26  C   UNL     1      46.320  18.959  19.260  0.00  0.00    -0.123 A 
ATOM     27  C   UNL     1      46.341  20.465  19.308  0.00  0.00    +0.241 C 
ENDROOT
BRANCH   8   9
ATOM      9  O   UNL     1      46.296  14.820  19.058  0.00  0.00    -0.485 OA
ATOM     10  H   UNL     1      45.414  14.433  19.138  0.00  0.00    +0.407 HD
ENDBRANCH   8   9
BRANCH  11  12
ATOM     12  O   UNL     1      48.624  16.205  18.537  0.00  0.00    -0.325 OA
ATOM     13  C   UNL     1      49.278  15.484  19.583  0.00  0.00    +0.246 C 
ENDBRANCH  11  12
BRANCH  17  18
ATOM     18  O   UNL     1      52.002  18.587  17.122  0.00  0.00    -0.300 OA
ATOM     19  C   UNL     1      51.927  18.516  15.697  0.00  0.00    +0.249 C 
ENDBRANCH  17  18
BRANCH  20  21
ATOM     21  O   UNL     1      52.153  21.216  17.915  0.00  0.00    -0.482 OA
ATOM     22  H   UNL     1      52.020  22.174  17.941  0.00  0.00    +0.396 HD
ENDBRANCH  20  21
TORSDOF 4
ENDMDL
MODEL 6
REMARK VINA RESULT:      -5.4      4.299      6.788
REMARK  Name = ZINC00135449
REMARK  7 active torsions:
REMARK  status: ('A' for Active; 'I' for Inactive)
REMARK    1  A    between atoms: C1_1  and  N1_2
REMARK    2  A    between atoms: C6_7  and  O4_25
REMARK    3  A    between atoms: C7_8  and  O3_23
REMARK    4  A    between atoms: C15_17  and  O2_21
REMARK    5  A    between atoms: C16_18  and  O1_20
REMARK    6  A    between atoms: O2_21  and  C18_22
REMARK    7  A    between atoms: O3_23  and  C19_24
REMARK                            x       y       z     vdW  Elec       q    Type
REMARK                         _______ _______ _______ _____ _____    ______ ____
ROOT
ATOM      1  C   UNL     1      44.340  20.026  19.616  0.00  0.00    +0.331 C 
ATOM      2  N   UNL     1      45.771  20.333  19.489  0.00  0.00    -0.383 N 
ATOM      3  H   UNL     1      45.913  20.950  18.703  0.00  0.00    +0.426 HD
ATOM      4  C   UNL     1      46.240  20.983  20.711  0.00  0.00    +0.268 C 
ATOM      5  C   UNL     1      47.665  21.487  20.544  0.00  0.00    +0.129 C 
ATOM      6  C   UNL     1      48.516  20.528  19.763  0.00  0.00    -0.067 A 
ATOM      7  C   UNL     1      49.876  20.792  19.660  0.00  0.00    +0.023 A 
ATOM      8  C   UNL     1      50.717  19.933  18.976  0.00  0.00    +0.128 A 
ATOM     11  C   UNL     1      50.196  18.791  18.378  0.00  0.00    +0.091 A 
ATOM     14  C   UNL     1      48.829  18.534  18.462  0.00  0.00    -0.008 A 
ATOM     15  C   UNL     1      48.254  17.323  17.830  0.00  0.00    -0.029 A 
ATOM     16  C   UNL     1      49.073  16.262  17.454  0.00  0.00    -0.004 A 
ATOM     17  C   UNL     1      48.514  15.133  16.880  0.00  0.00    +0.112 A 
ATOM     20  C   UNL     1      47.137  15.062  16.685  0.00  0.00    +0.097 A 
ATOM     23  C   UNL     1      46.325  16.123  17.054  0.00  0.00    +0.047 A 
ATOM     24  C   UNL     1      46.880  17.255  17.616  0.00  0.00    -0.104 A 
ATOM     25  C   UNL     1      46.009  18.420  17.999  0.00  0.00    +0.116 C 
ATOM     26  C   UNL     1      47.990  19.403  19.164  0.00  0.00    -0.123 A 
ATOM     27  C   UNL     1      46.521  19.086  19.274  0.00  0.00    +0.241 C 
ENDROOT
BRANCH   8   9
ATOM      9  O   UNL     1      52.047  20.204  18.887  0.00  0.00    -0.485 OA
ATOM     10  H   UNL     1      52.256  21.148  18.881  0.00  0.00    +0.407 HD
ENDBRANCH   8   9
BRANCH  11  12
ATOM     12  O   UNL     1      51.015  17.929  17.716  0.00  0.00    -0.325 OA
ATOM     13  C   UNL     1      51.479  18.336  16.428  0.00  0.00    +0.246 C 
ENDBRANCH  11  12
BRANCH  17  18
ATOM     18  O   UNL     1      49.309  14.094  16.509  0.00  0.00    -0.300 OA
ATOM     19  C   UNL     1      50.719  14.326  16.500  0.00  0.00    +0.249 C 
ENDBRANCH  17  18
BRANCH  20  21
ATOM     21  O   UNL     1      46.588  13.948  16.130  0.00  0.00    -0.482 OA
ATOM     22  H   UNL     1      45.911  14.133  15.465  0.00  0.00    +0.396 HD
ENDBRANCH  20  21
TORSDOF 4
ENDMDL
MODEL 7
REMARK VINA RESULT:      -5.3      3.465      5.210
REMARK  Name = ZINC00135449
REMARK  7 active torsions:
REMARK  status: ('A' for Active; 'I' for Inactive)
REMARK    1  A    between atoms: C1_1  and  N1_2
REMARK    2  A    between atoms: C6_7  and  O4_25
REMARK    3  A    between atoms: C7_8  and  O3_23
REMARK    4  A    between atoms: C15_17  and  O2_21
REMARK    5  A    between atoms: C16_18  and  O1_20
REMARK    6  A    between atoms: O2_21  and  C18_22
REMARK    7  A    between atoms: O3_23  and  C19_24
REMARK                            x       y       z     vdW  Elec       q    Type
REMARK                         _______ _______ _______ _____ _____    ______ ____
ROOT
ATOM      1  C   UNL     1      51.934  21.217  19.100  0.00  0.00    +0.331 C 
ATOM      2  N   UNL     1      51.356  20.053  18.415  0.00  0.00    -0.383 N 
ATOM      3  H   UNL     1      51.156  20.293  17.456  0.00  0.00    +0.426 HD
ATOM      4  C   UNL     1      52.309  18.944  18.452  0.00  0.00    +0.268 C 
ATOM      5  C   UNL     1      51.827  17.788  17.590  0.00  0.00    +0.129 C 
ATOM      6  C   UNL     1      50.343  17.581  17.700  0.00  0.00    -0.067 A 
ATOM      7  C   UNL     1      49.789  16.467  17.080  0.00  0.00    +0.023 A 
ATOM      8  C   UNL     1      48.433  16.208  17.167  0.00  0.00    +0.128 A 
ATOM     11  C   UNL     1      47.610  17.074  17.878  0.00  0.00    +0.091 A 
ATOM     14  C   UNL     1      48.160  18.203  18.482  0.00  0.00    -0.008 A 
ATOM     15  C   UNL     1      47.299  19.139  19.244  0.00  0.00    -0.029 A 
ATOM     16  C   UNL     1      46.029  18.753  19.665  0.00  0.00    -0.004 A 
ATOM     17  C   UNL     1      45.249  19.637  20.390  0.00  0.00    +0.112 A 
ATOM     20  C   UNL     1      45.736  20.905  20.695  0.00  0.00    +0.097 A 
ATOM     23  C   UNL     1      46.997  21.289  20.268  0.00  0.00    +0.047 A 
ATOM     24  C   UNL     1      47.775  20.415  19.536  0.00  0.00    -0.104 A 
ATOM     25  C   UNL     1      49.136  20.831  19.049  0.00  0.00    +0.116 C 
ATOM     26  C   UNL     1      49.533  18.450  18.398  0.00  0.00    -0.123 A 
ATOM     27  C   UNL     1      50.111  19.656  19.091  0.00  0.00    +0.241 C 
ENDROOT
BRANCH   8   9
ATOM      9  O   UNL     1      47.907  15.112  16.558  0.00  0.00    -0.485 OA
ATOM     10  H   UNL     1      47.677  14.397  17.167  0.00  0.00    +0.407 HD
ENDBRANCH   8   9
BRANCH  11  12
ATOM     12  O   UNL     1      46.278  16.822  17.983  0.00  0.00    -0.325 OA
ATOM     13  C   UNL     1      45.892  15.691  18.766  0.00  0.00    +0.246 C 
ENDBRANCH  11  12
BRANCH  17  18
ATOM     18  O   UNL     1      44.007  19.266  20.802  0.00  0.00    -0.300 OA
ATOM     19  C   UNL     1      42.963  19.298  19.827  0.00  0.00    +0.249 C 
ENDBRANCH  17  18
BRANCH  20  21
ATOM     21  O   UNL     1      44.971  21.768  21.415  0.00  0.00    -0.482 OA
ATOM     22  H   UNL     1      45.480  22.377  21.968  0.00  0.00    +0.396 HD
ENDBRANCH  20  21
TORSDOF 4
ENDMDL
MODEL 8
REMARK VINA RESULT:      -5.2      3.039      6.075
REMARK  Name = ZINC00135449
REMARK  7 active torsions:
REMARK  status: ('A' for Active; 'I' for Inactive)
REMARK    1  A    between atoms: C1_1  and  N1_2
REMARK    2  A    between atoms: C6_7  and  O4_25
REMARK    3  A    between atoms: C7_8  and  O3_23
REMARK    4  A    between atoms: C15_17  and  O2_21
REMARK    5  A    between atoms: C16_18  and  O1_20
REMARK    6  A    between atoms: O2_21  and  C18_22
REMARK    7  A    between atoms: O3_23  and  C19_24
REMARK                            x       y       z     vdW  Elec       q    Type
REMARK                         _______ _______ _______ _____ _____    ______ ____
ROOT
ATOM      1  C   UNL     1      48.244  13.318  17.442  0.00  0.00    +0.331 C 
ATOM      2  N   UNL     1      47.316  14.329  17.965  0.00  0.00    -0.383 N 
ATOM      3  H   UNL     1      46.665  14.593  17.241  0.00  0.00    +0.426 HD
ATOM      4  C   UNL     1      46.582  13.774  19.102  0.00  0.00    +0.268 C 
ATOM      5  C   UNL     1      45.478  14.721  19.547  0.00  0.00    +0.129 C 
ATOM      6  C   UNL     1      45.909  16.159  19.489  0.00  0.00    -0.067 A 
ATOM      7  C   UNL     1      45.051  17.122  20.006  0.00  0.00    +0.023 A 
ATOM      8  C   UNL     1      45.401  18.460  20.004  0.00  0.00    +0.128 A 
ATOM     11  C   UNL     1      46.626  18.850  19.474  0.00  0.00    +0.091 A 
ATOM     14  C   UNL     1      47.479  17.889  18.935  0.00  0.00    -0.008 A 
ATOM     15  C   UNL     1      48.788  18.286  18.363  0.00  0.00    -0.029 A 
ATOM     16  C   UNL     1      49.342  19.529  18.654  0.00  0.00    -0.004 A 
ATOM     17  C   UNL     1      50.574  19.873  18.123  0.00  0.00    +0.112 A 
ATOM     20  C   UNL     1      51.252  18.973  17.305  0.00  0.00    +0.097 A 
ATOM     23  C   UNL     1      50.694  17.739  17.011  0.00  0.00    +0.047 A 
ATOM     24  C   UNL     1      49.462  17.397  17.529  0.00  0.00    -0.104 A 
ATOM     25  C   UNL     1      48.839  16.068  17.198  0.00  0.00    +0.116 C 
ATOM     26  C   UNL     1      47.120  16.538  18.951  0.00  0.00    -0.123 A 
ATOM     27  C   UNL     1      48.074  15.512  18.398  0.00  0.00    +0.241 C 
ENDROOT
BRANCH   8   9
ATOM      9  O   UNL     1      44.552  19.390  20.518  0.00  0.00    -0.485 OA
ATOM     10  H   UNL     1      44.115  19.114  21.335  0.00  0.00    +0.407 HD
ENDBRANCH   8   9
BRANCH  11  12
ATOM     12  O   UNL     1      46.989  20.161  19.480  0.00  0.00    -0.325 OA
ATOM     13  C   UNL     1      46.221  21.051  18.669  0.00  0.00    +0.246 C 
ENDBRANCH  11  12
BRANCH  17  18
ATOM     18  O   UNL     1      51.119  21.087  18.402  0.00  0.00    -0.300 OA
ATOM     19  C   UNL     1      51.810  21.217  19.646  0.00  0.00    +0.249 C 
ENDBRANCH  17  18
BRANCH  20  21
ATOM     21  O   UNL     1      52.466  19.309  16.792  0.00  0.00    -0.482 OA
ATOM     22  H   UNL     1      52.681  20.249  16.872  0.00  0.00    +0.396 HD
ENDBRANCH  20  21
TORSDOF 4
ENDMDL
MODEL 9
REMARK VINA RESULT:      -5.0      3.312      6.906
REMARK  Name = ZINC00135449
REMARK  7 active torsions:
REMARK  status: ('A' for Active; 'I' for Inactive)
REMARK    1  A    between atoms: C1_1  and  N1_2
REMARK    2  A    between atoms: C6_7  and  O4_25
REMARK    3  A    between atoms: C7_8  and  O3_23
REMARK    4  A    between atoms: C15_17  and  O2_21
REMARK    5  A    between atoms: C16_18  and  O1_20
REMARK    6  A    between atoms: O2_21  and  C18_22
REMARK    7  A    between atoms: O3_23  and  C19_24
REMARK                            x       y       z     vdW  Elec       q    Type
REMARK                         _______ _______ _______ _____ _____    ______ ____
ROOT
ATOM      1  C   UNL     1      42.643  23.549  18.485  0.00  0.00    +0.331 C 
ATOM      2  N   UNL     1      42.302  22.371  19.294  0.00  0.00    -0.383 N 
ATOM      3  H   UNL     1      42.118  22.659  20.244  0.00  0.00    +0.426 HD
ATOM      4  C   UNL     1      41.112  21.727  18.740  0.00  0.00    +0.268 C 
ATOM      5  C   UNL     1      40.618  20.621  19.658  0.00  0.00    +0.129 C 
ATOM      6  C   UNL     1      41.749  19.841  20.264  0.00  0.00    -0.067 A 
ATOM      7  C   UNL     1      41.440  18.708  21.008  0.00  0.00    +0.023 A 
ATOM      8  C   UNL     1      42.438  17.934  21.570  0.00  0.00    +0.128 A 
ATOM     11  C   UNL     1      43.770  18.293  21.394  0.00  0.00    +0.091 A 
ATOM     14  C   UNL     1      44.082  19.439  20.666  0.00  0.00    -0.008 A 
ATOM     15  C   UNL     1      45.495  19.840  20.469  0.00  0.00    -0.029 A 
ATOM     16  C   UNL     1      46.528  18.932  20.688  0.00  0.00    -0.004 A 
ATOM     17  C   UNL     1      47.840  19.322  20.482  0.00  0.00    +0.112 A 
ATOM     20  C   UNL     1      48.120  20.617  20.053  0.00  0.00    +0.097 A 
ATOM     23  C   UNL     1      47.091  21.521  19.843  0.00  0.00    +0.047 A 
ATOM     24  C   UNL     1      45.782  21.140  20.057  0.00  0.00    -0.104 A 
ATOM     25  C   UNL     1      44.660  22.120  19.853  0.00  0.00    +0.116 C 
ATOM     26  C   UNL     1      43.066  20.210  20.094  0.00  0.00    -0.123 A 
ATOM     27  C   UNL     1      43.427  21.424  19.279  0.00  0.00    +0.241 C 
ENDROOT
BRANCH   8   9
ATOM      9  O   UNL     1      42.120  16.827  22.292  0.00  0.00    -0.485 OA
ATOM     10  H   UNL     1      42.351  16.889  23.229  0.00  0.00    +0.407 HD
ENDBRANCH   8   9
BRANCH  11  12
ATOM     12  O   UNL     1      44.762  17.531  21.928  0.00  0.00    -0.325 OA
ATOM     13  C   UNL     1      44.919  16.211  21.404  0.00  0.00    +0.246 C 
ENDBRANCH  11  12
BRANCH  17  18
ATOM     18  O   UNL     1      48.853  18.440  20.696  0.00  0.00    -0.300 OA
ATOM     19  C   UNL     1      49.219  17.595  19.604  0.00  0.00    +0.249 C 
ENDBRANCH  17  18
BRANCH  20  21
ATOM     21  O   UNL     1      49.410  20.995  19.842  0.00  0.00    -0.482 OA
ATOM     22  H   UNL     1      49.770  21.566  20.533  0.00  0.00    +0.396 HD
ENDBRANCH  20  21
TORSDOF 4
ENDMDL
