MODEL 1
REMARK VINA RESULT:      -6.3      0.000      0.000
REMARK  Name = ZINC95486107
REMARK  3 active torsions:
REMARK  status: ('A' for Active; 'I' for Inactive)
REMARK    1  A    between atoms: C1_1  and  C2_2
REMARK    2  A    between atoms: C6_6  and  C19_23
REMARK    3  A    between atoms: C6_6  and  C20_24
REMARK                            x       y       z     vdW  Elec       q    Type
REMARK                         _______ _______ _______ _____ _____    ______ ____
ROOT
ATOM      1  C   UNL     1      50.304  18.774  19.748  0.00  0.00    +0.035 C 
ATOM      2  C   UNL     1      49.624  19.515  18.595  0.00  0.00    -0.016 C 
ATOM      3  C   UNL     1      50.093  20.969  18.571  0.00  0.00    -0.001 C 
ATOM      4  C   UNL     1      51.615  21.000  18.400  0.00  0.00    +0.012 C 
ATOM      5  C   UNL     1      52.006  20.306  17.095  0.00  0.00    +0.007 C 
ATOM      6  C   UNL     1      51.513  18.856  17.108  0.00  0.00    -0.134 C 
ATOM     10  C   UNL     1      51.894  18.173  15.794  0.00  0.00    +0.013 C 
ATOM     11  C   UNL     1      48.117  19.444  18.760  0.00  0.00    -0.068 C 
ATOM     12  C   UNL     1      47.475  20.533  19.038  0.00  0.00    -0.088 C 
ATOM     13  C   UNL     1      46.003  20.642  19.233  0.00  0.00    +0.077 C 
ATOM     14  C   UNL     1      45.252  19.470  18.622  0.00  0.00    +0.008 C 
ATOM     15  C   UNL     1      45.961  18.150  18.650  0.00  0.00    -0.005 C 
ATOM     16  C   UNL     1      45.339  17.978  20.041  0.00  0.00    +0.055 C 
ATOM     17  C   UNL     1      44.242  18.874  19.588  0.00  0.00    -0.143 C 
ATOM     18  C   UNL     1      42.980  19.069  19.883  0.00  0.00    +0.025 C 
ATOM     19  C   UNL     1      47.464  18.104  18.603  0.00  0.00    +0.041 C 
ATOM     20  C   UNL     1      47.938  17.440  17.307  0.00  0.00    -0.002 C 
ATOM     21  C   UNL     1      49.467  17.414  17.263  0.00  0.00    +0.037 C 
ATOM     22  C   UNL     1      49.993  18.849  17.266  0.00  0.00    +0.007 C 
ENDROOT
BRANCH   6   7
ATOM      7  C   UNL     1      52.144  18.120  18.263  0.00  0.00    +0.525 C 
ATOM      8  O   UNL     1      52.923  18.698  19.002  0.00  0.00    -0.690 OA
ATOM      9  O   UNL     1      51.877  16.947  18.457  0.00  0.00    -0.696 OA
ENDBRANCH   6   7
TORSDOF 1
ENDMDL
MODEL 2
REMARK VINA RESULT:      -6.0      1.969      2.756
REMARK  Name = ZINC95486107
REMARK  3 active torsions:
REMARK  status: ('A' for Active; 'I' for Inactive)
REMARK    1  A    between atoms: C1_1  and  C2_2
REMARK    2  A    between atoms: C6_6  and  C19_23
REMARK    3  A    between atoms: C6_6  and  C20_24
REMARK                            x       y       z     vdW  Elec       q    Type
REMARK                         _______ _______ _______ _____ _____    ______ ____
ROOT
ATOM      1  C   UNL     1      50.641  18.406  19.857  0.00  0.00    +0.035 C 
ATOM      2  C   UNL     1      49.629  18.608  18.727  0.00  0.00    -0.016 C 
ATOM      3  C   UNL     1      48.959  19.973  18.875  0.00  0.00    -0.001 C 
ATOM      4  C   UNL     1      50.034  21.064  18.830  0.00  0.00    +0.012 C 
ATOM      5  C   UNL     1      50.788  20.997  17.502  0.00  0.00    +0.007 C 
ATOM      6  C   UNL     1      51.437  19.619  17.341  0.00  0.00    -0.134 C 
ATOM     10  C   UNL     1      52.176  19.554  16.003  0.00  0.00    +0.013 C 
ATOM     11  C   UNL     1      48.594  17.500  18.764  0.00  0.00    -0.068 C 
ATOM     12  C   UNL     1      47.378  17.802  19.090  0.00  0.00    -0.088 C 
ATOM     13  C   UNL     1      46.242  16.843  19.176  0.00  0.00    +0.077 C 
ATOM     14  C   UNL     1      46.509  15.563  18.401  0.00  0.00    +0.008 C 
ATOM     15  C   UNL     1      47.935  15.104  18.363  0.00  0.00    -0.005 C 
ATOM     16  C   UNL     1      47.615  14.382  19.677  0.00  0.00    +0.055 C 
ATOM     17  C   UNL     1      46.200  14.323  19.224  0.00  0.00    -0.143 C 
ATOM     18  C   UNL     1      45.158  13.557  19.435  0.00  0.00    +0.025 C 
ATOM     19  C   UNL     1      49.050  16.111  18.432  0.00  0.00    +0.041 C 
ATOM     20  C   UNL     1      49.843  16.121  17.122  0.00  0.00    -0.002 C 
ATOM     21  C   UNL     1      50.963  17.161  17.197  0.00  0.00    +0.037 C 
ATOM     22  C   UNL     1      50.348  18.548  17.376  0.00  0.00    +0.007 C 
ENDROOT
BRANCH   6   7
ATOM      7  C   UNL     1      52.410  19.386  18.469  0.00  0.00    +0.525 C 
ATOM      8  O   UNL     1      52.659  20.284  19.255  0.00  0.00    -0.690 OA
ATOM      9  O   UNL     1      52.949  18.300  18.594  0.00  0.00    -0.696 OA
ENDBRANCH   6   7
TORSDOF 1
ENDMDL
MODEL 3
REMARK VINA RESULT:      -5.7      3.257      6.515
REMARK  Name = ZINC95486107
REMARK  3 active torsions:
REMARK  status: ('A' for Active; 'I' for Inactive)
REMARK    1  A    between atoms: C1_1  and  C2_2
REMARK    2  A    between atoms: C6_6  and  C19_23
REMARK    3  A    between atoms: C6_6  and  C20_24
REMARK                            x       y       z     vdW  Elec       q    Type
REMARK                         _______ _______ _______ _____ _____    ______ ____
ROOT
ATOM      1  C   UNL     1      45.941  21.291  18.765  0.00  0.00    +0.035 C 
ATOM      2  C   UNL     1      46.605  20.889  20.084  0.00  0.00    -0.016 C 
ATOM      3  C   UNL     1      46.783  22.123  20.967  0.00  0.00    -0.001 C 
ATOM      4  C   UNL     1      45.410  22.750  21.231  0.00  0.00    +0.012 C 
ATOM      5  C   UNL     1      44.502  21.737  21.929  0.00  0.00    +0.007 C 
ATOM      6  C   UNL     1      44.345  20.489  21.055  0.00  0.00    -0.134 C 
ATOM     10  C   UNL     1      43.449  19.475  21.768  0.00  0.00    +0.013 C 
ATOM     11  C   UNL     1      47.947  20.239  19.803  0.00  0.00    -0.068 C 
ATOM     12  C   UNL     1      49.023  20.868  20.153  0.00  0.00    -0.088 C 
ATOM     13  C   UNL     1      50.415  20.376  19.953  0.00  0.00    +0.077 C 
ATOM     14  C   UNL     1      50.469  18.874  19.731  0.00  0.00    +0.008 C 
ATOM     15  C   UNL     1      49.304  18.275  19.004  0.00  0.00    -0.005 C 
ATOM     16  C   UNL     1      50.079  18.612  17.725  0.00  0.00    +0.055 C 
ATOM     17  C   UNL     1      51.324  18.506  18.530  0.00  0.00    -0.143 C 
ATOM     18  C   UNL     1      52.586  18.225  18.312  0.00  0.00    +0.025 C 
ATOM     19  C   UNL     1      47.942  18.904  19.121  0.00  0.00    +0.041 C 
ATOM     20  C   UNL     1      46.975  17.956  19.835  0.00  0.00    -0.002 C 
ATOM     21  C   UNL     1      45.599  18.612  19.963  0.00  0.00    +0.037 C 
ATOM     22  C   UNL     1      45.724  19.873  20.816  0.00  0.00    +0.007 C 
ENDROOT
BRANCH   6   7
ATOM      7  C   UNL     1      43.727  20.872  19.735  0.00  0.00    +0.525 C 
ATOM      8  O   UNL     1      43.379  22.023  19.536  0.00  0.00    -0.690 OA
ATOM      9  O   UNL     1      43.575  20.031  18.866  0.00  0.00    -0.696 OA
ENDBRANCH   6   7
TORSDOF 1
ENDMDL
MODEL 4
REMARK VINA RESULT:      -5.5      4.416      6.999
REMARK  Name = ZINC95486107
REMARK  3 active torsions:
REMARK  status: ('A' for Active; 'I' for Inactive)
REMARK    1  A    between atoms: C1_1  and  C2_2
REMARK    2  A    between atoms: C6_6  and  C19_23
REMARK    3  A    between atoms: C6_6  and  C20_24
REMARK                            x       y       z     vdW  Elec       q    Type
REMARK                         _______ _______ _______ _____ _____    ______ ____
ROOT
ATOM      1  C   UNL     1      45.754  18.252  21.578  0.00  0.00    +0.035 C 
ATOM      2  C   UNL     1      44.720  17.506  20.731  0.00  0.00    -0.016 C 
ATOM      3  C   UNL     1      43.622  16.949  21.635  0.00  0.00    -0.001 C 
ATOM      4  C   UNL     1      42.959  18.106  22.389  0.00  0.00    +0.012 C 
ATOM      5  C   UNL     1      42.358  19.098  21.392  0.00  0.00    +0.007 C 
ATOM      6  C   UNL     1      43.455  19.637  20.468  0.00  0.00    -0.134 C 
ATOM     10  C   UNL     1      42.844  20.617  19.465  0.00  0.00    +0.013 C 
ATOM     11  C   UNL     1      45.399  16.386  19.965  0.00  0.00    -0.068 C 
ATOM     12  C   UNL     1      45.124  15.163  20.288  0.00  0.00    -0.088 C 
ATOM     13  C   UNL     1      45.698  13.949  19.643  0.00  0.00    +0.077 C 
ATOM     14  C   UNL     1      46.274  14.245  18.269  0.00  0.00    +0.008 C 
ATOM     15  C   UNL     1      46.884  15.602  18.091  0.00  0.00    -0.005 C 
ATOM     16  C   UNL     1      48.173  14.964  18.625  0.00  0.00    +0.055 C 
ATOM     17  C   UNL     1      47.669  13.667  18.099  0.00  0.00    -0.143 C 
ATOM     18  C   UNL     1      48.186  12.538  17.681  0.00  0.00    +0.025 C 
ATOM     19  C   UNL     1      46.363  16.769  18.883  0.00  0.00    +0.041 C 
ATOM     20  C   UNL     1      45.721  17.803  17.953  0.00  0.00    -0.002 C 
ATOM     21  C   UNL     1      45.179  18.976  18.772  0.00  0.00    +0.037 C 
ATOM     22  C   UNL     1      44.093  18.469  19.718  0.00  0.00    +0.007 C 
ENDROOT
BRANCH   6   7
ATOM      7  C   UNL     1      44.504  20.343  21.289  0.00  0.00    +0.525 C 
ATOM      8  O   UNL     1      45.486  20.820  20.745  0.00  0.00    -0.690 OA
ATOM      9  O   UNL     1      44.372  20.436  22.497  0.00  0.00    -0.696 OA
ENDBRANCH   6   7
TORSDOF 1
ENDMDL
MODEL 5
REMARK VINA RESULT:      -5.5      3.821      6.463
REMARK  Name = ZINC95486107
REMARK  3 active torsions:
REMARK  status: ('A' for Active; 'I' for Inactive)
REMARK    1  A    between atoms: C1_1  and  C2_2
REMARK    2  A    between atoms: C6_6  and  C19_23
REMARK    3  A    between atoms: C6_6  and  C20_24
REMARK                            x       y       z     vdW  Elec       q    Type
REMARK                         _______ _______ _______ _____ _____    ______ ____
ROOT
ATOM      1  C   UNL     1      44.719  19.646  18.329  0.00  0.00    +0.035 C 
ATOM      2  C   UNL     1      45.813  19.250  19.324  0.00  0.00    -0.016 C 
ATOM      3  C   UNL     1      46.744  20.438  19.564  0.00  0.00    -0.001 C 
ATOM      4  C   UNL     1      45.925  21.611  20.111  0.00  0.00    +0.012 C 
ATOM      5  C   UNL     1      45.250  21.206  21.422  0.00  0.00    +0.007 C 
ATOM      6  C   UNL     1      44.337  19.999  21.187  0.00  0.00    -0.134 C 
ATOM     10  C   UNL     1      43.678  19.591  22.505  0.00  0.00    +0.013 C 
ATOM     11  C   UNL     1      46.591  18.065  18.782  0.00  0.00    -0.068 C 
ATOM     12  C   UNL     1      47.823  18.246  18.427  0.00  0.00    -0.088 C 
ATOM     13  C   UNL     1      48.726  17.197  17.878  0.00  0.00    +0.077 C 
ATOM     14  C   UNL     1      48.242  15.793  18.200  0.00  0.00    +0.008 C 
ATOM     15  C   UNL     1      46.756  15.609  18.260  0.00  0.00    -0.005 C 
ATOM     16  C   UNL     1      46.843  15.360  16.749  0.00  0.00    +0.055 C 
ATOM     17  C   UNL     1      48.238  14.896  16.973  0.00  0.00    -0.143 C 
ATOM     18  C   UNL     1      49.084  14.086  16.385  0.00  0.00    +0.025 C 
ATOM     19  C   UNL     1      45.874  16.753  18.678  0.00  0.00    +0.041 C 
ATOM     20  C   UNL     1      45.176  16.433  20.003  0.00  0.00    -0.002 C 
ATOM     21  C   UNL     1      44.295  17.610  20.427  0.00  0.00    +0.037 C 
ATOM     22  C   UNL     1      45.175  18.838  20.654  0.00  0.00    +0.007 C 
ENDROOT
BRANCH   6   7
ATOM      7  C   UNL     1      43.275  20.359  20.179  0.00  0.00    +0.525 C 
ATOM      8  O   UNL     1      43.261  21.471  19.679  0.00  0.00    -0.690 OA
ATOM      9  O   UNL     1      42.429  19.540  19.866  0.00  0.00    -0.696 OA
ENDBRANCH   6   7
TORSDOF 1
ENDMDL
MODEL 6
REMARK VINA RESULT:      -5.5      2.989      6.323
REMARK  Name = ZINC95486107
REMARK  3 active torsions:
REMARK  status: ('A' for Active; 'I' for Inactive)
REMARK    1  A    between atoms: C1_1  and  C2_2
REMARK    2  A    between atoms: C6_6  and  C19_23
REMARK    3  A    between atoms: C6_6  and  C20_24
REMARK                            x       y       z     vdW  Elec       q    Type
REMARK                         _______ _______ _______ _____ _____    ______ ____
ROOT
ATOM      1  C   UNL     1      45.989  18.830  20.921  0.00  0.00    +0.035 C 
ATOM      2  C   UNL     1      46.127  19.382  19.501  0.00  0.00    -0.016 C 
ATOM      3  C   UNL     1      44.856  19.081  18.707  0.00  0.00    -0.001 C 
ATOM      4  C   UNL     1      43.661  19.726  19.415  0.00  0.00    +0.012 C 
ATOM      5  C   UNL     1      43.869  21.238  19.512  0.00  0.00    +0.007 C 
ATOM      6  C   UNL     1      45.156  21.539  20.285  0.00  0.00    -0.134 C 
ATOM     10  C   UNL     1      45.365  23.052  20.364  0.00  0.00    +0.013 C 
ATOM     11  C   UNL     1      47.335  18.759  18.827  0.00  0.00    -0.068 C 
ATOM     12  C   UNL     1      47.140  17.943  17.841  0.00  0.00    -0.088 C 
ATOM     13  C   UNL     1      48.207  17.246  17.070  0.00  0.00    +0.077 C 
ATOM     14  C   UNL     1      49.560  17.922  17.221  0.00  0.00    +0.008 C 
ATOM     15  C   UNL     1      49.829  18.566  18.547  0.00  0.00    -0.005 C 
ATOM     16  C   UNL     1      50.337  17.186  18.981  0.00  0.00    +0.055 C 
ATOM     17  C   UNL     1      50.660  16.928  17.553  0.00  0.00    -0.143 C 
ATOM     18  C   UNL     1      51.505  16.185  16.881  0.00  0.00    +0.025 C 
ATOM     19  C   UNL     1      48.690  19.121  19.357  0.00  0.00    +0.041 C 
ATOM     20  C   UNL     1      48.813  20.642  19.480  0.00  0.00    -0.002 C 
ATOM     21  C   UNL     1      47.640  21.197  20.292  0.00  0.00    +0.037 C 
ATOM     22  C   UNL     1      46.336  20.898  19.555  0.00  0.00    +0.007 C 
ENDROOT
BRANCH   6   7
ATOM      7  C   UNL     1      45.054  20.969  21.677  0.00  0.00    +0.525 C 
ATOM      8  O   UNL     1      44.052  20.359  22.013  0.00  0.00    -0.690 OA
ATOM      9  O   UNL     1      45.970  21.117  22.466  0.00  0.00    -0.696 OA
ENDBRANCH   6   7
TORSDOF 1
ENDMDL
MODEL 7
REMARK VINA RESULT:      -5.4      1.434      2.749
REMARK  Name = ZINC95486107
REMARK  3 active torsions:
REMARK  status: ('A' for Active; 'I' for Inactive)
REMARK    1  A    between atoms: C1_1  and  C2_2
REMARK    2  A    between atoms: C6_6  and  C19_23
REMARK    3  A    between atoms: C6_6  and  C20_24
REMARK                            x       y       z     vdW  Elec       q    Type
REMARK                         _______ _______ _______ _____ _____    ______ ____
ROOT
ATOM      1  C   UNL     1      49.691  18.182  16.932  0.00  0.00    +0.035 C 
ATOM      2  C   UNL     1      49.793  18.185  18.459  0.00  0.00    -0.016 C 
ATOM      3  C   UNL     1      50.497  16.913  18.929  0.00  0.00    -0.001 C 
ATOM      4  C   UNL     1      51.894  16.854  18.302  0.00  0.00    +0.012 C 
ATOM      5  C   UNL     1      52.703  18.082  18.721  0.00  0.00    +0.007 C 
ATOM      6  C   UNL     1      51.983  19.358  18.273  0.00  0.00    -0.134 C 
ATOM     10  C   UNL     1      52.791  20.581  18.710  0.00  0.00    +0.013 C 
ATOM     11  C   UNL     1      48.404  18.278  19.063  0.00  0.00    -0.068 C 
ATOM     12  C   UNL     1      47.937  17.252  19.700  0.00  0.00    -0.088 C 
ATOM     13  C   UNL     1      46.600  17.174  20.351  0.00  0.00    +0.077 C 
ATOM     14  C   UNL     1      46.007  18.548  20.615  0.00  0.00    +0.008 C 
ATOM     15  C   UNL     1      46.341  19.611  19.615  0.00  0.00    -0.005 C 
ATOM     16  C   UNL     1      45.120  19.102  18.839  0.00  0.00    +0.055 C 
ATOM     17  C   UNL     1      44.566  18.647  20.142  0.00  0.00    -0.143 C 
ATOM     18  C   UNL     1      43.380  18.428  20.655  0.00  0.00    +0.025 C 
ATOM     19  C   UNL     1      47.648  19.559  18.871  0.00  0.00    +0.041 C 
ATOM     20  C   UNL     1      48.531  20.749  19.257  0.00  0.00    -0.002 C 
ATOM     21  C   UNL     1      49.863  20.675  18.508  0.00  0.00    +0.037 C 
ATOM     22  C   UNL     1      50.600  19.402  18.920  0.00  0.00    +0.007 C 
ENDROOT
BRANCH   6   7
ATOM      7  C   UNL     1      51.840  19.355  16.773  0.00  0.00    +0.525 C 
ATOM      8  O   UNL     1      51.426  20.348  16.198  0.00  0.00    -0.690 OA
ATOM      9  O   UNL     1      52.136  18.361  16.134  0.00  0.00    -0.696 OA
ENDBRANCH   6   7
TORSDOF 1
ENDMDL
MODEL 8
REMARK VINA RESULT:      -5.4      2.114      3.430
REMARK  Name = ZINC95486107
REMARK  3 active torsions:
REMARK  status: ('A' for Active; 'I' for Inactive)
REMARK    1  A    between atoms: C1_1  and  C2_2
REMARK    2  A    between atoms: C6_6  and  C19_23
REMARK    3  A    between atoms: C6_6  and  C20_24
REMARK                            x       y       z     vdW  Elec       q    Type
REMARK                         _______ _______ _______ _____ _____    ______ ____
ROOT
ATOM      1  C   UNL     1      46.960  19.065  21.411  0.00  0.00    +0.035 C 
ATOM      2  C   UNL     1      46.913  20.184  20.368  0.00  0.00    -0.016 C 
ATOM      3  C   UNL     1      47.555  21.447  20.939  0.00  0.00    -0.001 C 
ATOM      4  C   UNL     1      49.006  21.138  21.325  0.00  0.00    +0.012 C 
ATOM      5  C   UNL     1      49.782  20.671  20.093  0.00  0.00    +0.007 C 
ATOM      6  C   UNL     1      49.122  19.420  19.505  0.00  0.00    -0.134 C 
ATOM     10  C   UNL     1      49.896  18.967  18.266  0.00  0.00    +0.013 C 
ATOM     11  C   UNL     1      45.472  20.452  19.971  0.00  0.00    -0.068 C 
ATOM     12  C   UNL     1      44.936  21.578  20.318  0.00  0.00    -0.088 C 
ATOM     13  C   UNL     1      43.542  22.002  20.012  0.00  0.00    +0.077 C 
ATOM     14  C   UNL     1      42.939  21.212  18.862  0.00  0.00    +0.008 C 
ATOM     15  C   UNL     1      43.379  19.785  18.742  0.00  0.00    -0.005 C 
ATOM     16  C   UNL     1      42.234  19.473  19.713  0.00  0.00    +0.055 C 
ATOM     17  C   UNL     1      41.552  20.688  19.195  0.00  0.00    -0.143 C 
ATOM     18  C   UNL     1      40.320  21.119  19.077  0.00  0.00    +0.025 C 
ATOM     19  C   UNL     1      44.751  19.381  19.208  0.00  0.00    +0.041 C 
ATOM     20  C   UNL     1      45.604  18.920  18.023  0.00  0.00    -0.002 C 
ATOM     21  C   UNL     1      47.002  18.528  18.507  0.00  0.00    +0.037 C 
ATOM     22  C   UNL     1      47.683  19.753  19.116  0.00  0.00    +0.007 C 
ENDROOT
BRANCH   6   7
ATOM      7  C   UNL     1      49.125  18.318  20.534  0.00  0.00    +0.525 C 
ATOM      8  O   UNL     1      48.592  17.249  20.284  0.00  0.00    -0.690 OA
ATOM      9  O   UNL     1      49.659  18.494  21.615  0.00  0.00    -0.696 OA
ENDBRANCH   6   7
TORSDOF 1
ENDMDL
MODEL 9
REMARK VINA RESULT:      -5.2      4.389      6.142
REMARK  Name = ZINC95486107
REMARK  3 active torsions:
REMARK  status: ('A' for Active; 'I' for Inactive)
REMARK    1  A    between atoms: C1_1  and  C2_2
REMARK    2  A    between atoms: C6_6  and  C19_23
REMARK    3  A    between atoms: C6_6  and  C20_24
REMARK                            x       y       z     vdW  Elec       q    Type
REMARK                         _______ _______ _______ _____ _____    ______ ____
ROOT
ATOM      1  C   UNL     1      44.213  18.331  19.724  0.00  0.00    +0.035 C 
ATOM      2  C   UNL     1      45.697  18.191  19.378  0.00  0.00    -0.016 C 
ATOM      3  C   UNL     1      46.056  19.158  18.252  0.00  0.00    -0.001 C 
ATOM      4  C   UNL     1      45.747  20.589  18.704  0.00  0.00    +0.012 C 
ATOM      5  C   UNL     1      46.559  20.924  19.956  0.00  0.00    +0.007 C 
ATOM      6  C   UNL     1      46.218  19.937  21.078  0.00  0.00    -0.134 C 
ATOM     10  C   UNL     1      47.045  20.270  22.321  0.00  0.00    +0.013 C 
ATOM     11  C   UNL     1      45.992  16.760  18.966  0.00  0.00    -0.068 C 
ATOM     12  C   UNL     1      46.305  16.526  17.732  0.00  0.00    -0.088 C 
ATOM     13  C   UNL     1      46.623  15.188  17.160  0.00  0.00    +0.077 C 
ATOM     14  C   UNL     1      47.010  14.181  18.231  0.00  0.00    +0.008 C 
ATOM     15  C   UNL     1      46.328  14.337  19.556  0.00  0.00    -0.005 C 
ATOM     16  C   UNL     1      45.223  13.456  18.959  0.00  0.00    +0.055 C 
ATOM     17  C   UNL     1      46.264  12.867  18.074  0.00  0.00    -0.143 C 
ATOM     18  C   UNL     1      46.455  11.734  17.443  0.00  0.00    +0.025 C 
ATOM     19  C   UNL     1      45.889  15.699  20.020  0.00  0.00    +0.041 C 
ATOM     20  C   UNL     1      46.677  16.119  21.263  0.00  0.00    -0.002 C 
ATOM     21  C   UNL     1      46.235  17.513  21.715  0.00  0.00    +0.037 C 
ATOM     22  C   UNL     1      46.546  18.520  20.610  0.00  0.00    +0.007 C 
ENDROOT
BRANCH   6   7
ATOM      7  C   UNL     1      44.750  20.034  21.405  0.00  0.00    +0.525 C 
ATOM      8  O   UNL     1      44.267  19.311  22.260  0.00  0.00    -0.690 OA
ATOM      9  O   UNL     1      44.045  20.835  20.816  0.00  0.00    -0.696 OA
ENDBRANCH   6   7
TORSDOF 1
ENDMDL
