MODEL 1
REMARK VINA RESULT:      -6.0      0.000      0.000
REMARK  Name = ZINC95486271
REMARK  8 active torsions:
REMARK  status: ('A' for Active; 'I' for Inactive)
REMARK    1  A    between atoms: C1_1  and  C2_2
REMARK    2  A    between atoms: C2_2  and  C4_4
REMARK    3  A    between atoms: C5_5  and  C6_6
REMARK    4  A    between atoms: C7_7  and  O4_26
REMARK    5  A    between atoms: C9_9  and  O3_24
REMARK    6  A    between atoms: C12_13  and  C15_18
REMARK    7  A    between atoms: O3_24  and  C21_25
REMARK    8  A    between atoms: O4_26  and  C22_27
REMARK                            x       y       z     vdW  Elec       q    Type
REMARK                         _______ _______ _______ _____ _____    ______ ____
ROOT
ATOM      5  C   UNL     1      46.518  17.992  20.614  0.00  0.00    -0.161 A 
ATOM      6  C   UNL     1      45.448  17.189  21.044  0.00  0.00    +0.249 A 
ATOM      9  C   UNL     1      45.129  16.021  20.371  0.00  0.00    -0.202 A 
ATOM     10  C   UNL     1      45.865  15.629  19.265  0.00  0.00    +0.258 A 
ATOM     13  C   UNL     1      46.941  16.419  18.825  0.00  0.00    -0.319 A 
ATOM     14  C   UNL     1      47.740  16.013  17.663  0.00  0.00    +0.404 C 
ATOM     15  O   UNL     1      47.648  14.901  17.183  0.00  0.00    -0.433 OA
ATOM     16  C   UNL     1      48.674  17.062  17.082  0.00  0.00    +0.036 C 
ATOM     17  C   UNL     1      49.313  17.799  18.269  0.00  0.00    +0.234 C 
ATOM     24  O   UNL     1      48.286  18.390  19.065  0.00  0.00    -0.288 OA
ATOM     25  C   UNL     1      47.265  17.611  19.492  0.00  0.00    +0.256 A 
ENDROOT
BRANCH  17  18
ATOM     18  C   UNL     1      50.236  18.875  17.757  0.00  0.00    -0.091 A 
ATOM     19  C   UNL     1      51.067  18.617  16.683  0.00  0.00    +0.039 A 
ATOM     20  C   UNL     1      51.913  19.603  16.213  0.00  0.00    +0.006 A 
ATOM     21  C   UNL     1      51.928  20.847  16.816  0.00  0.00    +0.014 A 
ATOM     22  C   UNL     1      51.096  21.104  17.889  0.00  0.00    +0.008 A 
ATOM     23  C   UNL     1      50.247  20.119  18.358  0.00  0.00    +0.023 A 
ENDBRANCH  17  18
BRANCH   5   4
ATOM      3  C   UNL     1      46.277  20.394  20.969  0.00  0.00    +0.016 C 
ATOM      4  C   UNL     1      46.848  19.230  21.333  0.00  0.00    +0.039 C 
BRANCH   3   2
ATOM      1  C   UNL     1      43.965  20.137  19.865  0.00  0.00    +0.076 C 
ATOM      2  C   UNL     1      45.436  20.453  19.771  0.00  0.00    -0.088 C 
ATOM     26  C   UNL     1      45.971  20.786  18.596  0.00  0.00    +0.005 C 
ENDBRANCH   3   2
ENDBRANCH   5   4
BRANCH   6   7
ATOM      7  O   UNL     1      44.723  17.561  22.128  0.00  0.00    -0.289 OA
ATOM      8  C   UNL     1      43.387  17.062  22.216  0.00  0.00    +0.246 C 
ENDBRANCH   6   7
BRANCH  10  11
ATOM     11  O   UNL     1      45.548  14.487  18.609  0.00  0.00    -0.283 OA
ATOM     12  C   UNL     1      45.189  13.358  19.408  0.00  0.00    +0.246 C 
ENDBRANCH  10  11
TORSDOF 5
ENDMDL
MODEL 2
REMARK VINA RESULT:      -5.9      1.635      2.646
REMARK  Name = ZINC95486271
REMARK  8 active torsions:
REMARK  status: ('A' for Active; 'I' for Inactive)
REMARK    1  A    between atoms: C1_1  and  C2_2
REMARK    2  A    between atoms: C2_2  and  C4_4
REMARK    3  A    between atoms: C5_5  and  C6_6
REMARK    4  A    between atoms: C7_7  and  O4_26
REMARK    5  A    between atoms: C9_9  and  O3_24
REMARK    6  A    between atoms: C12_13  and  C15_18
REMARK    7  A    between atoms: O3_24  and  C21_25
REMARK    8  A    between atoms: O4_26  and  C22_27
REMARK                            x       y       z     vdW  Elec       q    Type
REMARK                         _______ _______ _______ _____ _____    ______ ____
ROOT
ATOM      5  C   UNL     1      45.196  19.836  19.406  0.00  0.00    -0.161 A 
ATOM      6  C   UNL     1      43.992  19.352  19.945  0.00  0.00    +0.249 A 
ATOM      9  C   UNL     1      43.904  18.051  20.415  0.00  0.00    -0.202 A 
ATOM     10  C   UNL     1      45.006  17.214  20.363  0.00  0.00    +0.258 A 
ATOM     13  C   UNL     1      46.218  17.685  19.832  0.00  0.00    -0.319 A 
ATOM     14  C   UNL     1      47.399  16.816  19.780  0.00  0.00    +0.404 C 
ATOM     15  O   UNL     1      47.441  15.759  20.377  0.00  0.00    -0.433 OA
ATOM     16  C   UNL     1      48.560  17.299  18.925  0.00  0.00    +0.036 C 
ATOM     17  C   UNL     1      48.694  18.810  19.165  0.00  0.00    +0.234 C 
ATOM     24  O   UNL     1      47.471  19.455  18.808  0.00  0.00    -0.288 OA
ATOM     25  C   UNL     1      46.315  18.997  19.340  0.00  0.00    +0.256 A 
ENDROOT
BRANCH  17  18
ATOM     18  C   UNL     1      49.817  19.357  18.323  0.00  0.00    -0.091 A 
ATOM     19  C   UNL     1      50.191  20.683  18.447  0.00  0.00    +0.039 A 
ATOM     20  C   UNL     1      51.221  21.185  17.675  0.00  0.00    +0.006 A 
ATOM     21  C   UNL     1      51.879  20.362  16.779  0.00  0.00    +0.014 A 
ATOM     22  C   UNL     1      51.505  19.037  16.656  0.00  0.00    +0.008 A 
ATOM     23  C   UNL     1      50.477  18.533  17.431  0.00  0.00    +0.023 A 
ENDBRANCH  17  18
BRANCH   5   4
ATOM      3  C   UNL     1      45.726  22.198  19.715  0.00  0.00    +0.016 C 
ATOM      4  C   UNL     1      45.279  21.216  18.908  0.00  0.00    +0.039 C 
BRANCH   3   2
ATOM      1  C   UNL     1      47.377  21.505  21.564  0.00  0.00    +0.076 C 
ATOM      2  C   UNL     1      45.996  21.919  21.128  0.00  0.00    -0.088 C 
ATOM     26  C   UNL     1      45.019  22.031  22.028  0.00  0.00    +0.005 C 
ENDBRANCH   3   2
ENDBRANCH   5   4
BRANCH   6   7
ATOM      7  O   UNL     1      42.907  20.164  20.005  0.00  0.00    -0.289 OA
ATOM      8  C   UNL     1      41.639  19.574  19.712  0.00  0.00    +0.246 C 
ENDBRANCH   6   7
BRANCH  10  11
ATOM     11  O   UNL     1      44.914  15.943  20.823  0.00  0.00    -0.283 OA
ATOM     12  C   UNL     1      44.401  15.767  22.145  0.00  0.00    +0.246 C 
ENDBRANCH  10  11
TORSDOF 5
ENDMDL
MODEL 3
REMARK VINA RESULT:      -5.7      2.432      4.212
REMARK  Name = ZINC95486271
REMARK  8 active torsions:
REMARK  status: ('A' for Active; 'I' for Inactive)
REMARK    1  A    between atoms: C1_1  and  C2_2
REMARK    2  A    between atoms: C2_2  and  C4_4
REMARK    3  A    between atoms: C5_5  and  C6_6
REMARK    4  A    between atoms: C7_7  and  O4_26
REMARK    5  A    between atoms: C9_9  and  O3_24
REMARK    6  A    between atoms: C12_13  and  C15_18
REMARK    7  A    between atoms: O3_24  and  C21_25
REMARK    8  A    between atoms: O4_26  and  C22_27
REMARK                            x       y       z     vdW  Elec       q    Type
REMARK                         _______ _______ _______ _____ _____    ______ ____
ROOT
ATOM      5  C   UNL     1      47.676  15.279  17.083  0.00  0.00    -0.161 A 
ATOM      6  C   UNL     1      47.255  13.948  17.241  0.00  0.00    +0.249 A 
ATOM      9  C   UNL     1      48.164  12.957  17.575  0.00  0.00    -0.202 A 
ATOM     10  C   UNL     1      49.500  13.270  17.761  0.00  0.00    +0.258 A 
ATOM     13  C   UNL     1      49.935  14.597  17.612  0.00  0.00    -0.319 A 
ATOM     14  C   UNL     1      51.345  14.949  17.818  0.00  0.00    +0.404 C 
ATOM     15  O   UNL     1      52.129  14.173  18.326  0.00  0.00    -0.433 OA
ATOM     16  C   UNL     1      51.777  16.328  17.345  0.00  0.00    +0.036 C 
ATOM     17  C   UNL     1      50.649  17.302  17.721  0.00  0.00    +0.234 C 
ATOM     24  O   UNL     1      49.437  16.885  17.094  0.00  0.00    -0.288 OA
ATOM     25  C   UNL     1      49.025  15.607  17.260  0.00  0.00    +0.256 A 
ENDROOT
BRANCH  17  18
ATOM     18  C   UNL     1      51.006  18.690  17.254  0.00  0.00    -0.091 A 
ATOM     19  C   UNL     1      50.681  19.785  18.032  0.00  0.00    +0.039 A 
ATOM     20  C   UNL     1      51.008  21.058  17.605  0.00  0.00    +0.006 A 
ATOM     21  C   UNL     1      51.662  21.236  16.400  0.00  0.00    +0.014 A 
ATOM     22  C   UNL     1      51.988  20.141  15.623  0.00  0.00    +0.008 A 
ATOM     23  C   UNL     1      51.664  18.867  16.052  0.00  0.00    +0.023 A 
ENDBRANCH  17  18
BRANCH   5   4
ATOM      3  C   UNL     1      46.106  17.045  17.693  0.00  0.00    +0.016 C 
ATOM      4  C   UNL     1      46.704  16.323  16.726  0.00  0.00    +0.039 C 
BRANCH   3   2
ATOM      1  C   UNL     1      45.406  15.708  19.778  0.00  0.00    +0.076 C 
ATOM      2  C   UNL     1      46.316  16.700  19.102  0.00  0.00    -0.088 C 
ATOM     26  C   UNL     1      47.312  17.264  19.786  0.00  0.00    +0.005 C 
ENDBRANCH   3   2
ENDBRANCH   5   4
BRANCH   6   7
ATOM      7  O   UNL     1      45.948  13.631  17.064  0.00  0.00    -0.289 OA
ATOM      8  C   UNL     1      45.442  12.524  17.814  0.00  0.00    +0.246 C 
ENDBRANCH   6   7
BRANCH  10  11
ATOM     11  O   UNL     1      50.385  12.297  18.087  0.00  0.00    -0.283 OA
ATOM     12  C   UNL     1      50.486  11.186  17.195  0.00  0.00    +0.246 C 
ENDBRANCH  10  11
TORSDOF 5
ENDMDL
MODEL 4
REMARK VINA RESULT:      -5.4      2.507      5.835
REMARK  Name = ZINC95486271
REMARK  8 active torsions:
REMARK  status: ('A' for Active; 'I' for Inactive)
REMARK    1  A    between atoms: C1_1  and  C2_2
REMARK    2  A    between atoms: C2_2  and  C4_4
REMARK    3  A    between atoms: C5_5  and  C6_6
REMARK    4  A    between atoms: C7_7  and  O4_26
REMARK    5  A    between atoms: C9_9  and  O3_24
REMARK    6  A    between atoms: C12_13  and  C15_18
REMARK    7  A    between atoms: O3_24  and  C21_25
REMARK    8  A    between atoms: O4_26  and  C22_27
REMARK                            x       y       z     vdW  Elec       q    Type
REMARK                         _______ _______ _______ _____ _____    ______ ____
ROOT
ATOM      5  C   UNL     1      50.019  18.984  19.237  0.00  0.00    -0.161 A 
ATOM      6  C   UNL     1      49.821  20.247  19.819  0.00  0.00    +0.249 A 
ATOM      9  C   UNL     1      48.577  20.855  19.775  0.00  0.00    -0.202 A 
ATOM     10  C   UNL     1      47.511  20.220  19.159  0.00  0.00    +0.258 A 
ATOM     13  C   UNL     1      47.693  18.955  18.577  0.00  0.00    -0.319 A 
ATOM     14  C   UNL     1      46.571  18.262  17.930  0.00  0.00    +0.404 C 
ATOM     15  O   UNL     1      45.426  18.642  18.062  0.00  0.00    -0.433 OA
ATOM     16  C   UNL     1      46.922  17.056  17.074  0.00  0.00    +0.036 C 
ATOM     17  C   UNL     1      48.014  16.277  17.824  0.00  0.00    +0.234 C 
ATOM     24  O   UNL     1      49.143  17.126  18.028  0.00  0.00    -0.288 OA
ATOM     25  C   UNL     1      48.952  18.335  18.603  0.00  0.00    +0.256 A 
ENDROOT
BRANCH  17  18
ATOM     18  C   UNL     1      48.425  15.077  17.011  0.00  0.00    -0.091 A 
ATOM     19  C   UNL     1      49.766  14.789  16.835  0.00  0.00    +0.039 A 
ATOM     20  C   UNL     1      50.144  13.688  16.090  0.00  0.00    +0.006 A 
ATOM     21  C   UNL     1      49.182  12.875  15.521  0.00  0.00    +0.014 A 
ATOM     22  C   UNL     1      47.842  13.162  15.699  0.00  0.00    +0.008 A 
ATOM     23  C   UNL     1      47.463  14.261  16.447  0.00  0.00    +0.023 A 
ENDBRANCH  17  18
BRANCH   5   4
ATOM      3  C   UNL     1      52.227  18.553  18.291  0.00  0.00    +0.016 C 
ATOM      4  C   UNL     1      51.343  18.348  19.286  0.00  0.00    +0.039 C 
BRANCH   3   2
ATOM      1  C   UNL     1      51.841  20.802  17.098  0.00  0.00    +0.076 C 
ATOM      2  C   UNL     1      51.823  19.295  17.094  0.00  0.00    -0.088 C 
ATOM     26  C   UNL     1      51.437  18.638  16.000  0.00  0.00    +0.005 C 
ENDBRANCH   3   2
ENDBRANCH   5   4
BRANCH   6   7
ATOM      7  O   UNL     1      50.857  20.876  20.428  0.00  0.00    -0.289 OA
ATOM      8  C   UNL     1      50.752  21.079  21.839  0.00  0.00    +0.246 C 
ENDBRANCH   6   7
BRANCH  10  11
ATOM     11  O   UNL     1      46.297  20.820  19.118  0.00  0.00    -0.283 OA
ATOM     12  C   UNL     1      45.881  21.526  20.289  0.00  0.00    +0.246 C 
ENDBRANCH  10  11
TORSDOF 5
ENDMDL
MODEL 5
REMARK VINA RESULT:      -5.4      2.492      5.498
REMARK  Name = ZINC95486271
REMARK  8 active torsions:
REMARK  status: ('A' for Active; 'I' for Inactive)
REMARK    1  A    between atoms: C1_1  and  C2_2
REMARK    2  A    between atoms: C2_2  and  C4_4
REMARK    3  A    between atoms: C5_5  and  C6_6
REMARK    4  A    between atoms: C7_7  and  O4_26
REMARK    5  A    between atoms: C9_9  and  O3_24
REMARK    6  A    between atoms: C12_13  and  C15_18
REMARK    7  A    between atoms: O3_24  and  C21_25
REMARK    8  A    between atoms: O4_26  and  C22_27
REMARK                            x       y       z     vdW  Elec       q    Type
REMARK                         _______ _______ _______ _____ _____    ______ ____
ROOT
ATOM      5  C   UNL     1      50.114  18.162  19.684  0.00  0.00    -0.161 A 
ATOM      6  C   UNL     1      50.806  17.019  19.250  0.00  0.00    +0.249 A 
ATOM      9  C   UNL     1      50.222  16.142  18.349  0.00  0.00    -0.202 A 
ATOM     10  C   UNL     1      48.948  16.387  17.863  0.00  0.00    +0.258 A 
ATOM     13  C   UNL     1      48.246  17.528  18.285  0.00  0.00    -0.319 A 
ATOM     14  C   UNL     1      46.900  17.809  17.770  0.00  0.00    +0.404 C 
ATOM     15  O   UNL     1      46.440  17.206  16.822  0.00  0.00    -0.433 OA
ATOM     16  C   UNL     1      46.106  18.882  18.499  0.00  0.00    +0.036 C 
ATOM     17  C   UNL     1      47.086  20.018  18.828  0.00  0.00    +0.234 C 
ATOM     24  O   UNL     1      48.146  19.507  19.635  0.00  0.00    -0.288 OA
ATOM     25  C   UNL     1      48.822  18.416  19.207  0.00  0.00    +0.256 A 
ENDROOT
BRANCH  17  18
ATOM     18  C   UNL     1      46.362  21.107  19.577  0.00  0.00    -0.091 A 
ATOM     19  C   UNL     1      45.143  21.569  19.116  0.00  0.00    +0.039 A 
ATOM     20  C   UNL     1      44.479  22.567  19.802  0.00  0.00    +0.006 A 
ATOM     21  C   UNL     1      45.032  23.104  20.950  0.00  0.00    +0.014 A 
ATOM     22  C   UNL     1      46.250  22.641  21.411  0.00  0.00    +0.008 A 
ATOM     23  C   UNL     1      46.913  21.639  20.726  0.00  0.00    +0.023 A 
ENDBRANCH  17  18
BRANCH   5   4
ATOM      3  C   UNL     1      51.355  20.199  20.199  0.00  0.00    +0.016 C 
ATOM      4  C   UNL     1      50.740  19.084  20.641  0.00  0.00    +0.039 C 
BRANCH   3   2
ATOM      1  C   UNL     1      52.668  19.773  18.027  0.00  0.00    +0.076 C 
ATOM      2  C   UNL     1      51.523  20.421  18.761  0.00  0.00    -0.088 C 
ATOM     26  C   UNL     1      50.664  21.198  18.102  0.00  0.00    +0.005 C 
ENDBRANCH   3   2
ENDBRANCH   5   4
BRANCH   6   7
ATOM      7  O   UNL     1      52.055  16.772  19.716  0.00  0.00    -0.289 OA
ATOM      8  C   UNL     1      52.952  16.090  18.837  0.00  0.00    +0.246 C 
ENDBRANCH   6   7
BRANCH  10  11
ATOM     11  O   UNL     1      48.382  15.526  16.983  0.00  0.00    -0.283 OA
ATOM     12  C   UNL     1      49.037  14.271  16.788  0.00  0.00    +0.246 C 
ENDBRANCH  10  11
TORSDOF 5
ENDMDL
MODEL 6
REMARK VINA RESULT:      -5.4      1.963      6.818
REMARK  Name = ZINC95486271
REMARK  8 active torsions:
REMARK  status: ('A' for Active; 'I' for Inactive)
REMARK    1  A    between atoms: C1_1  and  C2_2
REMARK    2  A    between atoms: C2_2  and  C4_4
REMARK    3  A    between atoms: C5_5  and  C6_6
REMARK    4  A    between atoms: C7_7  and  O4_26
REMARK    5  A    between atoms: C9_9  and  O3_24
REMARK    6  A    between atoms: C12_13  and  C15_18
REMARK    7  A    between atoms: O3_24  and  C21_25
REMARK    8  A    between atoms: O4_26  and  C22_27
REMARK                            x       y       z     vdW  Elec       q    Type
REMARK                         _______ _______ _______ _____ _____    ______ ____
ROOT
ATOM      5  C   UNL     1      47.455  17.596  17.947  0.00  0.00    -0.161 A 
ATOM      6  C   UNL     1      48.841  17.512  17.738  0.00  0.00    +0.249 A 
ATOM      9  C   UNL     1      49.690  18.484  18.242  0.00  0.00    -0.202 A 
ATOM     10  C   UNL     1      49.179  19.551  18.962  0.00  0.00    +0.258 A 
ATOM     13  C   UNL     1      47.795  19.647  19.183  0.00  0.00    -0.319 A 
ATOM     14  C   UNL     1      47.237  20.764  19.955  0.00  0.00    +0.404 C 
ATOM     15  O   UNL     1      47.945  21.509  20.602  0.00  0.00    -0.433 OA
ATOM     16  C   UNL     1      45.730  20.950  19.886  0.00  0.00    +0.036 C 
ATOM     17  C   UNL     1      45.103  19.549  19.947  0.00  0.00    +0.234 C 
ATOM     24  O   UNL     1      45.588  18.767  18.856  0.00  0.00    -0.288 OA
ATOM     25  C   UNL     1      46.924  18.674  18.666  0.00  0.00    +0.256 A 
ENDROOT
BRANCH  17  18
ATOM     18  C   UNL     1      43.603  19.663  19.857  0.00  0.00    -0.091 A 
ATOM     19  C   UNL     1      43.028  20.447  18.874  0.00  0.00    +0.039 A 
ATOM     20  C   UNL     1      41.653  20.552  18.791  0.00  0.00    +0.006 A 
ATOM     21  C   UNL     1      40.852  19.874  19.691  0.00  0.00    +0.014 A 
ATOM     22  C   UNL     1      41.427  19.090  20.673  0.00  0.00    +0.008 A 
ATOM     23  C   UNL     1      42.803  18.982  20.754  0.00  0.00    +0.023 A 
ENDBRANCH  17  18
BRANCH   5   4
ATOM      3  C   UNL     1      46.195  15.519  18.178  0.00  0.00    +0.016 C 
ATOM      4  C   UNL     1      46.562  16.561  17.407  0.00  0.00    +0.039 C 
BRANCH   3   2
ATOM      1  C   UNL     1      46.112  15.914  20.720  0.00  0.00    +0.076 C 
ATOM      2  C   UNL     1      46.793  15.342  19.503  0.00  0.00    -0.088 C 
ATOM     26  C   UNL     1      47.940  14.676  19.634  0.00  0.00    +0.005 C 
ENDBRANCH   3   2
ENDBRANCH   5   4
BRANCH   6   7
ATOM      7  O   UNL     1      49.353  16.469  17.037  0.00  0.00    -0.289 OA
ATOM      8  C   UNL     1      50.737  16.173  17.235  0.00  0.00    +0.246 C 
ENDBRANCH   6   7
BRANCH  10  11
ATOM     11  O   UNL     1      50.013  20.500  19.452  0.00  0.00    -0.283 OA
ATOM     12  C   UNL     1      50.942  21.084  18.536  0.00  0.00    +0.246 C 
ENDBRANCH  10  11
TORSDOF 5
ENDMDL
MODEL 7
REMARK VINA RESULT:      -5.3      1.182      1.381
REMARK  Name = ZINC95486271
REMARK  8 active torsions:
REMARK  status: ('A' for Active; 'I' for Inactive)
REMARK    1  A    between atoms: C1_1  and  C2_2
REMARK    2  A    between atoms: C2_2  and  C4_4
REMARK    3  A    between atoms: C5_5  and  C6_6
REMARK    4  A    between atoms: C7_7  and  O4_26
REMARK    5  A    between atoms: C9_9  and  O3_24
REMARK    6  A    between atoms: C12_13  and  C15_18
REMARK    7  A    between atoms: O3_24  and  C21_25
REMARK    8  A    between atoms: O4_26  and  C22_27
REMARK                            x       y       z     vdW  Elec       q    Type
REMARK                         _______ _______ _______ _____ _____    ______ ____
ROOT
ATOM      5  C   UNL     1      47.209  17.096  20.561  0.00  0.00    -0.161 A 
ATOM      6  C   UNL     1      46.369  16.083  21.051  0.00  0.00    +0.249 A 
ATOM      9  C   UNL     1      46.319  14.846  20.429  0.00  0.00    -0.202 A 
ATOM     10  C   UNL     1      47.103  14.593  19.315  0.00  0.00    +0.258 A 
ATOM     13  C   UNL     1      47.952  15.595  18.816  0.00  0.00    -0.319 A 
ATOM     14  C   UNL     1      48.799  15.340  17.644  0.00  0.00    +0.404 C 
ATOM     15  O   UNL     1      48.962  14.219  17.206  0.00  0.00    -0.433 OA
ATOM     16  C   UNL     1      49.447  16.555  16.999  0.00  0.00    +0.036 C 
ATOM     17  C   UNL     1      49.920  17.469  18.140  0.00  0.00    +0.234 C 
ATOM     24  O   UNL     1      48.800  17.834  18.946  0.00  0.00    -0.288 OA
ATOM     25  C   UNL     1      48.001  16.856  19.431  0.00  0.00    +0.256 A 
ENDROOT
BRANCH  17  18
ATOM     18  C   UNL     1      50.552  18.709  17.563  0.00  0.00    -0.091 A 
ATOM     19  C   UNL     1      51.258  18.636  16.376  0.00  0.00    +0.039 A 
ATOM     20  C   UNL     1      51.837  19.773  15.847  0.00  0.00    +0.006 A 
ATOM     21  C   UNL     1      51.710  20.984  16.502  0.00  0.00    +0.014 A 
ATOM     22  C   UNL     1      51.003  21.057  17.687  0.00  0.00    +0.008 A 
ATOM     23  C   UNL     1      50.420  19.920  18.216  0.00  0.00    +0.023 A 
ENDBRANCH  17  18
BRANCH   5   4
ATOM      3  C   UNL     1      46.383  19.371  20.872  0.00  0.00    +0.016 C 
ATOM      4  C   UNL     1      47.254  18.406  21.226  0.00  0.00    +0.039 C 
BRANCH   3   2
ATOM      1  C   UNL     1      45.927  19.561  18.346  0.00  0.00    +0.076 C 
ATOM      2  C   UNL     1      45.486  19.167  19.732  0.00  0.00    -0.088 C 
ATOM     26  C   UNL     1      44.280  18.632  19.920  0.00  0.00    +0.005 C 
ENDBRANCH   3   2
ENDBRANCH   5   4
BRANCH   6   7
ATOM      7  O   UNL     1      45.599  16.319  22.144  0.00  0.00    -0.289 OA
ATOM      8  C   UNL     1      44.611  15.338  22.463  0.00  0.00    +0.246 C 
ENDBRANCH   6   7
BRANCH  10  11
ATOM     11  O   UNL     1      47.050  13.382  18.710  0.00  0.00    -0.283 OA
ATOM     12  C   UNL     1      45.775  12.951  18.231  0.00  0.00    +0.246 C 
ENDBRANCH  10  11
TORSDOF 5
ENDMDL
MODEL 8
REMARK VINA RESULT:      -5.2      1.989      5.641
REMARK  Name = ZINC95486271
REMARK  8 active torsions:
REMARK  status: ('A' for Active; 'I' for Inactive)
REMARK    1  A    between atoms: C1_1  and  C2_2
REMARK    2  A    between atoms: C2_2  and  C4_4
REMARK    3  A    between atoms: C5_5  and  C6_6
REMARK    4  A    between atoms: C7_7  and  O4_26
REMARK    5  A    between atoms: C9_9  and  O3_24
REMARK    6  A    between atoms: C12_13  and  C15_18
REMARK    7  A    between atoms: O3_24  and  C21_25
REMARK    8  A    between atoms: O4_26  and  C22_27
REMARK                            x       y       z     vdW  Elec       q    Type
REMARK                         _______ _______ _______ _____ _____    ______ ____
ROOT
ATOM      5  C   UNL     1      47.668  16.986  17.844  0.00  0.00    -0.161 A 
ATOM      6  C   UNL     1      48.506  15.995  17.306  0.00  0.00    +0.249 A 
ATOM      9  C   UNL     1      49.878  16.180  17.263  0.00  0.00    -0.202 A 
ATOM     10  C   UNL     1      50.441  17.347  17.754  0.00  0.00    +0.258 A 
ATOM     13  C   UNL     1      49.616  18.346  18.299  0.00  0.00    -0.319 A 
ATOM     14  C   UNL     1      50.196  19.583  18.835  0.00  0.00    +0.404 C 
ATOM     15  O   UNL     1      51.389  19.698  19.027  0.00  0.00    -0.433 OA
ATOM     16  C   UNL     1      49.226  20.719  19.120  0.00  0.00    +0.036 C 
ATOM     17  C   UNL     1      47.972  20.089  19.747  0.00  0.00    +0.234 C 
ATOM     24  O   UNL     1      47.418  19.137  18.839  0.00  0.00    -0.288 OA
ATOM     25  C   UNL     1      48.223  18.174  18.335  0.00  0.00    +0.256 A 
ENDROOT
BRANCH  17  18
ATOM     18  C   UNL     1      46.956  21.166  20.031  0.00  0.00    -0.091 A 
ATOM     19  C   UNL     1      47.103  21.977  21.141  0.00  0.00    +0.039 A 
ATOM     20  C   UNL     1      46.171  22.964  21.402  0.00  0.00    +0.006 A 
ATOM     21  C   UNL     1      45.095  23.141  20.553  0.00  0.00    +0.014 A 
ATOM     22  C   UNL     1      44.950  22.331  19.443  0.00  0.00    +0.008 A 
ATOM     23  C   UNL     1      45.883  21.345  19.179  0.00  0.00    +0.023 A 
ENDBRANCH  17  18
BRANCH   5   4
ATOM      3  C   UNL     1      45.633  16.285  18.993  0.00  0.00    +0.016 C 
ATOM      4  C   UNL     1      46.213  16.781  17.883  0.00  0.00    +0.039 C 
BRANCH   3   2
ATOM      1  C   UNL     1      47.002  14.413  20.111  0.00  0.00    +0.076 C 
ATOM      2  C   UNL     1      46.462  15.820  20.108  0.00  0.00    -0.088 C 
ATOM     26  C   UNL     1      46.738  16.641  21.122  0.00  0.00    +0.005 C 
ENDBRANCH   3   2
ENDBRANCH   5   4
BRANCH   6   7
ATOM      7  O   UNL     1      47.967  14.846  16.826  0.00  0.00    -0.289 OA
ATOM      8  C   UNL     1      48.877  13.815  16.440  0.00  0.00    +0.246 C 
ENDBRANCH   6   7
BRANCH  10  11
ATOM     11  O   UNL     1      51.783  17.524  17.709  0.00  0.00    -0.283 OA
ATOM     12  C   UNL     1      52.591  16.539  18.355  0.00  0.00    +0.246 C 
ENDBRANCH  10  11
TORSDOF 5
ENDMDL
MODEL 9
REMARK VINA RESULT:      -5.2      2.141      5.493
REMARK  Name = ZINC95486271
REMARK  8 active torsions:
REMARK  status: ('A' for Active; 'I' for Inactive)
REMARK    1  A    between atoms: C1_1  and  C2_2
REMARK    2  A    between atoms: C2_2  and  C4_4
REMARK    3  A    between atoms: C5_5  and  C6_6
REMARK    4  A    between atoms: C7_7  and  O4_26
REMARK    5  A    between atoms: C9_9  and  O3_24
REMARK    6  A    between atoms: C12_13  and  C15_18
REMARK    7  A    between atoms: O3_24  and  C21_25
REMARK    8  A    between atoms: O4_26  and  C22_27
REMARK                            x       y       z     vdW  Elec       q    Type
REMARK                         _______ _______ _______ _____ _____    ______ ____
ROOT
ATOM      5  C   UNL     1      49.651  18.861  18.430  0.00  0.00    -0.161 A 
ATOM      6  C   UNL     1      50.629  17.873  18.230  0.00  0.00    +0.249 A 
ATOM      9  C   UNL     1      50.266  16.545  18.074  0.00  0.00    -0.202 A 
ATOM     10  C   UNL     1      48.931  16.177  18.109  0.00  0.00    +0.258 A 
ATOM     13  C   UNL     1      47.942  17.155  18.304  0.00  0.00    -0.319 A 
ATOM     14  C   UNL     1      46.521  16.785  18.331  0.00  0.00    +0.404 C 
ATOM     15  O   UNL     1      46.141  15.687  17.978  0.00  0.00    -0.433 OA
ATOM     16  C   UNL     1      45.555  17.841  18.843  0.00  0.00    +0.036 C 
ATOM     17  C   UNL     1      46.016  19.187  18.263  0.00  0.00    +0.234 C 
ATOM     24  O   UNL     1      47.355  19.448  18.684  0.00  0.00    -0.288 OA
ATOM     25  C   UNL     1      48.298  18.502  18.476  0.00  0.00    +0.256 A 
ENDROOT
BRANCH  17  18
ATOM     18  C   UNL     1      45.109  20.285  18.755  0.00  0.00    -0.091 A 
ATOM     19  C   UNL     1      45.637  21.521  19.084  0.00  0.00    +0.039 A 
ATOM     20  C   UNL     1      44.805  22.528  19.535  0.00  0.00    +0.006 A 
ATOM     21  C   UNL     1      43.447  22.301  19.658  0.00  0.00    +0.014 A 
ATOM     22  C   UNL     1      42.920  21.067  19.328  0.00  0.00    +0.008 A 
ATOM     23  C   UNL     1      43.751  20.060  18.873  0.00  0.00    +0.023 A 
ENDBRANCH  17  18
BRANCH   5   4
ATOM      3  C   UNL     1      50.280  20.760  19.829  0.00  0.00    +0.016 C 
ATOM      4  C   UNL     1      50.045  20.267  18.597  0.00  0.00    +0.039 C 
BRANCH   3   2
ATOM      1  C   UNL     1      48.653  19.983  21.666  0.00  0.00    +0.076 C 
ATOM      2  C   UNL     1      50.009  19.937  21.010  0.00  0.00    -0.088 C 
ATOM     26  C   UNL     1      50.962  19.148  21.507  0.00  0.00    +0.005 C 
ENDBRANCH   3   2
ENDBRANCH   5   4
BRANCH   6   7
ATOM      7  O   UNL     1      51.939  18.223  18.190  0.00  0.00    -0.289 OA
ATOM      8  C   UNL     1      52.854  17.389  18.904  0.00  0.00    +0.246 C 
ENDBRANCH   6   7
BRANCH  10  11
ATOM     11  O   UNL     1      48.582  14.877  17.957  0.00  0.00    -0.283 OA
ATOM     12  C   UNL     1      49.155  13.939  18.871  0.00  0.00    +0.246 C 
ENDBRANCH  10  11
TORSDOF 5
ENDMDL
