MODEL 1
REMARK VINA RESULT:      -5.7      0.000      0.000
REMARK  Name = ZINC95486298
REMARK  9 active torsions:
REMARK  status: ('A' for Active; 'I' for Inactive)
REMARK    1  A    between atoms: C1_1  and  C2_2
REMARK    2  A    between atoms: C2_2  and  C3_3
REMARK    3  A    between atoms: C2_2  and  C4_4
REMARK    4  A    between atoms: C10_12  and  O4_27
REMARK    5  A    between atoms: C11_14  and  O3_26
REMARK    6  A    between atoms: C13_18  and  C20_25
REMARK    7  A    between atoms: C17_22  and  C18_23
REMARK    8  A    between atoms: C17_22  and  C19_24
REMARK    9  A    between atoms: O4_27  and  C21_28
REMARK                            x       y       z     vdW  Elec       q    Type
REMARK                         _______ _______ _______ _____ _____    ______ ____
ROOT
ATOM      3  C   UNL     1      50.345  19.738  18.545  0.00  0.00    -0.430 C 
ATOM      4  C   UNL     1      50.473  20.599  19.572  0.00  0.00    +0.242 C 
ATOM      5  O   UNL     1      51.571  21.383  19.676  0.00  0.00    -0.643 OA
ATOM      6  C   UNL     1      49.400  20.683  20.597  0.00  0.00    +0.383 C 
ATOM      7  C   UNL     1      48.193  19.843  20.486  0.00  0.00    -0.098 C 
ATOM      8  C   UNL     1      48.071  18.983  19.464  0.00  0.00    -0.108 C 
ATOM      9  C   UNL     1      46.883  18.084  19.305  0.00  0.00    +0.212 C 
ATOM     13  C   UNL     1      45.627  18.491  20.043  0.00  0.00    +0.166 C 
ATOM     16  C   UNL     1      45.728  19.751  20.885  0.00  0.00    +0.045 C 
ATOM     17  C   UNL     1      45.230  20.976  20.131  0.00  0.00    -0.052 C 
ATOM     18  C   UNL     1      43.714  20.818  19.881  0.00  0.00    +0.018 C 
ATOM     19  C   UNL     1      45.916  21.136  18.776  0.00  0.00    +0.027 C 
ATOM     20  C   UNL     1      45.407  22.262  20.942  0.00  0.00    +0.017 C 
ATOM     21  C   UNL     1      46.848  22.402  21.433  0.00  0.00    +0.010 C 
ATOM     22  C   UNL     1      47.162  21.205  22.332  0.00  0.00    +0.041 C 
ATOM     23  C   UNL     1      47.100  19.922  21.511  0.00  0.00    -0.011 C 
ATOM     24  C   UNL     1      47.319  18.764  22.502  0.00  0.00    +0.040 C 
ATOM     25  O   UNL     1      49.560  21.458  21.516  0.00  0.00    -0.415 OA
ATOM     26  C   UNL     1      49.154  18.891  18.451  0.00  0.00    +0.419 C 
ATOM     27  O   UNL     1      49.066  18.099  17.534  0.00  0.00    -0.493 OA
ENDROOT
BRANCH   3   2
ATOM      1  C   UNL     1      51.565  20.987  16.784  0.00  0.00    -0.010 C 
ATOM      2  C   UNL     1      51.423  19.640  17.495  0.00  0.00    +0.076 C 
ATOM     28  C   UNL     1      52.750  19.271  18.160  0.00  0.00    -0.009 C 
ENDBRANCH   3   2
BRANCH  13  14
ATOM     14  O   UNL     1      45.194  17.393  20.871  0.00  0.00    -0.561 OA
ATOM     15  H   UNL     1      44.879  17.660  21.746  0.00  0.00    +0.372 HD
ENDBRANCH  13  14
BRANCH   9  10
ATOM     10  O   UNL     1      46.570  17.966  17.907  0.00  0.00    -0.329 OA
BRANCH  10  11
ATOM     11  C   UNL     1      46.131  16.772  17.480  0.00  0.00    +0.569 C 
ATOM     12  O   UNL     1      46.088  15.835  18.241  0.00  0.00    -0.476 OA
ENDBRANCH  10  11
ENDBRANCH   9  10
TORSDOF 4
ENDMDL
MODEL 2
REMARK VINA RESULT:      -5.4      2.102      6.122
REMARK  Name = ZINC95486298
REMARK  9 active torsions:
REMARK  status: ('A' for Active; 'I' for Inactive)
REMARK    1  A    between atoms: C1_1  and  C2_2
REMARK    2  A    between atoms: C2_2  and  C3_3
REMARK    3  A    between atoms: C2_2  and  C4_4
REMARK    4  A    between atoms: C10_12  and  O4_27
REMARK    5  A    between atoms: C11_14  and  O3_26
REMARK    6  A    between atoms: C13_18  and  C20_25
REMARK    7  A    between atoms: C17_22  and  C18_23
REMARK    8  A    between atoms: C17_22  and  C19_24
REMARK    9  A    between atoms: O4_27  and  C21_28
REMARK                            x       y       z     vdW  Elec       q    Type
REMARK                         _______ _______ _______ _____ _____    ______ ____
ROOT
ATOM      3  C   UNL     1      47.003  17.727  18.736  0.00  0.00    -0.430 C 
ATOM      4  C   UNL     1      47.656  17.422  17.599  0.00  0.00    +0.242 C 
ATOM      5  O   UNL     1      46.972  17.005  16.508  0.00  0.00    -0.643 OA
ATOM      6  C   UNL     1      49.136  17.541  17.548  0.00  0.00    +0.383 C 
ATOM      7  C   UNL     1      49.890  18.006  18.727  0.00  0.00    -0.098 C 
ATOM      8  C   UNL     1      49.236  18.306  19.860  0.00  0.00    -0.108 C 
ATOM      9  C   UNL     1      49.943  18.761  21.101  0.00  0.00    +0.212 C 
ATOM     13  C   UNL     1      51.335  19.322  20.916  0.00  0.00    +0.166 C 
ATOM     16  C   UNL     1      51.866  19.329  19.493  0.00  0.00    +0.045 C 
ATOM     17  C   UNL     1      51.643  20.673  18.813  0.00  0.00    -0.052 C 
ATOM     18  C   UNL     1      52.498  21.738  19.534  0.00  0.00    +0.018 C 
ATOM     19  C   UNL     1      50.184  21.117  18.882  0.00  0.00    +0.027 C 
ATOM     20  C   UNL     1      52.099  20.661  17.353  0.00  0.00    +0.017 C 
ATOM     21  C   UNL     1      51.472  19.492  16.595  0.00  0.00    +0.010 C 
ATOM     22  C   UNL     1      51.926  18.193  17.263  0.00  0.00    +0.041 C 
ATOM     23  C   UNL     1      51.383  18.137  18.688  0.00  0.00    -0.011 C 
ATOM     24  C   UNL     1      51.971  16.864  19.323  0.00  0.00    +0.040 C 
ATOM     25  O   UNL     1      49.690  17.241  16.511  0.00  0.00    -0.415 OA
ATOM     26  C   UNL     1      47.758  18.169  19.911  0.00  0.00    +0.419 C 
ATOM     27  O   UNL     1      47.158  18.414  20.939  0.00  0.00    -0.493 OA
ENDROOT
BRANCH   3   2
ATOM      1  C   UNL     1      45.112  16.701  19.971  0.00  0.00    -0.010 C 
ATOM      2  C   UNL     1      45.501  17.613  18.806  0.00  0.00    +0.076 C 
ATOM     28  C   UNL     1      44.894  19.001  19.019  0.00  0.00    -0.009 C 
ENDBRANCH   3   2
BRANCH  13  14
ATOM     14  O   UNL     1      52.247  18.599  21.767  0.00  0.00    -0.561 OA
ATOM     15  H   UNL     1      52.474  17.716  21.440  0.00  0.00    +0.372 HD
ENDBRANCH  13  14
BRANCH   9  10
ATOM     10  O   UNL     1      49.137  19.753  21.759  0.00  0.00    -0.329 OA
BRANCH  10  11
ATOM     11  C   UNL     1      49.782  20.663  22.506  0.00  0.00    +0.569 C 
ATOM     12  O   UNL     1      49.442  21.822  22.473  0.00  0.00    -0.476 OA
ENDBRANCH  10  11
ENDBRANCH   9  10
TORSDOF 4
ENDMDL
MODEL 3
REMARK VINA RESULT:      -5.4      2.108      5.653
REMARK  Name = ZINC95486298
REMARK  9 active torsions:
REMARK  status: ('A' for Active; 'I' for Inactive)
REMARK    1  A    between atoms: C1_1  and  C2_2
REMARK    2  A    between atoms: C2_2  and  C3_3
REMARK    3  A    between atoms: C2_2  and  C4_4
REMARK    4  A    between atoms: C10_12  and  O4_27
REMARK    5  A    between atoms: C11_14  and  O3_26
REMARK    6  A    between atoms: C13_18  and  C20_25
REMARK    7  A    between atoms: C17_22  and  C18_23
REMARK    8  A    between atoms: C17_22  and  C19_24
REMARK    9  A    between atoms: O4_27  and  C21_28
REMARK                            x       y       z     vdW  Elec       q    Type
REMARK                         _______ _______ _______ _____ _____    ______ ____
ROOT
ATOM      3  C   UNL     1      46.687  18.792  18.864  0.00  0.00    -0.430 C 
ATOM      4  C   UNL     1      47.084  19.804  19.658  0.00  0.00    +0.242 C 
ATOM      5  O   UNL     1      46.193  20.440  20.455  0.00  0.00    -0.643 OA
ATOM      6  C   UNL     1      48.509  20.225  19.654  0.00  0.00    +0.383 C 
ATOM      7  C   UNL     1      49.490  19.531  18.799  0.00  0.00    -0.098 C 
ATOM      8  C   UNL     1      49.091  18.526  18.005  0.00  0.00    -0.108 C 
ATOM      9  C   UNL     1      50.031  17.795  17.096  0.00  0.00    +0.212 C 
ATOM     13  C   UNL     1      51.503  17.892  17.430  0.00  0.00    +0.166 C 
ATOM     16  C   UNL     1      51.857  18.747  18.633  0.00  0.00    +0.045 C 
ATOM     17  C   UNL     1      52.013  17.911  19.895  0.00  0.00    -0.052 C 
ATOM     18  C   UNL     1      53.237  16.985  19.724  0.00  0.00    +0.018 C 
ATOM     19  C   UNL     1      50.792  17.031  20.157  0.00  0.00    +0.027 C 
ATOM     20  C   UNL     1      52.288  18.774  21.128  0.00  0.00    +0.017 C 
ATOM     21  C   UNL     1      51.240  19.878  21.264  0.00  0.00    +0.010 C 
ATOM     22  C   UNL     1      51.315  20.761  20.017  0.00  0.00    +0.041 C 
ATOM     23  C   UNL     1      50.933  19.941  18.789  0.00  0.00    -0.011 C 
ATOM     24  C   UNL     1      51.138  20.864  17.573  0.00  0.00    +0.040 C 
ATOM     25  O   UNL     1      48.825  21.152  20.370  0.00  0.00    -0.415 OA
ATOM     26  C   UNL     1      47.661  18.120  18.001  0.00  0.00    +0.419 C 
ATOM     27  O   UNL     1      47.283  17.227  17.270  0.00  0.00    -0.493 OA
ENDROOT
BRANCH   3   2
ATOM      1  C   UNL     1      44.921  17.644  20.174  0.00  0.00    -0.010 C 
ATOM      2  C   UNL     1      45.245  18.351  18.856  0.00  0.00    +0.076 C 
ATOM     28  C   UNL     1      44.339  19.574  18.696  0.00  0.00    -0.009 C 
ENDBRANCH   3   2
BRANCH  13  14
ATOM     14  O   UNL     1      52.214  18.373  16.271  0.00  0.00    -0.561 OA
ATOM     15  H   UNL     1      52.478  17.676  15.654  0.00  0.00    +0.372 HD
ENDBRANCH  13  14
BRANCH   9  10
ATOM     10  O   UNL     1      49.663  16.405  17.064  0.00  0.00    -0.329 OA
BRANCH  10  11
ATOM     11  C   UNL     1      50.655  15.517  16.896  0.00  0.00    +0.569 C 
ATOM     12  O   UNL     1      50.407  14.401  16.505  0.00  0.00    -0.476 OA
ENDBRANCH  10  11
ENDBRANCH   9  10
TORSDOF 4
ENDMDL
MODEL 4
REMARK VINA RESULT:      -5.4      1.955      4.534
REMARK  Name = ZINC95486298
REMARK  9 active torsions:
REMARK  status: ('A' for Active; 'I' for Inactive)
REMARK    1  A    between atoms: C1_1  and  C2_2
REMARK    2  A    between atoms: C2_2  and  C3_3
REMARK    3  A    between atoms: C2_2  and  C4_4
REMARK    4  A    between atoms: C10_12  and  O4_27
REMARK    5  A    between atoms: C11_14  and  O3_26
REMARK    6  A    between atoms: C13_18  and  C20_25
REMARK    7  A    between atoms: C17_22  and  C18_23
REMARK    8  A    between atoms: C17_22  and  C19_24
REMARK    9  A    between atoms: O4_27  and  C21_28
REMARK                            x       y       z     vdW  Elec       q    Type
REMARK                         _______ _______ _______ _____ _____    ______ ____
ROOT
ATOM      3  C   UNL     1      50.812  19.157  17.570  0.00  0.00    -0.430 C 
ATOM      4  C   UNL     1      50.683  17.900  17.103  0.00  0.00    +0.242 C 
ATOM      5  O   UNL     1      51.645  17.358  16.321  0.00  0.00    -0.643 OA
ATOM      6  C   UNL     1      49.474  17.109  17.450  0.00  0.00    +0.383 C 
ATOM      7  C   UNL     1      48.425  17.685  18.312  0.00  0.00    -0.098 C 
ATOM      8  C   UNL     1      48.554  18.939  18.772  0.00  0.00    -0.108 C 
ATOM      9  C   UNL     1      47.516  19.593  19.631  0.00  0.00    +0.212 C 
ATOM     13  C   UNL     1      46.559  18.669  20.351  0.00  0.00    +0.166 C 
ATOM     16  C   UNL     1      46.745  17.184  20.092  0.00  0.00    +0.045 C 
ATOM     17  C   UNL     1      47.596  16.525  21.168  0.00  0.00    -0.052 C 
ATOM     18  C   UNL     1      46.826  16.574  22.505  0.00  0.00    +0.018 C 
ATOM     19  C   UNL     1      48.929  17.244  21.368  0.00  0.00    +0.027 C 
ATOM     20  C   UNL     1      47.859  15.047  20.869  0.00  0.00    +0.017 C 
ATOM     21  C   UNL     1      48.424  14.868  19.461  0.00  0.00    +0.010 C 
ATOM     22  C   UNL     1      47.392  15.397  18.463  0.00  0.00    +0.041 C 
ATOM     23  C   UNL     1      47.203  16.896  18.674  0.00  0.00    -0.011 C 
ATOM     24  C   UNL     1      46.079  17.327  17.714  0.00  0.00    +0.040 C 
ATOM     25  O   UNL     1      49.386  15.987  16.997  0.00  0.00    -0.415 OA
ATOM     26  C   UNL     1      49.757  19.732  18.408  0.00  0.00    +0.419 C 
ATOM     27  O   UNL     1      49.874  20.877  18.799  0.00  0.00    -0.493 OA
ENDROOT
BRANCH   3   2
ATOM      1  C   UNL     1      51.624  21.159  16.352  0.00  0.00    -0.010 C 
ATOM      2  C   UNL     1      52.032  19.974  17.229  0.00  0.00    +0.076 C 
ATOM     28  C   UNL     1      52.676  20.489  18.518  0.00  0.00    -0.009 C 
ENDBRANCH   3   2
BRANCH  13  14
ATOM     14  O   UNL     1      45.207  19.049  20.024  0.00  0.00    -0.561 OA
ATOM     15  H   UNL     1      45.143  19.697  19.309  0.00  0.00    +0.372 HD
ENDBRANCH  13  14
BRANCH   9  10
ATOM     10  O   UNL     1      48.171  20.419  20.609  0.00  0.00    -0.329 OA
BRANCH  10  11
ATOM     11  C   UNL     1      47.454  21.421  21.138  0.00  0.00    +0.569 C 
ATOM     12  O   UNL     1      46.534  21.900  20.519  0.00  0.00    -0.476 OA
ENDBRANCH  10  11
ENDBRANCH   9  10
TORSDOF 4
ENDMDL
MODEL 5
REMARK VINA RESULT:      -5.1      3.500      5.999
REMARK  Name = ZINC95486298
REMARK  9 active torsions:
REMARK  status: ('A' for Active; 'I' for Inactive)
REMARK    1  A    between atoms: C1_1  and  C2_2
REMARK    2  A    between atoms: C2_2  and  C3_3
REMARK    3  A    between atoms: C2_2  and  C4_4
REMARK    4  A    between atoms: C10_12  and  O4_27
REMARK    5  A    between atoms: C11_14  and  O3_26
REMARK    6  A    between atoms: C13_18  and  C20_25
REMARK    7  A    between atoms: C17_22  and  C18_23
REMARK    8  A    between atoms: C17_22  and  C19_24
REMARK    9  A    between atoms: O4_27  and  C21_28
REMARK                            x       y       z     vdW  Elec       q    Type
REMARK                         _______ _______ _______ _____ _____    ______ ____
ROOT
ATOM      3  C   UNL     1      51.695  17.397  18.232  0.00  0.00    -0.430 C 
ATOM      4  C   UNL     1      52.288  16.204  18.425  0.00  0.00    +0.242 C 
ATOM      5  O   UNL     1      53.565  16.139  18.870  0.00  0.00    -0.643 OA
ATOM      6  C   UNL     1      51.534  14.955  18.145  0.00  0.00    +0.383 C 
ATOM      7  C   UNL     1      50.138  15.015  17.672  0.00  0.00    -0.098 C 
ATOM      8  C   UNL     1      49.551  16.205  17.476  0.00  0.00    -0.108 C 
ATOM      9  C   UNL     1      48.145  16.337  16.975  0.00  0.00    +0.212 C 
ATOM     13  C   UNL     1      47.254  15.126  17.142  0.00  0.00    +0.166 C 
ATOM     16  C   UNL     1      47.902  13.905  17.772  0.00  0.00    +0.045 C 
ATOM     17  C   UNL     1      47.639  13.835  19.269  0.00  0.00    -0.052 C 
ATOM     18  C   UNL     1      46.127  13.611  19.494  0.00  0.00    +0.018 C 
ATOM     19  C   UNL     1      48.034  15.126  19.984  0.00  0.00    +0.027 C 
ATOM     20  C   UNL     1      48.358  12.654  19.926  0.00  0.00    +0.017 C 
ATOM     21  C   UNL     1      49.845  12.660  19.575  0.00  0.00    +0.010 C 
ATOM     22  C   UNL     1      49.977  12.535  18.057  0.00  0.00    +0.041 C 
ATOM     23  C   UNL     1      49.364  13.762  17.390  0.00  0.00    -0.011 C 
ATOM     24  C   UNL     1      49.437  13.510  15.873  0.00  0.00    +0.040 C 
ATOM     25  O   UNL     1      52.109  13.900  18.315  0.00  0.00    -0.415 OA
ATOM     26  C   UNL     1      50.315  17.451  17.742  0.00  0.00    +0.419 C 
ATOM     27  O   UNL     1      49.802  18.535  17.546  0.00  0.00    -0.493 OA
ENDROOT
BRANCH   3   2
ATOM      1  C   UNL     1      52.375  19.587  17.286  0.00  0.00    -0.010 C 
ATOM      2  C   UNL     1      52.444  18.675  18.513  0.00  0.00    +0.076 C 
ATOM     28  C   UNL     1      51.812  19.383  19.712  0.00  0.00    -0.009 C 
ENDBRANCH   3   2
BRANCH  13  14
ATOM     14  O   UNL     1      46.704  14.770  15.857  0.00  0.00    -0.561 OA
ATOM     15  H   UNL     1      46.628  13.816  15.712  0.00  0.00    +0.372 HD
ENDBRANCH  13  14
BRANCH   9  10
ATOM     10  O   UNL     1      47.519  17.454  17.628  0.00  0.00    -0.329 OA
BRANCH  10  11
ATOM     11  C   UNL     1      46.189  17.397  17.791  0.00  0.00    +0.569 C 
ATOM     12  O   UNL     1      45.577  18.385  18.122  0.00  0.00    -0.476 OA
ENDBRANCH  10  11
ENDBRANCH   9  10
TORSDOF 4
ENDMDL
MODEL 6
REMARK VINA RESULT:      -5.1      2.085      4.082
REMARK  Name = ZINC95486298
REMARK  9 active torsions:
REMARK  status: ('A' for Active; 'I' for Inactive)
REMARK    1  A    between atoms: C1_1  and  C2_2
REMARK    2  A    between atoms: C2_2  and  C3_3
REMARK    3  A    between atoms: C2_2  and  C4_4
REMARK    4  A    between atoms: C10_12  and  O4_27
REMARK    5  A    between atoms: C11_14  and  O3_26
REMARK    6  A    between atoms: C13_18  and  C20_25
REMARK    7  A    between atoms: C17_22  and  C18_23
REMARK    8  A    between atoms: C17_22  and  C19_24
REMARK    9  A    between atoms: O4_27  and  C21_28
REMARK                            x       y       z     vdW  Elec       q    Type
REMARK                         _______ _______ _______ _____ _____    ______ ____
ROOT
ATOM      3  C   UNL     1      50.370  19.177  19.265  0.00  0.00    -0.430 C 
ATOM      4  C   UNL     1      50.404  17.831  19.273  0.00  0.00    +0.242 C 
ATOM      5  O   UNL     1      51.578  17.177  19.434  0.00  0.00    -0.643 OA
ATOM      6  C   UNL     1      49.144  17.064  19.101  0.00  0.00    +0.383 C 
ATOM      7  C   UNL     1      47.857  17.767  18.938  0.00  0.00    -0.098 C 
ATOM      8  C   UNL     1      47.827  19.108  18.926  0.00  0.00    -0.108 C 
ATOM      9  C   UNL     1      46.559  19.884  18.741  0.00  0.00    +0.212 C 
ATOM     13  C   UNL     1      45.270  19.148  19.037  0.00  0.00    +0.166 C 
ATOM     16  C   UNL     1      45.414  17.696  19.458  0.00  0.00    +0.045 C 
ATOM     17  C   UNL     1      45.407  17.544  20.972  0.00  0.00    -0.052 C 
ATOM     18  C   UNL     1      44.014  17.947  21.502  0.00  0.00    +0.018 C 
ATOM     19  C   UNL     1      46.443  18.441  21.646  0.00  0.00    +0.027 C 
ATOM     20  C   UNL     1      45.636  16.094  21.406  0.00  0.00    +0.017 C 
ATOM     21  C   UNL     1      46.891  15.521  20.749  0.00  0.00    +0.010 C 
ATOM     22  C   UNL     1      46.694  15.557  19.233  0.00  0.00    +0.041 C 
ATOM     23  C   UNL     1      46.577  17.005  18.769  0.00  0.00    -0.011 C 
ATOM     24  C   UNL     1      46.272  16.951  17.260  0.00  0.00    +0.040 C 
ATOM     25  O   UNL     1      49.217  15.853  19.097  0.00  0.00    -0.415 OA
ATOM     26  C   UNL     1      49.093  19.870  19.082  0.00  0.00    +0.419 C 
ATOM     27  O   UNL     1      49.082  21.085  19.049  0.00  0.00    -0.493 OA
ENDROOT
BRANCH   3   2
ATOM      1  C   UNL     1      51.855  20.865  18.216  0.00  0.00    -0.010 C 
ATOM      2  C   UNL     1      51.640  19.972  19.440  0.00  0.00    +0.076 C 
ATOM     28  C   UNL     1      51.528  20.840  20.694  0.00  0.00    -0.009 C 
ENDBRANCH   3   2
BRANCH  13  14
ATOM     14  O   UNL     1      44.409  19.232  17.883  0.00  0.00    -0.561 OA
ATOM     15  H   UNL     1      44.559  20.016  17.336  0.00  0.00    +0.372 HD
ENDBRANCH  13  14
BRANCH   9  10
ATOM     10  O   UNL     1      46.608  21.062  19.563  0.00  0.00    -0.329 OA
BRANCH  10  11
ATOM     11  C   UNL     1      45.434  21.612  19.910  0.00  0.00    +0.569 C 
ATOM     12  O   UNL     1      45.393  22.756  20.296  0.00  0.00    -0.476 OA
ENDBRANCH  10  11
ENDBRANCH   9  10
TORSDOF 4
ENDMDL
MODEL 7
REMARK VINA RESULT:      -4.7      4.018      7.206
REMARK  Name = ZINC95486298
REMARK  9 active torsions:
REMARK  status: ('A' for Active; 'I' for Inactive)
REMARK    1  A    between atoms: C1_1  and  C2_2
REMARK    2  A    between atoms: C2_2  and  C3_3
REMARK    3  A    between atoms: C2_2  and  C4_4
REMARK    4  A    between atoms: C10_12  and  O4_27
REMARK    5  A    between atoms: C11_14  and  O3_26
REMARK    6  A    between atoms: C13_18  and  C20_25
REMARK    7  A    between atoms: C17_22  and  C18_23
REMARK    8  A    between atoms: C17_22  and  C19_24
REMARK    9  A    between atoms: O4_27  and  C21_28
REMARK                            x       y       z     vdW  Elec       q    Type
REMARK                         _______ _______ _______ _____ _____    ______ ____
ROOT
ATOM      3  C   UNL     1      47.330  12.682  16.268  0.00  0.00    -0.430 C 
ATOM      4  C   UNL     1      46.183  12.431  16.928  0.00  0.00    +0.242 C 
ATOM      5  O   UNL     1      45.388  11.402  16.552  0.00  0.00    -0.643 OA
ATOM      6  C   UNL     1      45.791  13.294  18.072  0.00  0.00    +0.383 C 
ATOM      7  C   UNL     1      46.657  14.410  18.498  0.00  0.00    -0.098 C 
ATOM      8  C   UNL     1      47.797  14.659  17.836  0.00  0.00    -0.108 C 
ATOM      9  C   UNL     1      48.709  15.791  18.201  0.00  0.00    +0.212 C 
ATOM     13  C   UNL     1      48.565  16.347  19.600  0.00  0.00    +0.166 C 
ATOM     16  C   UNL     1      47.488  15.711  20.462  0.00  0.00    +0.045 C 
ATOM     17  C   UNL     1      48.054  14.620  21.361  0.00  0.00    -0.052 C 
ATOM     18  C   UNL     1      49.011  15.271  22.383  0.00  0.00    +0.018 C 
ATOM     19  C   UNL     1      48.846  13.579  20.572  0.00  0.00    +0.027 C 
ATOM     20  C   UNL     1      46.962  13.918  22.170  0.00  0.00    +0.017 C 
ATOM     21  C   UNL     1      45.840  13.425  21.258  0.00  0.00    +0.010 C 
ATOM     22  C   UNL     1      45.229  14.638  20.556  0.00  0.00    +0.041 C 
ATOM     23  C   UNL     1      46.276  15.285  19.655  0.00  0.00    -0.011 C 
ATOM     24  C   UNL     1      45.622  16.552  19.074  0.00  0.00    +0.040 C 
ATOM     25  O   UNL     1      44.743  13.047  18.630  0.00  0.00    -0.415 OA
ATOM     26  C   UNL     1      48.176  13.804  16.682  0.00  0.00    +0.419 C 
ATOM     27  O   UNL     1      49.194  14.034  16.060  0.00  0.00    -0.493 OA
ENDROOT
BRANCH   3   2
ATOM      1  C   UNL     1      47.946  12.688  13.866  0.00  0.00    -0.010 C 
ATOM      2  C   UNL     1      47.745  11.815  15.106  0.00  0.00    +0.076 C 
ATOM     28  C   UNL     1      49.053  11.100  15.445  0.00  0.00    -0.009 C 
ENDBRANCH   3   2
BRANCH  13  14
ATOM     14  O   UNL     1      48.338  17.768  19.517  0.00  0.00    -0.561 OA
ATOM     15  H   UNL     1      47.546  18.012  19.018  0.00  0.00    +0.372 HD
ENDBRANCH  13  14
BRANCH   9  10
ATOM     10  O   UNL     1      50.071  15.369  18.018  0.00  0.00    -0.329 OA
BRANCH  10  11
ATOM     11  C   UNL     1      50.978  16.329  17.778  0.00  0.00    +0.569 C 
ATOM     12  O   UNL     1      50.779  17.147  16.912  0.00  0.00    -0.476 OA
ENDBRANCH  10  11
ENDBRANCH   9  10
TORSDOF 4
ENDMDL
MODEL 8
REMARK VINA RESULT:      -4.7      2.833      4.597
REMARK  Name = ZINC95486298
REMARK  9 active torsions:
REMARK  status: ('A' for Active; 'I' for Inactive)
REMARK    1  A    between atoms: C1_1  and  C2_2
REMARK    2  A    between atoms: C2_2  and  C3_3
REMARK    3  A    between atoms: C2_2  and  C4_4
REMARK    4  A    between atoms: C10_12  and  O4_27
REMARK    5  A    between atoms: C11_14  and  O3_26
REMARK    6  A    between atoms: C13_18  and  C20_25
REMARK    7  A    between atoms: C17_22  and  C18_23
REMARK    8  A    between atoms: C17_22  and  C19_24
REMARK    9  A    between atoms: O4_27  and  C21_28
REMARK                            x       y       z     vdW  Elec       q    Type
REMARK                         _______ _______ _______ _____ _____    ______ ____
ROOT
ATOM      3  C   UNL     1      50.469  19.489  18.326  0.00  0.00    -0.430 C 
ATOM      4  C   UNL     1      49.420  19.766  19.123  0.00  0.00    +0.242 C 
ATOM      5  O   UNL     1      49.051  21.048  19.350  0.00  0.00    -0.643 OA
ATOM      6  C   UNL     1      48.667  18.653  19.758  0.00  0.00    +0.383 C 
ATOM      7  C   UNL     1      49.052  17.252  19.507  0.00  0.00    -0.098 C 
ATOM      8  C   UNL     1      50.101  16.979  18.716  0.00  0.00    -0.108 C 
ATOM      9  C   UNL     1      50.559  15.580  18.439  0.00  0.00    +0.212 C 
ATOM     13  C   UNL     1      49.550  14.480  18.681  0.00  0.00    +0.166 C 
ATOM     16  C   UNL     1      48.196  14.924  19.207  0.00  0.00    +0.045 C 
ATOM     17  C   UNL     1      47.181  15.091  18.086  0.00  0.00    -0.052 C 
ATOM     18  C   UNL     1      46.901  13.706  17.463  0.00  0.00    +0.018 C 
ATOM     19  C   UNL     1      47.693  16.009  16.978  0.00  0.00    +0.027 C 
ATOM     20  C   UNL     1      45.839  15.618  18.599  0.00  0.00    +0.017 C 
ATOM     21  C   UNL     1      46.033  16.886  19.429  0.00  0.00    +0.010 C 
ATOM     22  C   UNL     1      46.917  16.539  20.628  0.00  0.00    +0.041 C 
ATOM     23  C   UNL     1      48.298  16.119  20.137  0.00  0.00    -0.011 C 
ATOM     24  C   UNL     1      49.086  15.683  21.387  0.00  0.00    +0.040 C 
ATOM     25  O   UNL     1      47.739  18.943  20.483  0.00  0.00    -0.415 OA
ATOM     26  C   UNL     1      50.860  18.097  18.097  0.00  0.00    +0.419 C 
ATOM     27  O   UNL     1      51.826  17.864  17.397  0.00  0.00    -0.493 OA
ENDROOT
BRANCH   3   2
ATOM      1  C   UNL     1      52.589  20.776  18.380  0.00  0.00    -0.010 C 
ATOM      2  C   UNL     1      51.243  20.606  17.672  0.00  0.00    +0.076 C 
ATOM     28  C   UNL     1      51.480  20.268  16.199  0.00  0.00    -0.009 C 
ENDBRANCH   3   2
BRANCH  13  14
ATOM     14  O   UNL     1      50.122  13.510  19.581  0.00  0.00    -0.561 OA
ATOM     15  H   UNL     1      50.997  13.195  19.315  0.00  0.00    +0.372 HD
ENDBRANCH  13  14
BRANCH   9  10
ATOM     10  O   UNL     1      51.004  15.496  17.074  0.00  0.00    -0.329 OA
BRANCH  10  11
ATOM     11  C   UNL     1      50.874  14.308  16.464  0.00  0.00    +0.569 C 
ATOM     12  O   UNL     1      51.463  14.091  15.431  0.00  0.00    -0.476 OA
ENDBRANCH  10  11
ENDBRANCH   9  10
TORSDOF 4
ENDMDL
MODEL 9
REMARK VINA RESULT:      -4.7      4.470      7.473
REMARK  Name = ZINC95486298
REMARK  9 active torsions:
REMARK  status: ('A' for Active; 'I' for Inactive)
REMARK    1  A    between atoms: C1_1  and  C2_2
REMARK    2  A    between atoms: C2_2  and  C3_3
REMARK    3  A    between atoms: C2_2  and  C4_4
REMARK    4  A    between atoms: C10_12  and  O4_27
REMARK    5  A    between atoms: C11_14  and  O3_26
REMARK    6  A    between atoms: C13_18  and  C20_25
REMARK    7  A    between atoms: C17_22  and  C18_23
REMARK    8  A    between atoms: C17_22  and  C19_24
REMARK    9  A    between atoms: O4_27  and  C21_28
REMARK                            x       y       z     vdW  Elec       q    Type
REMARK                         _______ _______ _______ _____ _____    ______ ____
ROOT
ATOM      3  C   UNL     1      49.548  12.536  15.293  0.00  0.00    -0.430 C 
ATOM      4  C   UNL     1      48.268  12.191  15.523  0.00  0.00    +0.242 C 
ATOM      5  O   UNL     1      47.744  11.080  14.952  0.00  0.00    -0.643 OA
ATOM      6  C   UNL     1      47.426  13.038  16.407  0.00  0.00    +0.383 C 
ATOM      7  C   UNL     1      47.990  14.243  17.045  0.00  0.00    -0.098 C 
ATOM      8  C   UNL     1      49.265  14.587  16.811  0.00  0.00    -0.108 C 
ATOM      9  C   UNL     1      49.892  15.810  17.407  0.00  0.00    +0.212 C 
ATOM     13  C   UNL     1      49.218  16.382  18.634  0.00  0.00    +0.166 C 
ATOM     16  C   UNL     1      47.963  15.665  19.099  0.00  0.00    +0.045 C 
ATOM     17  C   UNL     1      48.263  14.656  20.199  0.00  0.00    -0.052 C 
ATOM     18  C   UNL     1      48.739  15.421  21.453  0.00  0.00    +0.018 C 
ATOM     19  C   UNL     1      49.366  13.679  19.798  0.00  0.00    +0.027 C 
ATOM     20  C   UNL     1      47.017  13.870  20.614  0.00  0.00    +0.017 C 
ATOM     21  C   UNL     1      46.335  13.248  19.396  0.00  0.00    +0.010 C 
ATOM     22  C   UNL     1      45.913  14.379  18.457  0.00  0.00    +0.041 C 
ATOM     23  C   UNL     1      47.154  15.104  17.944  0.00  0.00    -0.011 C 
ATOM     24  C   UNL     1      46.644  16.287  17.100  0.00  0.00    +0.040 C 
ATOM     25  O   UNL     1      46.273  12.703  16.577  0.00  0.00    -0.415 OA
ATOM     26  C   UNL     1      50.097  13.745  15.912  0.00  0.00    +0.419 C 
ATOM     27  O   UNL     1      51.247  14.059  15.674  0.00  0.00    -0.493 OA
ENDROOT
BRANCH   3   2
ATOM      1  C   UNL     1      50.852  12.507  13.183  0.00  0.00    -0.010 C 
ATOM      2  C   UNL     1      50.417  11.687  14.400  0.00  0.00    +0.076 C 
ATOM     28  C   UNL     1      51.653  11.230  15.176  0.00  0.00    -0.009 C 
ENDBRANCH   3   2
BRANCH  13  14
ATOM     14  O   UNL     1      48.918  17.772  18.396  0.00  0.00    -0.561 OA
ATOM     15  H   UNL     1      48.555  18.234  19.165  0.00  0.00    +0.372 HD
ENDBRANCH  13  14
BRANCH   9  10
ATOM     10  O   UNL     1      51.262  15.519  17.736  0.00  0.00    -0.329 OA
BRANCH  10  11
ATOM     11  C   UNL     1      52.083  16.567  17.906  0.00  0.00    +0.569 C 
ATOM     12  O   UNL     1      51.909  17.580  17.272  0.00  0.00    -0.476 OA
ENDBRANCH  10  11
ENDBRANCH   9  10
TORSDOF 4
ENDMDL
