MODEL 1
REMARK VINA RESULT:      -5.6      0.000      0.000
REMARK  Name = ZINC14594077
REMARK  15 active torsions:
REMARK  status: ('A' for Active; 'I' for Inactive)
REMARK    1  A    between atoms: C1_1  and  C2_2
REMARK    2  A    between atoms: C2_2  and  C26_32
REMARK    3  A    between atoms: C3_3  and  C4_4
REMARK    4  A    between atoms: C4_4  and  C5_5
REMARK    5  A    between atoms: C6_6  and  O6_31
REMARK    6  A    between atoms: C7_7  and  C20_24
REMARK    7  A    between atoms: C7_7  and  O5_29
REMARK    8  A    between atoms: C9_10  and  C11_13
REMARK    9  A    between atoms: C9_10  and  O4_23
REMARK   10  A    between atoms: C11_13  and  C12_15
REMARK   11  A    between atoms: C13_16  and  C14_17
REMARK   12  A    between atoms: C20_24  and  C21_25
REMARK   13  A    between atoms: C22_26  and  C23_27
REMARK   14  A    between atoms: C22_26  and  C24_28
REMARK   15  A    between atoms: O5_29  and  C25_30
REMARK                            x       y       z     vdW  Elec       q    Type
REMARK                         _______ _______ _______ _____ _____    ______ ____
ROOT
ATOM      6  C   UNL     1      46.106  13.730  17.881  0.00  0.00    -0.257 C 
ATOM      7  C   UNL     1      45.827  14.224  19.097  0.00  0.00    +0.165 C 
ATOM     10  C   UNL     1      46.106  15.661  19.455  0.00  0.00    +0.089 C 
ATOM     18  C   UNL     1      46.127  16.476  18.178  0.00  0.00    +0.364 C 
ATOM     19  C   UNL     1      46.977  15.952  17.037  0.00  0.00    +0.002 C 
ATOM     32  O   UNL     1      45.496  17.500  18.074  0.00  0.00    -0.367 OA
ATOM     33  C   UNL     1      46.642  14.494  16.840  0.00  0.00    +0.407 C 
ATOM     34  O   UNL     1      46.841  13.976  15.759  0.00  0.00    -0.426 OA
ENDROOT
BRANCH   7   8
ATOM      8  O   UNL     1      45.288  13.411  20.026  0.00  0.00    -0.423 OA
ATOM      9  H   UNL     1      44.855  12.630  19.574  0.00  0.00    +0.407 HD
ENDBRANCH   7   8
BRANCH  10  11
ATOM     11  O   UNL     1      45.075  16.148  20.316  0.00  0.00    -0.341 OA
ATOM     12  C   UNL     1      45.559  16.854  21.461  0.00  0.00    +0.223 C 
ENDBRANCH  10  11
BRANCH  19  20
ATOM     20  O   UNL     1      46.685  16.680  15.843  0.00  0.00    -0.503 OA
ATOM     21  H   UNL     1      46.671  16.136  15.044  0.00  0.00    +0.398 HD
ENDBRANCH  19  20
BRANCH  19  22
ATOM     22  C   UNL     1      48.437  16.097  17.379  0.00  0.00    +0.382 C 
ATOM     31  O   UNL     1      49.171  15.131  17.332  0.00  0.00    -0.428 OA
BRANCH  22  23
ATOM     23  C   UNL     1      48.951  17.355  17.754  0.00  0.00    -0.120 C 
ATOM     24  C   UNL     1      50.289  17.560  17.778  0.00  0.00    +0.174 C 
BRANCH  24  25
ATOM     25  C   UNL     1      50.826  18.872  18.168  0.00  0.00    -0.099 A 
ATOM     26  C   UNL     1      49.958  19.897  18.563  0.00  0.00    +0.043 A 
ATOM     27  C   UNL     1      50.470  21.123  18.933  0.00  0.00    +0.005 A 
ATOM     28  C   UNL     1      51.836  21.345  18.904  0.00  0.00    +0.032 A 
ATOM     29  C   UNL     1      52.700  20.338  18.509  0.00  0.00    +0.004 A 
ATOM     30  C   UNL     1      52.205  19.104  18.141  0.00  0.00    +0.047 A 
ENDBRANCH  24  25
ENDBRANCH  22  23
ENDBRANCH  19  22
BRANCH   6   5
ATOM      5  C   UNL     1      45.819  12.273  17.622  0.00  0.00    +0.143 C 
BRANCH   5   4
ATOM      1  C   UNL     1      42.566  11.340  15.817  0.00  0.00    +0.072 C 
ATOM      2  C   UNL     1      44.006  11.372  16.257  0.00  0.00    -0.123 C 
ATOM      3  C   UNL     1      45.041  10.569  15.511  0.00  0.00    +0.074 C 
ATOM      4  C   UNL     1      44.360  12.100  17.288  0.00  0.00    -0.060 C 
ENDBRANCH   5   4
ENDBRANCH   6   5
BRANCH  10  13
ATOM     13  C   UNL     1      47.459  15.772  20.159  0.00  0.00    +0.119 C 
BRANCH  13  14
ATOM     14  C   UNL     1      47.935  14.397  20.550  0.00  0.00    -0.069 C 
ATOM     15  C   UNL     1      49.208  14.185  20.780  0.00  0.00    -0.096 C 
ATOM     16  C   UNL     1      49.698  12.790  21.068  0.00  0.00    +0.082 C 
ATOM     17  C   UNL     1      50.180  15.336  20.754  0.00  0.00    +0.080 C 
ENDBRANCH  13  14
ENDBRANCH  10  13
TORSDOF 10
ENDMDL
MODEL 2
REMARK VINA RESULT:      -5.6      2.995      5.890
REMARK  Name = ZINC14594077
REMARK  15 active torsions:
REMARK  status: ('A' for Active; 'I' for Inactive)
REMARK    1  A    between atoms: C1_1  and  C2_2
REMARK    2  A    between atoms: C2_2  and  C26_32
REMARK    3  A    between atoms: C3_3  and  C4_4
REMARK    4  A    between atoms: C4_4  and  C5_5
REMARK    5  A    between atoms: C6_6  and  O6_31
REMARK    6  A    between atoms: C7_7  and  C20_24
REMARK    7  A    between atoms: C7_7  and  O5_29
REMARK    8  A    between atoms: C9_10  and  C11_13
REMARK    9  A    between atoms: C9_10  and  O4_23
REMARK   10  A    between atoms: C11_13  and  C12_15
REMARK   11  A    between atoms: C13_16  and  C14_17
REMARK   12  A    between atoms: C20_24  and  C21_25
REMARK   13  A    between atoms: C22_26  and  C23_27
REMARK   14  A    between atoms: C22_26  and  C24_28
REMARK   15  A    between atoms: O5_29  and  C25_30
REMARK                            x       y       z     vdW  Elec       q    Type
REMARK                         _______ _______ _______ _____ _____    ______ ____
ROOT
ATOM      6  C   UNL     1      46.956  16.568  19.576  0.00  0.00    -0.257 C 
ATOM      7  C   UNL     1      47.524  16.562  18.361  0.00  0.00    +0.165 C 
ATOM     10  C   UNL     1      49.005  16.769  18.174  0.00  0.00    +0.089 C 
ATOM     18  C   UNL     1      49.709  16.373  19.456  0.00  0.00    +0.364 C 
ATOM     19  C   UNL     1      49.167  16.950  20.748  0.00  0.00    +0.002 C 
ATOM     32  O   UNL     1      50.662  15.631  19.447  0.00  0.00    -0.367 OA
ATOM     33  C   UNL     1      47.674  16.732  20.765  0.00  0.00    +0.407 C 
ATOM     34  O   UNL     1      47.087  16.700  21.828  0.00  0.00    -0.426 OA
ENDROOT
BRANCH   7   8
ATOM      8  O   UNL     1      46.749  16.371  17.277  0.00  0.00    -0.423 OA
ATOM      9  H   UNL     1      46.412  17.254  16.948  0.00  0.00    +0.407 HD
ENDBRANCH   7   8
BRANCH  10  11
ATOM     11  O   UNL     1      49.471  15.950  17.099  0.00  0.00    -0.341 OA
ATOM     12  C   UNL     1      49.061  14.583  17.190  0.00  0.00    +0.223 C 
ENDBRANCH  10  11
BRANCH  19  20
ATOM     20  O   UNL     1      49.765  16.284  21.862  0.00  0.00    -0.503 OA
ATOM     21  H   UNL     1      50.356  16.844  22.384  0.00  0.00    +0.398 HD
ENDBRANCH  19  20
BRANCH  19  22
ATOM     22  C   UNL     1      49.468  18.425  20.815  0.00  0.00    +0.382 C 
ATOM     31  O   UNL     1      50.615  18.815  20.730  0.00  0.00    -0.428 OA
BRANCH  22  23
ATOM     23  C   UNL     1      48.418  19.352  20.975  0.00  0.00    -0.120 C 
ATOM     24  C   UNL     1      48.084  20.179  19.957  0.00  0.00    +0.174 C 
BRANCH  24  25
ATOM     25  C   UNL     1      46.989  21.147  20.124  0.00  0.00    -0.099 A 
ATOM     26  C   UNL     1      46.946  21.972  21.254  0.00  0.00    +0.043 A 
ATOM     27  C   UNL     1      45.919  22.880  21.400  0.00  0.00    +0.005 A 
ATOM     28  C   UNL     1      44.926  22.969  20.440  0.00  0.00    +0.032 A 
ATOM     29  C   UNL     1      44.958  22.152  19.323  0.00  0.00    +0.004 A 
ATOM     30  C   UNL     1      45.982  21.242  19.158  0.00  0.00    +0.047 A 
ENDBRANCH  24  25
ENDBRANCH  22  23
ENDBRANCH  19  22
BRANCH   6   5
ATOM      5  C   UNL     1      45.463  16.381  19.665  0.00  0.00    +0.143 C 
BRANCH   5   4
ATOM      1  C   UNL     1      43.104  19.271  20.553  0.00  0.00    +0.072 C 
ATOM      2  C   UNL     1      43.905  17.997  20.623  0.00  0.00    -0.123 C 
ATOM      3  C   UNL     1      43.690  17.032  21.761  0.00  0.00    +0.074 C 
ATOM      4  C   UNL     1      44.789  17.728  19.694  0.00  0.00    -0.060 C 
ENDBRANCH   5   4
ENDBRANCH   6   5
BRANCH  10  13
ATOM     13  C   UNL     1      49.293  18.238  17.862  0.00  0.00    +0.119 C 
BRANCH  13  14
ATOM     14  C   UNL     1      50.446  18.330  16.895  0.00  0.00    -0.069 C 
ATOM     15  C   UNL     1      51.130  19.443  16.794  0.00  0.00    -0.096 C 
ATOM     16  C   UNL     1      52.214  19.569  15.755  0.00  0.00    +0.082 C 
ATOM     17  C   UNL     1      50.831  20.596  17.717  0.00  0.00    +0.080 C 
ENDBRANCH  13  14
ENDBRANCH  10  13
TORSDOF 10
ENDMDL
MODEL 3
REMARK VINA RESULT:      -5.6      2.882      5.922
REMARK  Name = ZINC14594077
REMARK  15 active torsions:
REMARK  status: ('A' for Active; 'I' for Inactive)
REMARK    1  A    between atoms: C1_1  and  C2_2
REMARK    2  A    between atoms: C2_2  and  C26_32
REMARK    3  A    between atoms: C3_3  and  C4_4
REMARK    4  A    between atoms: C4_4  and  C5_5
REMARK    5  A    between atoms: C6_6  and  O6_31
REMARK    6  A    between atoms: C7_7  and  C20_24
REMARK    7  A    between atoms: C7_7  and  O5_29
REMARK    8  A    between atoms: C9_10  and  C11_13
REMARK    9  A    between atoms: C9_10  and  O4_23
REMARK   10  A    between atoms: C11_13  and  C12_15
REMARK   11  A    between atoms: C13_16  and  C14_17
REMARK   12  A    between atoms: C20_24  and  C21_25
REMARK   13  A    between atoms: C22_26  and  C23_27
REMARK   14  A    between atoms: C22_26  and  C24_28
REMARK   15  A    between atoms: O5_29  and  C25_30
REMARK                            x       y       z     vdW  Elec       q    Type
REMARK                         _______ _______ _______ _____ _____    ______ ____
ROOT
ATOM      6  C   UNL     1      47.623  17.484  21.213  0.00  0.00    -0.257 C 
ATOM      7  C   UNL     1      46.356  17.918  21.147  0.00  0.00    +0.165 C 
ATOM     10  C   UNL     1      45.371  17.353  20.156  0.00  0.00    +0.089 C 
ATOM     18  C   UNL     1      45.826  15.960  19.772  0.00  0.00    +0.364 C 
ATOM     19  C   UNL     1      47.275  15.795  19.360  0.00  0.00    +0.002 C 
ATOM     32  O   UNL     1      45.065  15.022  19.791  0.00  0.00    -0.367 OA
ATOM     33  C   UNL     1      48.134  16.464  20.404  0.00  0.00    +0.407 C 
ATOM     34  O   UNL     1      49.289  16.111  20.544  0.00  0.00    -0.426 OA
ENDROOT
BRANCH   7   8
ATOM      8  O   UNL     1      45.952  18.890  21.988  0.00  0.00    -0.423 OA
ATOM      9  H   UNL     1      46.661  19.051  22.676  0.00  0.00    +0.407 HD
ENDBRANCH   7   8
BRANCH  10  11
ATOM     11  O   UNL     1      44.075  17.287  20.753  0.00  0.00    -0.341 OA
ATOM     12  C   UNL     1      44.048  16.602  22.008  0.00  0.00    +0.223 C 
ENDBRANCH  10  11
BRANCH  19  20
ATOM     20  O   UNL     1      47.600  14.405  19.286  0.00  0.00    -0.503 OA
ATOM     21  H   UNL     1      46.841  13.817  19.394  0.00  0.00    +0.398 HD
ENDBRANCH  19  20
BRANCH  19  22
ATOM     22  C   UNL     1      47.503  16.444  18.020  0.00  0.00    +0.382 C 
ATOM     31  O   UNL     1      46.940  16.014  17.034  0.00  0.00    -0.428 OA
BRANCH  22  23
ATOM     23  C   UNL     1      48.369  17.551  17.911  0.00  0.00    -0.120 C 
ATOM     24  C   UNL     1      49.505  17.453  17.182  0.00  0.00    +0.174 C 
BRANCH  24  25
ATOM     25  C   UNL     1      50.409  18.608  17.068  0.00  0.00    -0.099 A 
ATOM     26  C   UNL     1      50.293  19.681  17.958  0.00  0.00    +0.043 A 
ATOM     27  C   UNL     1      51.147  20.757  17.848  0.00  0.00    +0.005 A 
ATOM     28  C   UNL     1      52.111  20.783  16.854  0.00  0.00    +0.032 A 
ATOM     29  C   UNL     1      52.228  19.727  15.967  0.00  0.00    +0.004 A 
ATOM     30  C   UNL     1      51.385  18.640  16.066  0.00  0.00    +0.047 A 
ENDBRANCH  24  25
ENDBRANCH  22  23
ENDBRANCH  19  22
BRANCH   6   5
ATOM      5  C   UNL     1      48.544  18.127  22.218  0.00  0.00    +0.143 C 
BRANCH   5   4
ATOM      1  C   UNL     1      50.852  21.060  21.332  0.00  0.00    +0.072 C 
ATOM      2  C   UNL     1      50.349  19.696  21.727  0.00  0.00    -0.123 C 
ATOM      3  C   UNL     1      51.319  18.643  22.201  0.00  0.00    +0.074 C 
ATOM      4  C   UNL     1      49.069  19.425  21.660  0.00  0.00    -0.060 C 
ENDBRANCH   5   4
ENDBRANCH   6   5
BRANCH  10  13
ATOM     13  C   UNL     1      45.318  18.239  18.909  0.00  0.00    +0.119 C 
BRANCH  13  14
ATOM     14  C   UNL     1      44.484  19.460  19.197  0.00  0.00    -0.069 C 
ATOM     15  C   UNL     1      45.029  20.651  19.155  0.00  0.00    -0.096 C 
ATOM     16  C   UNL     1      44.223  21.863  19.544  0.00  0.00    +0.082 C 
ATOM     17  C   UNL     1      46.462  20.807  18.717  0.00  0.00    +0.080 C 
ENDBRANCH  13  14
ENDBRANCH  10  13
TORSDOF 10
ENDMDL
MODEL 4
REMARK VINA RESULT:      -5.5      2.066      3.100
REMARK  Name = ZINC14594077
REMARK  15 active torsions:
REMARK  status: ('A' for Active; 'I' for Inactive)
REMARK    1  A    between atoms: C1_1  and  C2_2
REMARK    2  A    between atoms: C2_2  and  C26_32
REMARK    3  A    between atoms: C3_3  and  C4_4
REMARK    4  A    between atoms: C4_4  and  C5_5
REMARK    5  A    between atoms: C6_6  and  O6_31
REMARK    6  A    between atoms: C7_7  and  C20_24
REMARK    7  A    between atoms: C7_7  and  O5_29
REMARK    8  A    between atoms: C9_10  and  C11_13
REMARK    9  A    between atoms: C9_10  and  O4_23
REMARK   10  A    between atoms: C11_13  and  C12_15
REMARK   11  A    between atoms: C13_16  and  C14_17
REMARK   12  A    between atoms: C20_24  and  C21_25
REMARK   13  A    between atoms: C22_26  and  C23_27
REMARK   14  A    between atoms: C22_26  and  C24_28
REMARK   15  A    between atoms: O5_29  and  C25_30
REMARK                            x       y       z     vdW  Elec       q    Type
REMARK                         _______ _______ _______ _____ _____    ______ ____
ROOT
ATOM      6  C   UNL     1      46.758  14.677  17.830  0.00  0.00    -0.257 C 
ATOM      7  C   UNL     1      46.941  13.897  18.906  0.00  0.00    +0.165 C 
ATOM     10  C   UNL     1      46.741  14.415  20.307  0.00  0.00    +0.089 C 
ATOM     18  C   UNL     1      45.794  15.596  20.250  0.00  0.00    +0.364 C 
ATOM     19  C   UNL     1      46.098  16.678  19.233  0.00  0.00    +0.002 C 
ATOM     32  O   UNL     1      44.838  15.671  20.984  0.00  0.00    -0.367 OA
ATOM     33  C   UNL     1      46.342  16.010  17.902  0.00  0.00    +0.407 C 
ATOM     34  O   UNL     1      46.175  16.641  16.878  0.00  0.00    -0.426 OA
ENDROOT
BRANCH   7   8
ATOM      8  O   UNL     1      47.320  12.617  18.730  0.00  0.00    -0.423 OA
ATOM      9  H   UNL     1      46.919  12.264  17.884  0.00  0.00    +0.407 HD
ENDBRANCH   7   8
BRANCH  10  11
ATOM     11  O   UNL     1      46.176  13.386  21.122  0.00  0.00    -0.341 OA
ATOM     12  C   UNL     1      46.887  13.151  22.340  0.00  0.00    +0.223 C 
ENDBRANCH  10  11
BRANCH  19  20
ATOM     20  O   UNL     1      44.986  17.569  19.129  0.00  0.00    -0.503 OA
ATOM     21  H   UNL     1      44.687  17.926  19.977  0.00  0.00    +0.398 HD
ENDBRANCH  19  20
BRANCH  19  22
ATOM     22  C   UNL     1      47.327  17.442  19.653  0.00  0.00    +0.382 C 
ATOM     31  O   UNL     1      47.500  17.717  20.823  0.00  0.00    -0.428 OA
BRANCH  22  23
ATOM     23  C   UNL     1      48.276  17.836  18.688  0.00  0.00    -0.120 C 
ATOM     24  C   UNL     1      49.259  18.705  19.020  0.00  0.00    +0.174 C 
BRANCH  24  25
ATOM     25  C   UNL     1      50.249  19.116  18.013  0.00  0.00    -0.099 A 
ATOM     26  C   UNL     1      50.696  20.441  17.968  0.00  0.00    +0.043 A 
ATOM     27  C   UNL     1      51.628  20.817  17.025  0.00  0.00    +0.005 A 
ATOM     28  C   UNL     1      52.114  19.892  16.118  0.00  0.00    +0.032 A 
ATOM     29  C   UNL     1      51.672  18.580  16.152  0.00  0.00    +0.004 A 
ATOM     30  C   UNL     1      50.744  18.186  17.093  0.00  0.00    +0.047 A 
ENDBRANCH  24  25
ENDBRANCH  22  23
ENDBRANCH  19  22
BRANCH   6   5
ATOM      5  C   UNL     1      47.009  14.081  16.469  0.00  0.00    +0.143 C 
BRANCH   5   4
ATOM      1  C   UNL     1      50.489  12.971  15.298  0.00  0.00    +0.072 C 
ATOM      2  C   UNL     1      48.995  13.115  15.428  0.00  0.00    -0.123 C 
ATOM      3  C   UNL     1      48.079  12.188  14.669  0.00  0.00    +0.074 C 
ATOM      4  C   UNL     1      48.491  14.046  16.200  0.00  0.00    -0.060 C 
ENDBRANCH   5   4
ENDBRANCH   6   5
BRANCH  10  13
ATOM     13  C   UNL     1      48.081  14.859  20.897  0.00  0.00    +0.119 C 
BRANCH  13  14
ATOM     14  C   UNL     1      49.190  14.520  19.935  0.00  0.00    -0.069 C 
ATOM     15  C   UNL     1      50.351  15.119  20.036  0.00  0.00    -0.096 C 
ATOM     16  C   UNL     1      51.425  14.858  19.012  0.00  0.00    +0.082 C 
ATOM     17  C   UNL     1      50.612  16.067  21.178  0.00  0.00    +0.080 C 
ENDBRANCH  13  14
ENDBRANCH  10  13
TORSDOF 10
ENDMDL
MODEL 5
REMARK VINA RESULT:      -5.4      2.311      6.311
REMARK  Name = ZINC14594077
REMARK  15 active torsions:
REMARK  status: ('A' for Active; 'I' for Inactive)
REMARK    1  A    between atoms: C1_1  and  C2_2
REMARK    2  A    between atoms: C2_2  and  C26_32
REMARK    3  A    between atoms: C3_3  and  C4_4
REMARK    4  A    between atoms: C4_4  and  C5_5
REMARK    5  A    between atoms: C6_6  and  O6_31
REMARK    6  A    between atoms: C7_7  and  C20_24
REMARK    7  A    between atoms: C7_7  and  O5_29
REMARK    8  A    between atoms: C9_10  and  C11_13
REMARK    9  A    between atoms: C9_10  and  O4_23
REMARK   10  A    between atoms: C11_13  and  C12_15
REMARK   11  A    between atoms: C13_16  and  C14_17
REMARK   12  A    between atoms: C20_24  and  C21_25
REMARK   13  A    between atoms: C22_26  and  C23_27
REMARK   14  A    between atoms: C22_26  and  C24_28
REMARK   15  A    between atoms: O5_29  and  C25_30
REMARK                            x       y       z     vdW  Elec       q    Type
REMARK                         _______ _______ _______ _____ _____    ______ ____
ROOT
ATOM      6  C   UNL     1      49.120  16.837  17.523  0.00  0.00    -0.257 C 
ATOM      7  C   UNL     1      49.869  15.817  17.966  0.00  0.00    +0.165 C 
ATOM     10  C   UNL     1      49.384  14.391  17.910  0.00  0.00    +0.089 C 
ATOM     18  C   UNL     1      48.341  14.283  16.816  0.00  0.00    +0.364 C 
ATOM     19  C   UNL     1      47.227  15.310  16.820  0.00  0.00    +0.002 C 
ATOM     32  O   UNL     1      48.395  13.414  15.978  0.00  0.00    -0.367 OA
ATOM     33  C   UNL     1      47.854  16.676  16.949  0.00  0.00    +0.407 C 
ATOM     34  O   UNL     1      47.250  17.652  16.549  0.00  0.00    -0.426 OA
ENDROOT
BRANCH   7   8
ATOM      8  O   UNL     1      51.087  16.073  18.479  0.00  0.00    -0.423 OA
ATOM      9  H   UNL     1      50.987  16.444  19.404  0.00  0.00    +0.407 HD
ENDBRANCH   7   8
BRANCH  10  11
ATOM     11  O   UNL     1      50.481  13.524  17.613  0.00  0.00    -0.341 OA
ATOM     12  C   UNL     1      50.570  12.384  18.472  0.00  0.00    +0.223 C 
ENDBRANCH  10  11
BRANCH  19  20
ATOM     20  O   UNL     1      46.492  15.231  15.597  0.00  0.00    -0.503 OA
ATOM     21  H   UNL     1      45.867  14.494  15.561  0.00  0.00    +0.398 HD
ENDBRANCH  19  20
BRANCH  19  22
ATOM     22  C   UNL     1      46.306  15.060  17.985  0.00  0.00    +0.382 C 
ATOM     31  O   UNL     1      45.890  13.940  18.201  0.00  0.00    -0.428 OA
BRANCH  22  23
ATOM     23  C   UNL     1      45.926  16.127  18.826  0.00  0.00    -0.120 C 
ATOM     24  C   UNL     1      45.260  15.878  19.977  0.00  0.00    +0.174 C 
BRANCH  24  25
ATOM     25  C   UNL     1      44.864  16.991  20.854  0.00  0.00    -0.099 A 
ATOM     26  C   UNL     1      45.765  18.027  21.124  0.00  0.00    +0.043 A 
ATOM     27  C   UNL     1      45.385  19.069  21.942  0.00  0.00    +0.005 A 
ATOM     28  C   UNL     1      44.120  19.087  22.505  0.00  0.00    +0.032 A 
ATOM     29  C   UNL     1      43.225  18.063  22.247  0.00  0.00    +0.004 A 
ATOM     30  C   UNL     1      43.588  17.015  21.426  0.00  0.00    +0.047 A 
ENDBRANCH  24  25
ENDBRANCH  22  23
ENDBRANCH  19  22
BRANCH   6   5
ATOM      5  C   UNL     1      49.675  18.233  17.644  0.00  0.00    +0.143 C 
BRANCH   5   4
ATOM      1  C   UNL     1      48.988  20.736  20.468  0.00  0.00    +0.072 C 
ATOM      2  C   UNL     1      49.444  20.126  19.168  0.00  0.00    -0.123 C 
ATOM      3  C   UNL     1      50.315  20.919  18.228  0.00  0.00    +0.074 C 
ATOM      4  C   UNL     1      49.082  18.906  18.855  0.00  0.00    -0.060 C 
ENDBRANCH   5   4
ENDBRANCH   6   5
BRANCH  10  13
ATOM     13  C   UNL     1      48.765  13.995  19.251  0.00  0.00    +0.119 C 
BRANCH  13  14
ATOM     14  C   UNL     1      49.060  15.062  20.274  0.00  0.00    -0.069 C 
ATOM     15  C   UNL     1      48.467  15.032  21.442  0.00  0.00    -0.096 C 
ATOM     16  C   UNL     1      48.682  16.155  22.424  0.00  0.00    +0.082 C 
ATOM     17  C   UNL     1      47.572  13.875  21.803  0.00  0.00    +0.080 C 
ENDBRANCH  13  14
ENDBRANCH  10  13
TORSDOF 10
ENDMDL
MODEL 6
REMARK VINA RESULT:      -5.4      2.120      5.103
REMARK  Name = ZINC14594077
REMARK  15 active torsions:
REMARK  status: ('A' for Active; 'I' for Inactive)
REMARK    1  A    between atoms: C1_1  and  C2_2
REMARK    2  A    between atoms: C2_2  and  C26_32
REMARK    3  A    between atoms: C3_3  and  C4_4
REMARK    4  A    between atoms: C4_4  and  C5_5
REMARK    5  A    between atoms: C6_6  and  O6_31
REMARK    6  A    between atoms: C7_7  and  C20_24
REMARK    7  A    between atoms: C7_7  and  O5_29
REMARK    8  A    between atoms: C9_10  and  C11_13
REMARK    9  A    between atoms: C9_10  and  O4_23
REMARK   10  A    between atoms: C11_13  and  C12_15
REMARK   11  A    between atoms: C13_16  and  C14_17
REMARK   12  A    between atoms: C20_24  and  C21_25
REMARK   13  A    between atoms: C22_26  and  C23_27
REMARK   14  A    between atoms: C22_26  and  C24_28
REMARK   15  A    between atoms: O5_29  and  C25_30
REMARK                            x       y       z     vdW  Elec       q    Type
REMARK                         _______ _______ _______ _____ _____    ______ ____
ROOT
ATOM      6  C   UNL     1      48.684  15.167  20.108  0.00  0.00    -0.257 C 
ATOM      7  C   UNL     1      47.512  15.470  20.686  0.00  0.00    +0.165 C 
ATOM     10  C   UNL     1      46.233  15.557  19.894  0.00  0.00    +0.089 C 
ATOM     18  C   UNL     1      46.385  14.712  18.646  0.00  0.00    +0.364 C 
ATOM     19  C   UNL     1      47.635  14.923  17.816  0.00  0.00    +0.002 C 
ATOM     32  O   UNL     1      45.544  13.906  18.325  0.00  0.00    -0.367 OA
ATOM     33  C   UNL     1      48.823  14.879  18.746  0.00  0.00    +0.407 C 
ATOM     34  O   UNL     1      49.917  14.589  18.305  0.00  0.00    -0.426 OA
ENDROOT
BRANCH   7   8
ATOM      8  O   UNL     1      47.478  15.707  22.011  0.00  0.00    -0.423 OA
ATOM      9  H   UNL     1      46.557  15.997  22.274  0.00  0.00    +0.407 HD
ENDBRANCH   7   8
BRANCH  10  11
ATOM     11  O   UNL     1      45.148  15.058  20.681  0.00  0.00    -0.341 OA
ATOM     12  C   UNL     1      45.388  13.770  21.253  0.00  0.00    +0.223 C 
ENDBRANCH  10  11
BRANCH  19  20
ATOM     20  O   UNL     1      47.748  13.886  16.840  0.00  0.00    -0.503 OA
ATOM     21  H   UNL     1      47.544  13.003  17.178  0.00  0.00    +0.398 HD
ENDBRANCH  19  20
BRANCH  19  22
ATOM     22  C   UNL     1      47.574  16.263  17.131  0.00  0.00    +0.382 C 
ATOM     31  O   UNL     1      46.554  16.613  16.572  0.00  0.00    -0.428 OA
BRANCH  22  23
ATOM     23  C   UNL     1      48.700  17.112  17.139  0.00  0.00    -0.120 C 
ATOM     24  C   UNL     1      48.800  18.096  18.063  0.00  0.00    +0.174 C 
BRANCH  24  25
ATOM     25  C   UNL     1      49.975  18.981  18.071  0.00  0.00    -0.099 A 
ATOM     26  C   UNL     1      51.174  18.562  17.484  0.00  0.00    +0.043 A 
ATOM     27  C   UNL     1      52.269  19.399  17.492  0.00  0.00    +0.005 A 
ATOM     28  C   UNL     1      52.188  20.647  18.086  0.00  0.00    +0.032 A 
ATOM     29  C   UNL     1      51.007  21.066  18.674  0.00  0.00    +0.004 A 
ATOM     30  C   UNL     1      49.900  20.243  18.670  0.00  0.00    +0.047 A 
ENDBRANCH  24  25
ENDBRANCH  22  23
ENDBRANCH  19  22
BRANCH   6   5
ATOM      5  C   UNL     1      49.917  15.130  20.974  0.00  0.00    +0.143 C 
BRANCH   5   4
ATOM      1  C   UNL     1      52.183  18.220  21.146  0.00  0.00    +0.072 C 
ATOM      2  C   UNL     1      51.611  16.876  20.776  0.00  0.00    -0.123 C 
ATOM      3  C   UNL     1      52.412  15.925  19.922  0.00  0.00    +0.074 C 
ATOM      4  C   UNL     1      50.418  16.534  21.195  0.00  0.00    -0.060 C 
ENDBRANCH   5   4
ENDBRANCH   6   5
BRANCH  10  13
ATOM     13  C   UNL     1      45.958  17.009  19.501  0.00  0.00    +0.119 C 
BRANCH  13  14
ATOM     14  C   UNL     1      44.629  17.439  20.066  0.00  0.00    -0.069 C 
ATOM     15  C   UNL     1      44.099  18.580  19.700  0.00  0.00    -0.096 C 
ATOM     16  C   UNL     1      42.823  19.058  20.343  0.00  0.00    +0.082 C 
ATOM     17  C   UNL     1      44.767  19.414  18.638  0.00  0.00    +0.080 C 
ENDBRANCH  13  14
ENDBRANCH  10  13
TORSDOF 10
ENDMDL
MODEL 7
REMARK VINA RESULT:      -5.4      2.082      4.437
REMARK  Name = ZINC14594077
REMARK  15 active torsions:
REMARK  status: ('A' for Active; 'I' for Inactive)
REMARK    1  A    between atoms: C1_1  and  C2_2
REMARK    2  A    between atoms: C2_2  and  C26_32
REMARK    3  A    between atoms: C3_3  and  C4_4
REMARK    4  A    between atoms: C4_4  and  C5_5
REMARK    5  A    between atoms: C6_6  and  O6_31
REMARK    6  A    between atoms: C7_7  and  C20_24
REMARK    7  A    between atoms: C7_7  and  O5_29
REMARK    8  A    between atoms: C9_10  and  C11_13
REMARK    9  A    between atoms: C9_10  and  O4_23
REMARK   10  A    between atoms: C11_13  and  C12_15
REMARK   11  A    between atoms: C13_16  and  C14_17
REMARK   12  A    between atoms: C20_24  and  C21_25
REMARK   13  A    between atoms: C22_26  and  C23_27
REMARK   14  A    between atoms: C22_26  and  C24_28
REMARK   15  A    between atoms: O5_29  and  C25_30
REMARK                            x       y       z     vdW  Elec       q    Type
REMARK                         _______ _______ _______ _____ _____    ______ ____
ROOT
ATOM      6  C   UNL     1      49.423  14.045  18.424  0.00  0.00    -0.257 C 
ATOM      7  C   UNL     1      48.715  13.911  19.555  0.00  0.00    +0.165 C 
ATOM     10  C   UNL     1      47.242  14.225  19.615  0.00  0.00    +0.089 C 
ATOM     18  C   UNL     1      46.668  14.092  18.219  0.00  0.00    +0.364 C 
ATOM     19  C   UNL     1      47.402  14.803  17.100  0.00  0.00    +0.002 C 
ATOM     32  O   UNL     1      45.668  13.449  18.009  0.00  0.00    -0.367 OA
ATOM     33  C   UNL     1      48.866  14.451  17.207  0.00  0.00    +0.407 C 
ATOM     34  O   UNL     1      49.571  14.523  16.220  0.00  0.00    -0.426 OA
ENDROOT
BRANCH   7   8
ATOM      8  O   UNL     1      49.339  13.489  20.671  0.00  0.00    -0.423 OA
ATOM      9  H   UNL     1      50.124  14.081  20.858  0.00  0.00    +0.407 HD
ENDBRANCH   7   8
BRANCH  10  11
ATOM     11  O   UNL     1      46.591  13.302  20.490  0.00  0.00    -0.341 OA
ATOM     12  C   UNL     1      45.627  13.903  21.358  0.00  0.00    +0.223 C 
ENDBRANCH  10  11
BRANCH  19  20
ATOM     20  O   UNL     1      46.893  14.369  15.837  0.00  0.00    -0.503 OA
ATOM     21  H   UNL     1      47.313  13.567  15.497  0.00  0.00    +0.398 HD
ENDBRANCH  19  20
BRANCH  19  22
ATOM     22  C   UNL     1      47.224  16.292  17.237  0.00  0.00    +0.382 C 
ATOM     31  O   UNL     1      46.161  16.745  17.612  0.00  0.00    -0.428 OA
BRANCH  22  23
ATOM     23  C   UNL     1      48.291  17.161  16.930  0.00  0.00    -0.120 C 
ATOM     24  C   UNL     1      48.936  17.818  17.921  0.00  0.00    +0.174 C 
BRANCH  24  25
ATOM     25  C   UNL     1      50.049  18.724  17.601  0.00  0.00    -0.099 A 
ATOM     26  C   UNL     1      50.258  19.878  18.365  0.00  0.00    +0.043 A 
ATOM     27  C   UNL     1      51.307  20.720  18.062  0.00  0.00    +0.005 A 
ATOM     28  C   UNL     1      52.146  20.432  17.000  0.00  0.00    +0.032 A 
ATOM     29  C   UNL     1      51.943  19.295  16.236  0.00  0.00    +0.004 A 
ATOM     30  C   UNL     1      50.901  18.440  16.529  0.00  0.00    +0.047 A 
ENDBRANCH  24  25
ENDBRANCH  22  23
ENDBRANCH  19  22
BRANCH   6   5
ATOM      5  C   UNL     1      50.897  13.735  18.465  0.00  0.00    +0.143 C 
BRANCH   5   4
ATOM      1  C   UNL     1      52.924  16.906  19.205  0.00  0.00    +0.072 C 
ATOM      2  C   UNL     1      52.286  15.547  19.329  0.00  0.00    -0.123 C 
ATOM      3  C   UNL     1      52.341  14.805  20.641  0.00  0.00    +0.074 C 
ATOM      4  C   UNL     1      51.683  15.009  18.298  0.00  0.00    -0.060 C 
ENDBRANCH   5   4
ENDBRANCH   6   5
BRANCH  10  13
ATOM     13  C   UNL     1      47.031  15.652  20.124  0.00  0.00    +0.119 C 
BRANCH  13  14
ATOM     14  C   UNL     1      48.283  16.128  20.814  0.00  0.00    -0.069 C 
ATOM     15  C   UNL     1      48.371  17.368  21.230  0.00  0.00    -0.096 C 
ATOM     16  C   UNL     1      49.660  17.873  21.825  0.00  0.00    +0.082 C 
ATOM     17  C   UNL     1      47.184  18.288  21.112  0.00  0.00    +0.080 C 
ENDBRANCH  13  14
ENDBRANCH  10  13
TORSDOF 10
ENDMDL
MODEL 8
REMARK VINA RESULT:      -5.4      2.550      5.010
REMARK  Name = ZINC14594077
REMARK  15 active torsions:
REMARK  status: ('A' for Active; 'I' for Inactive)
REMARK    1  A    between atoms: C1_1  and  C2_2
REMARK    2  A    between atoms: C2_2  and  C26_32
REMARK    3  A    between atoms: C3_3  and  C4_4
REMARK    4  A    between atoms: C4_4  and  C5_5
REMARK    5  A    between atoms: C6_6  and  O6_31
REMARK    6  A    between atoms: C7_7  and  C20_24
REMARK    7  A    between atoms: C7_7  and  O5_29
REMARK    8  A    between atoms: C9_10  and  C11_13
REMARK    9  A    between atoms: C9_10  and  O4_23
REMARK   10  A    between atoms: C11_13  and  C12_15
REMARK   11  A    between atoms: C13_16  and  C14_17
REMARK   12  A    between atoms: C20_24  and  C21_25
REMARK   13  A    between atoms: C22_26  and  C23_27
REMARK   14  A    between atoms: C22_26  and  C24_28
REMARK   15  A    between atoms: O5_29  and  C25_30
REMARK                            x       y       z     vdW  Elec       q    Type
REMARK                         _______ _______ _______ _____ _____    ______ ____
ROOT
ATOM      6  C   UNL     1      47.011  15.930  17.925  0.00  0.00    -0.257 C 
ATOM      7  C   UNL     1      47.223  15.036  16.948  0.00  0.00    +0.165 C 
ATOM     10  C   UNL     1      48.185  13.888  17.113  0.00  0.00    +0.089 C 
ATOM     18  C   UNL     1      48.331  13.597  18.593  0.00  0.00    +0.364 C 
ATOM     19  C   UNL     1      48.617  14.774  19.504  0.00  0.00    +0.002 C 
ATOM     32  O   UNL     1      48.226  12.475  19.027  0.00  0.00    -0.367 OA
ATOM     33  C   UNL     1      47.626  15.865  19.179  0.00  0.00    +0.407 C 
ATOM     34  O   UNL     1      47.360  16.700  20.020  0.00  0.00    -0.426 OA
ENDROOT
BRANCH   7   8
ATOM      8  O   UNL     1      46.561  15.172  15.782  0.00  0.00    -0.423 OA
ATOM      9  H   UNL     1      45.584  15.019  15.934  0.00  0.00    +0.407 HD
ENDBRANCH   7   8
BRANCH  10  11
ATOM     11  O   UNL     1      47.671  12.734  16.446  0.00  0.00    -0.341 OA
ATOM     12  C   UNL     1      46.342  12.380  16.836  0.00  0.00    +0.223 C 
ENDBRANCH  10  11
BRANCH  19  20
ATOM     20  O   UNL     1      48.467  14.376  20.868  0.00  0.00    -0.503 OA
ATOM     21  H   UNL     1      49.278  14.040  21.272  0.00  0.00    +0.398 HD
ENDBRANCH  19  20
BRANCH  19  22
ATOM     22  C   UNL     1      50.019  15.272  19.270  0.00  0.00    +0.382 C 
ATOM     31  O   UNL     1      50.956  14.501  19.330  0.00  0.00    -0.428 OA
BRANCH  22  23
ATOM     23  C   UNL     1      50.245  16.634  18.981  0.00  0.00    -0.120 C 
ATOM     24  C   UNL     1      50.737  16.997  17.774  0.00  0.00    +0.174 C 
BRANCH  24  25
ATOM     25  C   UNL     1      50.972  18.417  17.472  0.00  0.00    -0.099 A 
ATOM     26  C   UNL     1      51.728  18.782  16.353  0.00  0.00    +0.043 A 
ATOM     27  C   UNL     1      51.939  20.116  16.074  0.00  0.00    +0.005 A 
ATOM     28  C   UNL     1      51.415  21.092  16.903  0.00  0.00    +0.032 A 
ATOM     29  C   UNL     1      50.671  20.739  18.016  0.00  0.00    +0.004 A 
ATOM     30  C   UNL     1      50.445  19.410  18.306  0.00  0.00    +0.047 A 
ENDBRANCH  24  25
ENDBRANCH  22  23
ENDBRANCH  19  22
BRANCH   6   5
ATOM      5  C   UNL     1      46.051  17.061  17.660  0.00  0.00    +0.143 C 
BRANCH   5   4
ATOM      1  C   UNL     1      46.715  20.742  18.513  0.00  0.00    +0.072 C 
ATOM      2  C   UNL     1      46.077  19.380  18.424  0.00  0.00    -0.123 C 
ATOM      3  C   UNL     1      44.671  19.171  18.928  0.00  0.00    +0.074 C 
ATOM      4  C   UNL     1      46.744  18.376  17.909  0.00  0.00    -0.060 C 
ENDBRANCH   5   4
ENDBRANCH   6   5
BRANCH  10  13
ATOM     13  C   UNL     1      49.548  14.258  16.525  0.00  0.00    +0.119 C 
BRANCH  13  14
ATOM     14  C   UNL     1      49.872  13.326  15.386  0.00  0.00    -0.069 C 
ATOM     15  C   UNL     1      50.930  12.556  15.451  0.00  0.00    -0.096 C 
ATOM     16  C   UNL     1      51.313  11.702  14.270  0.00  0.00    +0.082 C 
ATOM     17  C   UNL     1      51.763  12.525  16.706  0.00  0.00    +0.080 C 
ENDBRANCH  13  14
ENDBRANCH  10  13
TORSDOF 10
ENDMDL
MODEL 9
REMARK VINA RESULT:      -5.4      2.579      5.344
REMARK  Name = ZINC14594077
REMARK  15 active torsions:
REMARK  status: ('A' for Active; 'I' for Inactive)
REMARK    1  A    between atoms: C1_1  and  C2_2
REMARK    2  A    between atoms: C2_2  and  C26_32
REMARK    3  A    between atoms: C3_3  and  C4_4
REMARK    4  A    between atoms: C4_4  and  C5_5
REMARK    5  A    between atoms: C6_6  and  O6_31
REMARK    6  A    between atoms: C7_7  and  C20_24
REMARK    7  A    between atoms: C7_7  and  O5_29
REMARK    8  A    between atoms: C9_10  and  C11_13
REMARK    9  A    between atoms: C9_10  and  O4_23
REMARK   10  A    between atoms: C11_13  and  C12_15
REMARK   11  A    between atoms: C13_16  and  C14_17
REMARK   12  A    between atoms: C20_24  and  C21_25
REMARK   13  A    between atoms: C22_26  and  C23_27
REMARK   14  A    between atoms: C22_26  and  C24_28
REMARK   15  A    between atoms: O5_29  and  C25_30
REMARK                            x       y       z     vdW  Elec       q    Type
REMARK                         _______ _______ _______ _____ _____    ______ ____
ROOT
ATOM      6  C   UNL     1      46.533  18.300  18.896  0.00  0.00    -0.257 C 
ATOM      7  C   UNL     1      46.838  17.388  17.961  0.00  0.00    +0.165 C 
ATOM     10  C   UNL     1      47.398  16.036  18.321  0.00  0.00    +0.089 C 
ATOM     18  C   UNL     1      46.982  15.709  19.741  0.00  0.00    +0.364 C 
ATOM     19  C   UNL     1      47.221  16.772  20.793  0.00  0.00    +0.002 C 
ATOM     32  O   UNL     1      46.482  14.645  20.021  0.00  0.00    -0.367 OA
ATOM     33  C   UNL     1      46.674  18.077  20.270  0.00  0.00    +0.407 C 
ATOM     34  O   UNL     1      46.351  18.947  21.053  0.00  0.00    -0.426 OA
ENDROOT
BRANCH   7   8
ATOM      8  O   UNL     1      46.643  17.691  16.663  0.00  0.00    -0.423 OA
ATOM      9  H   UNL     1      45.964  18.422  16.590  0.00  0.00    +0.407 HD
ENDBRANCH   7   8
BRANCH  10  11
ATOM     11  O   UNL     1      46.875  15.049  17.429  0.00  0.00    -0.341 OA
ATOM     12  C   UNL     1      47.852  14.119  16.955  0.00  0.00    +0.223 C 
ENDBRANCH  10  11
BRANCH  19  20
ATOM     20  O   UNL     1      46.546  16.416  22.002  0.00  0.00    -0.503 OA
ATOM     21  H   UNL     1      46.726  15.514  22.302  0.00  0.00    +0.398 HD
ENDBRANCH  19  20
BRANCH  19  22
ATOM     22  C   UNL     1      48.698  16.908  21.056  0.00  0.00    +0.382 C 
ATOM     31  O   UNL     1      49.345  15.939  21.400  0.00  0.00    -0.428 OA
BRANCH  22  23
ATOM     23  C   UNL     1      49.330  18.159  20.901  0.00  0.00    -0.120 C 
ATOM     24  C   UNL     1      50.674  18.225  20.759  0.00  0.00    +0.174 C 
BRANCH  24  25
ATOM     25  C   UNL     1      51.333  19.530  20.598  0.00  0.00    -0.099 A 
ATOM     26  C   UNL     1      51.257  20.209  19.376  0.00  0.00    +0.043 A 
ATOM     27  C   UNL     1      51.873  21.435  19.234  0.00  0.00    +0.005 A 
ATOM     28  C   UNL     1      52.574  21.988  20.292  0.00  0.00    +0.032 A 
ATOM     29  C   UNL     1      52.659  21.320  21.501  0.00  0.00    +0.004 A 
ATOM     30  C   UNL     1      52.044  20.096  21.662  0.00  0.00    +0.047 A 
ENDBRANCH  24  25
ENDBRANCH  22  23
ENDBRANCH  19  22
BRANCH   6   5
ATOM      5  C   UNL     1      46.005  19.636  18.441  0.00  0.00    +0.143 C 
BRANCH   5   4
ATOM      1  C   UNL     1      42.319  20.399  19.182  0.00  0.00    +0.072 C 
ATOM      2  C   UNL     1      43.815  20.527  19.050  0.00  0.00    -0.123 C 
ATOM      3  C   UNL     1      44.524  21.720  19.638  0.00  0.00    +0.074 C 
ATOM      4  C   UNL     1      44.498  19.601  18.424  0.00  0.00    -0.060 C 
ENDBRANCH   5   4
ENDBRANCH   6   5
BRANCH  10  13
ATOM     13  C   UNL     1      48.924  16.059  18.225  0.00  0.00    +0.119 C 
BRANCH  13  14
ATOM     14  C   UNL     1      49.353  17.182  17.316  0.00  0.00    -0.069 C 
ATOM     15  C   UNL     1      50.625  17.379  17.073  0.00  0.00    -0.096 C 
ATOM     16  C   UNL     1      51.060  18.564  16.250  0.00  0.00    +0.082 C 
ATOM     17  C   UNL     1      51.653  16.420  17.617  0.00  0.00    +0.080 C 
ENDBRANCH  13  14
ENDBRANCH  10  13
TORSDOF 10
ENDMDL
