MODEL 1
REMARK VINA RESULT:      -5.0      0.000      0.000
REMARK  Name = ZINC03861087
REMARK  19 active torsions:
REMARK  status: ('A' for Active; 'I' for Inactive)
REMARK    1  A    between atoms: C1_1  and  C2_2
REMARK    2  A    between atoms: C2_2  and  C3_4
REMARK    3  A    between atoms: C2_2  and  C15_18
REMARK    4  A    between atoms: C3_4  and  C4_5
REMARK    5  A    between atoms: C4_5  and  C5_6
REMARK    6  A    between atoms: C5_6  and  C6_7
REMARK    7  A    between atoms: C6_7  and  C7_9
REMARK    8  A    between atoms: C6_7  and  C8_10
REMARK    9  A    between atoms: C8_10  and  C9_11
REMARK   10  A    between atoms: C9_11  and  C10_12
REMARK   11  A    between atoms: C10_12  and  C11_13
REMARK   12  A    between atoms: C11_13  and  C14_17
REMARK   13  A    between atoms: C12_14  and  C13_15
REMARK   14  A    between atoms: C13_15  and  O1_16
REMARK   15  A    between atoms: C15_18  and  C16_19
REMARK   16  A    between atoms: C16_19  and  C17_20
REMARK   17  A    between atoms: C17_20  and  C18_21
REMARK   18  A    between atoms: C18_21  and  C19_22
REMARK   19  A    between atoms: C18_21  and  C20_23
REMARK                            x       y       z     vdW  Elec       q    Type
REMARK                         _______ _______ _______ _____ _____    ______ ____
ROOT
ATOM     11  C   UNL     1      46.812  21.128  19.273  0.00  0.00    +0.005 C 
ENDROOT
BRANCH  11  12
ATOM     12  C   UNL     1      46.307  21.177  20.716  0.00  0.00    -0.024 C 
ATOM     22  C   UNL     1      46.817  22.451  21.391  0.00  0.00    +0.013 C 
BRANCH  12  13
ATOM     13  C   UNL     1      44.777  21.176  20.720  0.00  0.00    +0.007 C 
BRANCH  13  14
ATOM     14  C   UNL     1      44.267  19.737  20.827  0.00  0.00    +0.014 C 
BRANCH  14  15
ATOM     15  C   UNL     1      43.615  19.327  19.506  0.00  0.00    +0.054 C 
BRANCH  15  16
ATOM     16  C   UNL     1      42.167  19.743  19.510  0.00  0.00    -0.112 C 
ATOM     17  C   UNL     1      41.235  19.216  20.572  0.00  0.00    +0.074 C 
ATOM     18  C   UNL     1      41.717  20.560  18.590  0.00  0.00    -0.052 C 
BRANCH  18  19
ATOM     19  C   UNL     1      40.268  20.976  18.595  0.00  0.00    +0.209 C 
BRANCH  19  20
ATOM     20  O   UNL     1      40.162  22.336  18.170  0.00  0.00    -0.571 OA
ATOM     21  H   UNL     1      40.555  22.508  17.303  0.00  0.00    +0.380 HD
ENDBRANCH  19  20
ENDBRANCH  18  19
ENDBRANCH  15  16
ENDBRANCH  14  15
ENDBRANCH  13  14
ENDBRANCH  12  13
ENDBRANCH  11  12
BRANCH  11  10
ATOM     10  C   UNL     1      47.984  20.149  19.176  0.00  0.00    +0.003 C 
BRANCH  10   9
ATOM      9  C   UNL     1      49.251  20.907  18.777  0.00  0.00    +0.005 C 
BRANCH   9   2
ATOM      1  C   UNL     1      50.081  20.583  21.112  0.00  0.00    +0.012 C 
ATOM      2  C   UNL     1      50.426  20.422  19.630  0.00  0.00    -0.024 C 
BRANCH   2   3
ATOM      3  C   UNL     1      51.670  21.250  19.302  0.00  0.00    +0.005 C 
BRANCH   3   4
ATOM      4  C   UNL     1      52.302  20.731  18.009  0.00  0.00    +0.003 C 
BRANCH   4   5
ATOM      5  C   UNL     1      52.331  19.201  18.034  0.00  0.00    +0.005 C 
BRANCH   5   6
ATOM      6  C   UNL     1      51.872  18.660  16.679  0.00  0.00    -0.031 C 
ATOM      7  C   UNL     1      51.800  19.808  15.670  0.00  0.00    +0.012 C 
ATOM      8  C   UNL     1      50.488  18.023  16.826  0.00  0.00    +0.012 C 
ENDBRANCH   5   6
ENDBRANCH   4   5
ENDBRANCH   3   4
ENDBRANCH   2   3
ENDBRANCH   9   2
ENDBRANCH  10   9
ENDBRANCH  11  10
TORSDOF 14
ENDMDL
MODEL 2
REMARK VINA RESULT:      -4.9      2.946      8.659
REMARK  Name = ZINC03861087
REMARK  19 active torsions:
REMARK  status: ('A' for Active; 'I' for Inactive)
REMARK    1  A    between atoms: C1_1  and  C2_2
REMARK    2  A    between atoms: C2_2  and  C3_4
REMARK    3  A    between atoms: C2_2  and  C15_18
REMARK    4  A    between atoms: C3_4  and  C4_5
REMARK    5  A    between atoms: C4_5  and  C5_6
REMARK    6  A    between atoms: C5_6  and  C6_7
REMARK    7  A    between atoms: C6_7  and  C7_9
REMARK    8  A    between atoms: C6_7  and  C8_10
REMARK    9  A    between atoms: C8_10  and  C9_11
REMARK   10  A    between atoms: C9_11  and  C10_12
REMARK   11  A    between atoms: C10_12  and  C11_13
REMARK   12  A    between atoms: C11_13  and  C14_17
REMARK   13  A    between atoms: C12_14  and  C13_15
REMARK   14  A    between atoms: C13_15  and  O1_16
REMARK   15  A    between atoms: C15_18  and  C16_19
REMARK   16  A    between atoms: C16_19  and  C17_20
REMARK   17  A    between atoms: C17_20  and  C18_21
REMARK   18  A    between atoms: C18_21  and  C19_22
REMARK   19  A    between atoms: C18_21  and  C20_23
REMARK                            x       y       z     vdW  Elec       q    Type
REMARK                         _______ _______ _______ _____ _____    ______ ____
ROOT
ATOM     11  C   UNL     1      46.008  19.393  18.806  0.00  0.00    +0.005 C 
ENDROOT
BRANCH  11  12
ATOM     12  C   UNL     1      46.426  20.862  18.890  0.00  0.00    -0.024 C 
ATOM     22  C   UNL     1      45.231  21.708  19.333  0.00  0.00    +0.013 C 
BRANCH  12  13
ATOM     13  C   UNL     1      47.560  21.012  19.906  0.00  0.00    +0.007 C 
BRANCH  13  14
ATOM     14  C   UNL     1      48.726  20.104  19.508  0.00  0.00    +0.014 C 
BRANCH  14  15
ATOM     15  C   UNL     1      50.046  20.759  19.918  0.00  0.00    +0.054 C 
BRANCH  15  16
ATOM     16  C   UNL     1      51.055  20.590  18.812  0.00  0.00    -0.112 C 
ATOM     17  C   UNL     1      52.348  19.861  19.076  0.00  0.00    +0.074 C 
ATOM     18  C   UNL     1      50.810  21.078  17.621  0.00  0.00    -0.052 C 
BRANCH  18  19
ATOM     19  C   UNL     1      51.820  20.909  16.514  0.00  0.00    +0.209 C 
BRANCH  19  20
ATOM     20  O   UNL     1      51.734  22.018  15.617  0.00  0.00    -0.571 OA
ATOM     21  H   UNL     1      52.494  22.104  15.026  0.00  0.00    +0.380 HD
ENDBRANCH  19  20
ENDBRANCH  18  19
ENDBRANCH  15  16
ENDBRANCH  14  15
ENDBRANCH  13  14
ENDBRANCH  12  13
ENDBRANCH  11  12
BRANCH  11  10
ATOM     10  C   UNL     1      45.527  18.920  20.179  0.00  0.00    +0.003 C 
BRANCH  10   9
ATOM      9  C   UNL     1      44.186  18.199  20.030  0.00  0.00    +0.005 C 
BRANCH   9   2
ATOM      1  C   UNL     1      42.874  17.672  22.091  0.00  0.00    +0.012 C 
ATOM      2  C   UNL     1      43.192  18.752  21.055  0.00  0.00    -0.024 C 
BRANCH   2   3
ATOM      3  C   UNL     1      41.905  19.172  20.342  0.00  0.00    +0.005 C 
BRANCH   3   4
ATOM      4  C   UNL     1      42.191  19.383  18.854  0.00  0.00    +0.003 C 
BRANCH   4   5
ATOM      5  C   UNL     1      40.955  19.978  18.176  0.00  0.00    +0.005 C 
BRANCH   5   6
ATOM      6  C   UNL     1      40.478  21.197  18.966  0.00  0.00    -0.031 C 
ATOM      7  C   UNL     1      39.050  21.551  18.545  0.00  0.00    +0.012 C 
ATOM      8  C   UNL     1      41.401  22.384  18.683  0.00  0.00    +0.012 C 
ENDBRANCH   5   6
ENDBRANCH   4   5
ENDBRANCH   3   4
ENDBRANCH   2   3
ENDBRANCH   9   2
ENDBRANCH  10   9
ENDBRANCH  11  10
TORSDOF 14
ENDMDL
MODEL 3
REMARK VINA RESULT:      -4.9      2.213      3.563
REMARK  Name = ZINC03861087
REMARK  19 active torsions:
REMARK  status: ('A' for Active; 'I' for Inactive)
REMARK    1  A    between atoms: C1_1  and  C2_2
REMARK    2  A    between atoms: C2_2  and  C3_4
REMARK    3  A    between atoms: C2_2  and  C15_18
REMARK    4  A    between atoms: C3_4  and  C4_5
REMARK    5  A    between atoms: C4_5  and  C5_6
REMARK    6  A    between atoms: C5_6  and  C6_7
REMARK    7  A    between atoms: C6_7  and  C7_9
REMARK    8  A    between atoms: C6_7  and  C8_10
REMARK    9  A    between atoms: C8_10  and  C9_11
REMARK   10  A    between atoms: C9_11  and  C10_12
REMARK   11  A    between atoms: C10_12  and  C11_13
REMARK   12  A    between atoms: C11_13  and  C14_17
REMARK   13  A    between atoms: C12_14  and  C13_15
REMARK   14  A    between atoms: C13_15  and  O1_16
REMARK   15  A    between atoms: C15_18  and  C16_19
REMARK   16  A    between atoms: C16_19  and  C17_20
REMARK   17  A    between atoms: C17_20  and  C18_21
REMARK   18  A    between atoms: C18_21  and  C19_22
REMARK   19  A    between atoms: C18_21  and  C20_23
REMARK                            x       y       z     vdW  Elec       q    Type
REMARK                         _______ _______ _______ _____ _____    ______ ____
ROOT
ATOM     11  C   UNL     1      49.055  20.832  18.888  0.00  0.00    +0.005 C 
ENDROOT
BRANCH  11  12
ATOM     12  C   UNL     1      48.569  19.746  19.850  0.00  0.00    -0.024 C 
ATOM     22  C   UNL     1      48.530  20.306  21.273  0.00  0.00    +0.013 C 
BRANCH  12  13
ATOM     13  C   UNL     1      47.165  19.294  19.442  0.00  0.00    +0.007 C 
BRANCH  13  14
ATOM     14  C   UNL     1      46.519  20.367  18.562  0.00  0.00    +0.014 C 
BRANCH  14  15
ATOM     15  C   UNL     1      45.023  20.447  18.871  0.00  0.00    +0.054 C 
BRANCH  15  16
ATOM     16  C   UNL     1      44.827  20.930  20.285  0.00  0.00    -0.112 C 
ATOM     17  C   UNL     1      44.110  20.060  21.286  0.00  0.00    +0.074 C 
ATOM     18  C   UNL     1      45.278  22.107  20.644  0.00  0.00    -0.052 C 
BRANCH  18  19
ATOM     19  C   UNL     1      45.082  22.589  22.059  0.00  0.00    +0.209 C 
BRANCH  19  20
ATOM     20  O   UNL     1      43.997  23.519  22.099  0.00  0.00    -0.571 OA
ATOM     21  H   UNL     1      43.225  23.199  22.584  0.00  0.00    +0.380 HD
ENDBRANCH  19  20
ENDBRANCH  18  19
ENDBRANCH  15  16
ENDBRANCH  14  15
ENDBRANCH  13  14
ENDBRANCH  12  13
ENDBRANCH  11  12
BRANCH  11  10
ATOM     10  C   UNL     1      50.584  20.867  18.889  0.00  0.00    +0.003 C 
BRANCH  10   9
ATOM      9  C   UNL     1      51.089  21.154  17.474  0.00  0.00    +0.005 C 
BRANCH   9   2
ATOM      1  C   UNL     1      51.980  19.509  15.817  0.00  0.00    +0.012 C 
ATOM      2  C   UNL     1      52.252  20.215  17.147  0.00  0.00    -0.024 C 
BRANCH   2   3
ATOM      3  C   UNL     1      52.394  19.172  18.258  0.00  0.00    +0.005 C 
BRANCH   3   4
ATOM      4  C   UNL     1      51.932  17.809  17.740  0.00  0.00    +0.003 C 
BRANCH   4   5
ATOM      5  C   UNL     1      51.052  17.135  18.795  0.00  0.00    +0.005 C 
BRANCH   5   6
ATOM      6  C   UNL     1      49.880  16.433  18.108  0.00  0.00    -0.031 C 
ATOM      7  C   UNL     1      49.238  17.384  17.096  0.00  0.00    +0.012 C 
ATOM      8  C   UNL     1      48.841  16.028  19.157  0.00  0.00    +0.012 C 
ENDBRANCH   5   6
ENDBRANCH   4   5
ENDBRANCH   3   4
ENDBRANCH   2   3
ENDBRANCH   9   2
ENDBRANCH  10   9
ENDBRANCH  11  10
TORSDOF 14
ENDMDL
MODEL 4
REMARK VINA RESULT:      -4.9      1.401      2.012
REMARK  Name = ZINC03861087
REMARK  19 active torsions:
REMARK  status: ('A' for Active; 'I' for Inactive)
REMARK    1  A    between atoms: C1_1  and  C2_2
REMARK    2  A    between atoms: C2_2  and  C3_4
REMARK    3  A    between atoms: C2_2  and  C15_18
REMARK    4  A    between atoms: C3_4  and  C4_5
REMARK    5  A    between atoms: C4_5  and  C5_6
REMARK    6  A    between atoms: C5_6  and  C6_7
REMARK    7  A    between atoms: C6_7  and  C7_9
REMARK    8  A    between atoms: C6_7  and  C8_10
REMARK    9  A    between atoms: C8_10  and  C9_11
REMARK   10  A    between atoms: C9_11  and  C10_12
REMARK   11  A    between atoms: C10_12  and  C11_13
REMARK   12  A    between atoms: C11_13  and  C14_17
REMARK   13  A    between atoms: C12_14  and  C13_15
REMARK   14  A    between atoms: C13_15  and  O1_16
REMARK   15  A    between atoms: C15_18  and  C16_19
REMARK   16  A    between atoms: C16_19  and  C17_20
REMARK   17  A    between atoms: C17_20  and  C18_21
REMARK   18  A    between atoms: C18_21  and  C19_22
REMARK   19  A    between atoms: C18_21  and  C20_23
REMARK                            x       y       z     vdW  Elec       q    Type
REMARK                         _______ _______ _______ _____ _____    ______ ____
ROOT
ATOM     11  C   UNL     1      46.244  20.251  18.593  0.00  0.00    +0.005 C 
ENDROOT
BRANCH  11  12
ATOM     12  C   UNL     1      45.704  18.828  18.443  0.00  0.00    -0.024 C 
ATOM     22  C   UNL     1      46.584  18.050  17.462  0.00  0.00    +0.013 C 
BRANCH  12  13
ATOM     13  C   UNL     1      45.719  18.131  19.804  0.00  0.00    +0.007 C 
BRANCH  13  14
ATOM     14  C   UNL     1      44.286  17.786  20.217  0.00  0.00    +0.014 C 
BRANCH  14  15
ATOM     15  C   UNL     1      43.684  18.956  20.995  0.00  0.00    +0.054 C 
BRANCH  15  16
ATOM     16  C   UNL     1      42.361  19.339  20.383  0.00  0.00    -0.112 C 
ATOM     17  C   UNL     1      41.074  18.937  21.057  0.00  0.00    +0.074 C 
ATOM     18  C   UNL     1      42.330  20.020  19.264  0.00  0.00    -0.052 C 
BRANCH  18  19
ATOM     19  C   UNL     1      41.006  20.403  18.653  0.00  0.00    +0.209 C 
BRANCH  19  20
ATOM     20  O   UNL     1      40.635  21.709  19.100  0.00  0.00    -0.571 OA
ATOM     21  H   UNL     1      40.390  21.748  20.035  0.00  0.00    +0.380 HD
ENDBRANCH  19  20
ENDBRANCH  18  19
ENDBRANCH  15  16
ENDBRANCH  14  15
ENDBRANCH  13  14
ENDBRANCH  12  13
ENDBRANCH  11  12
BRANCH  11  10
ATOM     10  C   UNL     1      47.389  20.258  19.609  0.00  0.00    +0.003 C 
BRANCH  10   9
ATOM      9  C   UNL     1      48.671  20.741  18.929  0.00  0.00    +0.005 C 
BRANCH   9   2
ATOM      1  C   UNL     1      49.359  18.830  20.386  0.00  0.00    +0.012 C 
ATOM      2  C   UNL     1      49.835  19.833  19.333  0.00  0.00    -0.024 C 
BRANCH   2   3
ATOM      3  C   UNL     1      50.968  20.682  19.912  0.00  0.00    +0.005 C 
BRANCH   3   4
ATOM      4  C   UNL     1      52.017  20.940  18.829  0.00  0.00    +0.003 C 
BRANCH   4   5
ATOM      5  C   UNL     1      52.302  19.639  18.075  0.00  0.00    +0.005 C 
BRANCH   5   6
ATOM      6  C   UNL     1      52.343  19.918  16.572  0.00  0.00    -0.031 C 
ATOM      7  C   UNL     1      51.535  21.181  16.266  0.00  0.00    +0.012 C 
ATOM      8  C   UNL     1      51.740  18.732  15.817  0.00  0.00    +0.012 C 
ENDBRANCH   5   6
ENDBRANCH   4   5
ENDBRANCH   3   4
ENDBRANCH   2   3
ENDBRANCH   9   2
ENDBRANCH  10   9
ENDBRANCH  11  10
TORSDOF 14
ENDMDL
MODEL 5
REMARK VINA RESULT:      -4.9      1.443      3.911
REMARK  Name = ZINC03861087
REMARK  19 active torsions:
REMARK  status: ('A' for Active; 'I' for Inactive)
REMARK    1  A    between atoms: C1_1  and  C2_2
REMARK    2  A    between atoms: C2_2  and  C3_4
REMARK    3  A    between atoms: C2_2  and  C15_18
REMARK    4  A    between atoms: C3_4  and  C4_5
REMARK    5  A    between atoms: C4_5  and  C5_6
REMARK    6  A    between atoms: C5_6  and  C6_7
REMARK    7  A    between atoms: C6_7  and  C7_9
REMARK    8  A    between atoms: C6_7  and  C8_10
REMARK    9  A    between atoms: C8_10  and  C9_11
REMARK   10  A    between atoms: C9_11  and  C10_12
REMARK   11  A    between atoms: C10_12  and  C11_13
REMARK   12  A    between atoms: C11_13  and  C14_17
REMARK   13  A    between atoms: C12_14  and  C13_15
REMARK   14  A    between atoms: C13_15  and  O1_16
REMARK   15  A    between atoms: C15_18  and  C16_19
REMARK   16  A    between atoms: C16_19  and  C17_20
REMARK   17  A    between atoms: C17_20  and  C18_21
REMARK   18  A    between atoms: C18_21  and  C19_22
REMARK   19  A    between atoms: C18_21  and  C20_23
REMARK                            x       y       z     vdW  Elec       q    Type
REMARK                         _______ _______ _______ _____ _____    ______ ____
ROOT
ATOM     11  C   UNL     1      51.482  21.133  19.843  0.00  0.00    +0.005 C 
ENDROOT
BRANCH  11  12
ATOM     12  C   UNL     1      50.191  20.334  20.025  0.00  0.00    -0.024 C 
ATOM     22  C   UNL     1      49.679  20.511  21.456  0.00  0.00    +0.013 C 
BRANCH  12  13
ATOM     13  C   UNL     1      49.135  20.841  19.041  0.00  0.00    +0.007 C 
BRANCH  13  14
ATOM     14  C   UNL     1      47.766  20.858  19.725  0.00  0.00    +0.014 C 
BRANCH  14  15
ATOM     15  C   UNL     1      46.675  20.569  18.693  0.00  0.00    +0.054 C 
BRANCH  15  16
ATOM     16  C   UNL     1      45.322  20.811  19.310  0.00  0.00    -0.112 C 
ATOM     17  C   UNL     1      45.196  21.693  20.526  0.00  0.00    +0.074 C 
ATOM     18  C   UNL     1      44.256  20.255  18.791  0.00  0.00    -0.052 C 
BRANCH  18  19
ATOM     19  C   UNL     1      42.902  20.498  19.408  0.00  0.00    +0.209 C 
BRANCH  19  20
ATOM     20  O   UNL     1      42.051  21.136  18.454  0.00  0.00    -0.571 OA
ATOM     21  H   UNL     1      42.293  20.961  17.534  0.00  0.00    +0.380 HD
ENDBRANCH  19  20
ENDBRANCH  18  19
ENDBRANCH  15  16
ENDBRANCH  14  15
ENDBRANCH  13  14
ENDBRANCH  12  13
ENDBRANCH  11  12
BRANCH  11  10
ATOM     10  C   UNL     1      51.860  21.162  18.361  0.00  0.00    +0.003 C 
BRANCH  10   9
ATOM      9  C   UNL     1      52.430  19.802  17.953  0.00  0.00    +0.005 C 
BRANCH   9   2
ATOM      1  C   UNL     1      51.566  20.834  15.848  0.00  0.00    +0.012 C 
ATOM      2  C   UNL     1      52.287  19.622  16.440  0.00  0.00    -0.024 C 
BRANCH   2   3
ATOM      3  C   UNL     1      51.479  18.355  16.151  0.00  0.00    +0.005 C 
BRANCH   3   4
ATOM      4  C   UNL     1      51.064  17.703  17.471  0.00  0.00    +0.003 C 
BRANCH   4   5
ATOM      5  C   UNL     1      49.812  16.852  17.249  0.00  0.00    +0.005 C 
BRANCH   5   6
ATOM      6  C   UNL     1      48.590  17.588  17.798  0.00  0.00    -0.031 C 
ATOM      7  C   UNL     1      48.336  17.150  19.242  0.00  0.00    +0.012 C 
ATOM      8  C   UNL     1      47.366  17.255  16.942  0.00  0.00    +0.012 C 
ENDBRANCH   5   6
ENDBRANCH   4   5
ENDBRANCH   3   4
ENDBRANCH   2   3
ENDBRANCH   9   2
ENDBRANCH  10   9
ENDBRANCH  11  10
TORSDOF 14
ENDMDL
MODEL 6
REMARK VINA RESULT:      -4.8      1.683      2.953
REMARK  Name = ZINC03861087
REMARK  19 active torsions:
REMARK  status: ('A' for Active; 'I' for Inactive)
REMARK    1  A    between atoms: C1_1  and  C2_2
REMARK    2  A    between atoms: C2_2  and  C3_4
REMARK    3  A    between atoms: C2_2  and  C15_18
REMARK    4  A    between atoms: C3_4  and  C4_5
REMARK    5  A    between atoms: C4_5  and  C5_6
REMARK    6  A    between atoms: C5_6  and  C6_7
REMARK    7  A    between atoms: C6_7  and  C7_9
REMARK    8  A    between atoms: C6_7  and  C8_10
REMARK    9  A    between atoms: C8_10  and  C9_11
REMARK   10  A    between atoms: C9_11  and  C10_12
REMARK   11  A    between atoms: C10_12  and  C11_13
REMARK   12  A    between atoms: C11_13  and  C14_17
REMARK   13  A    between atoms: C12_14  and  C13_15
REMARK   14  A    between atoms: C13_15  and  O1_16
REMARK   15  A    between atoms: C15_18  and  C16_19
REMARK   16  A    between atoms: C16_19  and  C17_20
REMARK   17  A    between atoms: C17_20  and  C18_21
REMARK   18  A    between atoms: C18_21  and  C19_22
REMARK   19  A    between atoms: C18_21  and  C20_23
REMARK                            x       y       z     vdW  Elec       q    Type
REMARK                         _______ _______ _______ _____ _____    ______ ____
ROOT
ATOM     11  C   UNL     1      45.429  16.881  19.448  0.00  0.00    +0.005 C 
ENDROOT
BRANCH  11  12
ATOM     12  C   UNL     1      44.426  17.083  20.585  0.00  0.00    -0.024 C 
ATOM     22  C   UNL     1      44.550  15.931  21.585  0.00  0.00    +0.013 C 
BRANCH  12  13
ATOM     13  C   UNL     1      44.719  18.406  21.294  0.00  0.00    +0.007 C 
BRANCH  13  14
ATOM     14  C   UNL     1      43.406  19.150  21.551  0.00  0.00    +0.014 C 
BRANCH  14  15
ATOM     15  C   UNL     1      42.425  18.860  20.414  0.00  0.00    +0.054 C 
BRANCH  15  16
ATOM     16  C   UNL     1      42.151  20.131  19.651  0.00  0.00    -0.112 C 
ATOM     17  C   UNL     1      43.274  21.096  19.366  0.00  0.00    +0.074 C 
ATOM     18  C   UNL     1      40.937  20.398  19.237  0.00  0.00    -0.052 C 
BRANCH  18  19
ATOM     19  C   UNL     1      40.664  21.669  18.474  0.00  0.00    +0.209 C 
BRANCH  19  20
ATOM     20  O   UNL     1      39.268  21.970  18.535  0.00  0.00    -0.571 OA
ATOM     21  H   UNL     1      38.905  21.968  19.432  0.00  0.00    +0.380 HD
ENDBRANCH  19  20
ENDBRANCH  18  19
ENDBRANCH  15  16
ENDBRANCH  14  15
ENDBRANCH  13  14
ENDBRANCH  12  13
ENDBRANCH  11  12
BRANCH  11  10
ATOM     10  C   UNL     1      45.881  18.243  18.919  0.00  0.00    +0.003 C 
BRANCH  10   9
ATOM      9  C   UNL     1      47.408  18.329  18.969  0.00  0.00    +0.005 C 
BRANCH   9   2
ATOM      1  C   UNL     1      47.223  20.821  19.000  0.00  0.00    +0.012 C 
ATOM      2  C   UNL     1      47.823  19.604  19.707  0.00  0.00    -0.024 C 
BRANCH   2   3
ATOM      3  C   UNL     1      49.350  19.716  19.710  0.00  0.00    +0.005 C 
BRANCH   3   4
ATOM      4  C   UNL     1      49.792  20.687  18.614  0.00  0.00    +0.003 C 
BRANCH   4   5
ATOM      5  C   UNL     1      51.247  21.095  18.851  0.00  0.00    +0.005 C 
BRANCH   5   6
ATOM      6  C   UNL     1      52.089  20.714  17.632  0.00  0.00    -0.031 C 
ATOM      7  C   UNL     1      51.417  21.243  16.363  0.00  0.00    +0.012 C 
ATOM      8  C   UNL     1      52.207  19.191  17.549  0.00  0.00    +0.012 C 
ENDBRANCH   5   6
ENDBRANCH   4   5
ENDBRANCH   3   4
ENDBRANCH   2   3
ENDBRANCH   9   2
ENDBRANCH  10   9
ENDBRANCH  11  10
TORSDOF 14
ENDMDL
MODEL 7
REMARK VINA RESULT:      -4.8      1.855      4.362
REMARK  Name = ZINC03861087
REMARK  19 active torsions:
REMARK  status: ('A' for Active; 'I' for Inactive)
REMARK    1  A    between atoms: C1_1  and  C2_2
REMARK    2  A    between atoms: C2_2  and  C3_4
REMARK    3  A    between atoms: C2_2  and  C15_18
REMARK    4  A    between atoms: C3_4  and  C4_5
REMARK    5  A    between atoms: C4_5  and  C5_6
REMARK    6  A    between atoms: C5_6  and  C6_7
REMARK    7  A    between atoms: C6_7  and  C7_9
REMARK    8  A    between atoms: C6_7  and  C8_10
REMARK    9  A    between atoms: C8_10  and  C9_11
REMARK   10  A    between atoms: C9_11  and  C10_12
REMARK   11  A    between atoms: C10_12  and  C11_13
REMARK   12  A    between atoms: C11_13  and  C14_17
REMARK   13  A    between atoms: C12_14  and  C13_15
REMARK   14  A    between atoms: C13_15  and  O1_16
REMARK   15  A    between atoms: C15_18  and  C16_19
REMARK   16  A    between atoms: C16_19  and  C17_20
REMARK   17  A    between atoms: C17_20  and  C18_21
REMARK   18  A    between atoms: C18_21  and  C19_22
REMARK   19  A    between atoms: C18_21  and  C20_23
REMARK                            x       y       z     vdW  Elec       q    Type
REMARK                         _______ _______ _______ _____ _____    ______ ____
ROOT
ATOM     11  C   UNL     1      49.528  17.749  16.853  0.00  0.00    +0.005 C 
ENDROOT
BRANCH  11  12
ATOM     12  C   UNL     1      49.041  16.651  17.800  0.00  0.00    -0.024 C 
ATOM     22  C   UNL     1      49.498  16.968  19.225  0.00  0.00    +0.013 C 
BRANCH  12  13
ATOM     13  C   UNL     1      47.513  16.583  17.758  0.00  0.00    +0.007 C 
BRANCH  13  14
ATOM     14  C   UNL     1      46.932  17.508  18.830  0.00  0.00    +0.014 C 
BRANCH  14  15
ATOM     15  C   UNL     1      46.145  18.635  18.159  0.00  0.00    +0.054 C 
BRANCH  15  16
ATOM     16  C   UNL     1      45.085  19.139  19.104  0.00  0.00    -0.112 C 
ATOM     17  C   UNL     1      45.023  18.614  20.516  0.00  0.00    +0.074 C 
ATOM     18  C   UNL     1      44.216  20.032  18.699  0.00  0.00    -0.052 C 
BRANCH  18  19
ATOM     19  C   UNL     1      43.156  20.536  19.645  0.00  0.00    +0.209 C 
BRANCH  19  20
ATOM     20  O   UNL     1      43.514  21.838  20.111  0.00  0.00    -0.571 OA
ATOM     21  H   UNL     1      43.076  22.559  19.638  0.00  0.00    +0.380 HD
ENDBRANCH  19  20
ENDBRANCH  18  19
ENDBRANCH  15  16
ENDBRANCH  14  15
ENDBRANCH  13  14
ENDBRANCH  12  13
ENDBRANCH  11  12
BRANCH  11  10
ATOM     10  C   UNL     1      51.058  17.761  16.830  0.00  0.00    +0.003 C 
BRANCH  10   9
ATOM      9  C   UNL     1      51.548  18.995  16.071  0.00  0.00    +0.005 C 
BRANCH   9   2
ATOM      1  C   UNL     1      52.536  19.266  18.350  0.00  0.00    +0.012 C 
ATOM      2  C   UNL     1      52.157  19.993  17.058  0.00  0.00    -0.024 C 
BRANCH   2   3
ATOM      3  C   UNL     1      51.135  21.090  17.370  0.00  0.00    +0.005 C 
BRANCH   3   4
ATOM      4  C   UNL     1      50.661  20.947  18.817  0.00  0.00    +0.003 C 
BRANCH   4   5
ATOM      5  C   UNL     1      49.137  20.812  18.844  0.00  0.00    +0.005 C 
BRANCH   5   6
ATOM      6  C   UNL     1      48.687  20.385  20.241  0.00  0.00    -0.031 C 
ATOM      7  C   UNL     1      47.654  21.382  20.772  0.00  0.00    +0.012 C 
ATOM      8  C   UNL     1      49.895  20.355  21.180  0.00  0.00    +0.012 C 
ENDBRANCH   5   6
ENDBRANCH   4   5
ENDBRANCH   3   4
ENDBRANCH   2   3
ENDBRANCH   9   2
ENDBRANCH  10   9
ENDBRANCH  11  10
TORSDOF 14
ENDMDL
MODEL 8
REMARK VINA RESULT:      -4.8      1.314      2.515
REMARK  Name = ZINC03861087
REMARK  19 active torsions:
REMARK  status: ('A' for Active; 'I' for Inactive)
REMARK    1  A    between atoms: C1_1  and  C2_2
REMARK    2  A    between atoms: C2_2  and  C3_4
REMARK    3  A    between atoms: C2_2  and  C15_18
REMARK    4  A    between atoms: C3_4  and  C4_5
REMARK    5  A    between atoms: C4_5  and  C5_6
REMARK    6  A    between atoms: C5_6  and  C6_7
REMARK    7  A    between atoms: C6_7  and  C7_9
REMARK    8  A    between atoms: C6_7  and  C8_10
REMARK    9  A    between atoms: C8_10  and  C9_11
REMARK   10  A    between atoms: C9_11  and  C10_12
REMARK   11  A    between atoms: C10_12  and  C11_13
REMARK   12  A    between atoms: C11_13  and  C14_17
REMARK   13  A    between atoms: C12_14  and  C13_15
REMARK   14  A    between atoms: C13_15  and  O1_16
REMARK   15  A    between atoms: C15_18  and  C16_19
REMARK   16  A    between atoms: C16_19  and  C17_20
REMARK   17  A    between atoms: C17_20  and  C18_21
REMARK   18  A    between atoms: C18_21  and  C19_22
REMARK   19  A    between atoms: C18_21  and  C20_23
REMARK                            x       y       z     vdW  Elec       q    Type
REMARK                         _______ _______ _______ _____ _____    ______ ____
ROOT
ATOM     11  C   UNL     1      47.308  19.070  18.541  0.00  0.00    +0.005 C 
ENDROOT
BRANCH  11  12
ATOM     12  C   UNL     1      46.651  20.015  19.549  0.00  0.00    -0.024 C 
ATOM     22  C   UNL     1      47.724  20.609  20.464  0.00  0.00    +0.013 C 
BRANCH  12  13
ATOM     13  C   UNL     1      45.939  21.143  18.800  0.00  0.00    +0.007 C 
BRANCH  13  14
ATOM     14  C   UNL     1      44.493  21.248  19.289  0.00  0.00    +0.014 C 
BRANCH  14  15
ATOM     15  C   UNL     1      43.738  19.968  18.927  0.00  0.00    +0.054 C 
BRANCH  15  16
ATOM     16  C   UNL     1      42.279  20.133  19.264  0.00  0.00    -0.112 C 
ATOM     17  C   UNL     1      41.630  19.219  20.272  0.00  0.00    +0.074 C 
ATOM     18  C   UNL     1      41.573  21.070  18.681  0.00  0.00    -0.052 C 
BRANCH  18  19
ATOM     19  C   UNL     1      40.113  21.235  19.019  0.00  0.00    +0.209 C 
BRANCH  19  20
ATOM     20  O   UNL     1      39.425  21.791  17.897  0.00  0.00    -0.571 OA
ATOM     21  H   UNL     1      38.464  21.825  18.004  0.00  0.00    +0.380 HD
ENDBRANCH  19  20
ENDBRANCH  18  19
ENDBRANCH  15  16
ENDBRANCH  14  15
ENDBRANCH  13  14
ENDBRANCH  12  13
ENDBRANCH  11  12
BRANCH  11  10
ATOM     10  C   UNL     1      48.334  18.191  19.260  0.00  0.00    +0.003 C 
BRANCH  10   9
ATOM      9  C   UNL     1      48.587  16.926  18.438  0.00  0.00    +0.005 C 
BRANCH   9   2
ATOM      1  C   UNL     1      50.910  17.306  19.278  0.00  0.00    +0.012 C 
ATOM      2  C   UNL     1      50.073  16.835  18.086  0.00  0.00    -0.024 C 
BRANCH   2   3
ATOM      3  C   UNL     1      50.366  17.723  16.874  0.00  0.00    +0.005 C 
BRANCH   3   4
ATOM      4  C   UNL     1      51.689  18.460  17.089  0.00  0.00    +0.003 C 
BRANCH   4   5
ATOM      5  C   UNL     1      51.626  19.830  16.413  0.00  0.00    +0.005 C 
BRANCH   5   6
ATOM      6  C   UNL     1      51.742  20.928  17.471  0.00  0.00    -0.031 C 
ATOM      7  C   UNL     1      52.728  20.489  18.555  0.00  0.00    +0.012 C 
ATOM      8  C   UNL     1      50.370  21.177  18.101  0.00  0.00    +0.012 C 
ENDBRANCH   5   6
ENDBRANCH   4   5
ENDBRANCH   3   4
ENDBRANCH   2   3
ENDBRANCH   9   2
ENDBRANCH  10   9
ENDBRANCH  11  10
TORSDOF 14
ENDMDL
MODEL 9
REMARK VINA RESULT:      -4.7      1.932      3.478
REMARK  Name = ZINC03861087
REMARK  19 active torsions:
REMARK  status: ('A' for Active; 'I' for Inactive)
REMARK    1  A    between atoms: C1_1  and  C2_2
REMARK    2  A    between atoms: C2_2  and  C3_4
REMARK    3  A    between atoms: C2_2  and  C15_18
REMARK    4  A    between atoms: C3_4  and  C4_5
REMARK    5  A    between atoms: C4_5  and  C5_6
REMARK    6  A    between atoms: C5_6  and  C6_7
REMARK    7  A    between atoms: C6_7  and  C7_9
REMARK    8  A    between atoms: C6_7  and  C8_10
REMARK    9  A    between atoms: C8_10  and  C9_11
REMARK   10  A    between atoms: C9_11  and  C10_12
REMARK   11  A    between atoms: C10_12  and  C11_13
REMARK   12  A    between atoms: C11_13  and  C14_17
REMARK   13  A    between atoms: C12_14  and  C13_15
REMARK   14  A    between atoms: C13_15  and  O1_16
REMARK   15  A    between atoms: C15_18  and  C16_19
REMARK   16  A    between atoms: C16_19  and  C17_20
REMARK   17  A    between atoms: C17_20  and  C18_21
REMARK   18  A    between atoms: C18_21  and  C19_22
REMARK   19  A    between atoms: C18_21  and  C20_23
REMARK                            x       y       z     vdW  Elec       q    Type
REMARK                         _______ _______ _______ _____ _____    ______ ____
ROOT
ATOM     11  C   UNL     1      48.699  16.657  19.197  0.00  0.00    +0.005 C 
ENDROOT
BRANCH  11  12
ATOM     12  C   UNL     1      48.362  17.568  18.015  0.00  0.00    -0.024 C 
ATOM     22  C   UNL     1      49.470  17.470  16.965  0.00  0.00    +0.013 C 
BRANCH  12  13
ATOM     13  C   UNL     1      47.034  17.128  17.396  0.00  0.00    +0.007 C 
BRANCH  13  14
ATOM     14  C   UNL     1      45.875  17.755  18.174  0.00  0.00    +0.014 C 
BRANCH  14  15
ATOM     15  C   UNL     1      46.006  19.279  18.145  0.00  0.00    +0.054 C 
BRANCH  15  16
ATOM     16  C   UNL     1      44.982  19.889  19.067  0.00  0.00    -0.112 C 
ATOM     17  C   UNL     1      45.397  20.395  20.425  0.00  0.00    +0.074 C 
ATOM     18  C   UNL     1      43.730  19.978  18.689  0.00  0.00    -0.052 C 
BRANCH  18  19
ATOM     19  C   UNL     1      42.707  20.589  19.612  0.00  0.00    +0.209 C 
BRANCH  19  20
ATOM     20  O   UNL     1      42.411  21.919  19.182  0.00  0.00    -0.571 OA
ATOM     21  H   UNL     1      43.083  22.302  18.600  0.00  0.00    +0.380 HD
ENDBRANCH  19  20
ENDBRANCH  18  19
ENDBRANCH  15  16
ENDBRANCH  14  15
ENDBRANCH  13  14
ENDBRANCH  12  13
ENDBRANCH  11  12
BRANCH  11  10
ATOM     10  C   UNL     1      49.508  17.442  20.232  0.00  0.00    +0.003 C 
BRANCH  10   9
ATOM      9  C   UNL     1      48.689  18.639  20.718  0.00  0.00    +0.005 C 
BRANCH   9   2
ATOM      1  C   UNL     1      49.539  20.563  22.067  0.00  0.00    +0.012 C 
ATOM      2  C   UNL     1      49.559  19.898  20.689  0.00  0.00    -0.024 C 
BRANCH   2   3
ATOM      3  C   UNL     1      49.012  20.872  19.644  0.00  0.00    +0.005 C 
BRANCH   3   4
ATOM      4  C   UNL     1      49.940  20.888  18.428  0.00  0.00    +0.003 C 
BRANCH   4   5
ATOM      5  C   UNL     1      51.368  21.199  18.880  0.00  0.00    +0.005 C 
BRANCH   5   6
ATOM      6  C   UNL     1      52.359  20.445  17.993  0.00  0.00    -0.031 C 
ATOM      7  C   UNL     1      51.855  20.448  16.548  0.00  0.00    +0.012 C 
ATOM      8  C   UNL     1      52.490  19.002  18.484  0.00  0.00    +0.012 C 
ENDBRANCH   5   6
ENDBRANCH   4   5
ENDBRANCH   3   4
ENDBRANCH   2   3
ENDBRANCH   9   2
ENDBRANCH  10   9
ENDBRANCH  11  10
TORSDOF 14
ENDMDL
