MODEL 1
REMARK VINA RESULT:      -6.9      0.000      0.000
REMARK  Name = ZINC39560214
REMARK  11 active torsions:
REMARK  status: ('A' for Active; 'I' for Inactive)
REMARK    1  A    between atoms: C1_1  and  C2_2
REMARK    2  A    between atoms: C2_2  and  C30_40
REMARK    3  A    between atoms: C3_3  and  C4_4
REMARK    4  A    between atoms: C4_4  and  C5_5
REMARK    5  A    between atoms: C5_5  and  C6_6
REMARK    6  A    between atoms: C10_13  and  C28_36
REMARK    7  A    between atoms: C11_14  and  C27_35
REMARK    8  A    between atoms: C12_15  and  O2_34
REMARK    9  A    between atoms: C19_25  and  C26_33
REMARK   10  A    between atoms: C23_30  and  C24_31
REMARK   11  A    between atoms: C23_30  and  C25_32
REMARK                            x       y       z     vdW  Elec       q    Type
REMARK                         _______ _______ _______ _____ _____    ______ ____
ROOT
ATOM      7  C   UNL     1      44.262  20.063  20.541  0.00  0.00    -0.011 C 
ATOM      8  C   UNL     1      45.354  19.024  20.733  0.00  0.00    +0.007 C 
ATOM      9  C   UNL     1      46.549  19.993  20.364  0.00  0.00    +0.108 C 
ATOM     10  O   UNL     1      46.298  21.055  21.228  0.00  0.00    -0.329 OA
ATOM     11  C   UNL     1      47.738  19.118  20.165  0.00  0.00    +0.085 C 
ATOM     12  C   UNL     1      47.167  17.684  20.072  0.00  0.00    -0.011 C 
ATOM     13  C   UNL     1      47.401  17.007  21.432  0.00  0.00    +0.049 C 
ATOM     14  C   UNL     1      47.703  16.821  18.975  0.00  0.00    -0.093 C 
ATOM     15  C   UNL     1      48.889  17.017  18.475  0.00  0.00    -0.039 C 
ATOM     16  C   UNL     1      49.351  16.083  17.370  0.00  0.00    +0.059 C 
ATOM     17  C   UNL     1      49.030  14.670  17.884  0.00  0.00    +0.031 C 
ATOM     18  C   UNL     1      47.513  14.511  17.888  0.00  0.00    -0.038 C 
ATOM     19  C   UNL     1      47.107  13.279  18.696  0.00  0.00    +0.031 C 
ATOM     20  C   UNL     1      46.981  14.359  16.455  0.00  0.00    +0.036 C 
ATOM     21  C   UNL     1      47.607  13.155  15.756  0.00  0.00    +0.021 C 
ATOM     22  C   UNL     1      49.109  13.325  15.784  0.00  0.00    +0.369 C 
ATOM     23  O   UNL     1      49.764  13.229  14.768  0.00  0.00    -0.451 OA
ATOM     24  C   UNL     1      49.782  13.609  17.107  0.00  0.00    -0.097 C 
ATOM     25  C   UNL     1      51.223  14.064  16.815  0.00  0.00    +0.047 C 
ATOM     26  C   UNL     1      49.901  12.306  17.909  0.00  0.00    +0.055 C 
ATOM     27  C   UNL     1      46.804  15.716  18.488  0.00  0.00    +0.036 C 
ATOM     28  C   UNL     1      45.741  15.383  19.521  0.00  0.00    +0.013 C 
ATOM     29  C   UNL     1      44.891  16.606  19.905  0.00  0.00    +0.180 C 
ATOM     32  C   UNL     1      45.649  17.896  19.789  0.00  0.00    -0.024 C 
ATOM     33  C   UNL     1      45.469  18.405  18.353  0.00  0.00    +0.034 C 
ATOM     34  C   UNL     1      44.972  21.351  20.993  0.00  0.00    +0.482 C 
ATOM     35  O   UNL     1      44.456  22.433  21.118  0.00  0.00    -0.426 OA
ENDROOT
BRANCH  29  30
ATOM     30  O   UNL     1      44.397  16.448  21.241  0.00  0.00    -0.560 OA
ATOM     31  H   UNL     1      44.011  15.579  21.418  0.00  0.00    +0.376 HD
ENDBRANCH  29  30
BRANCH   7   6
ATOM      6  C   UNL     1      43.067  19.770  21.451  0.00  0.00    +0.061 C 
BRANCH   6   5
ATOM      5  C   UNL     1      42.005  18.997  20.665  0.00  0.00    +0.047 C 
BRANCH   5   4
ATOM      1  C   UNL     1      41.704  19.979  18.038  0.00  0.00    +0.073 C 
ATOM      2  C   UNL     1      40.759  20.424  19.124  0.00  0.00    -0.130 C 
ATOM      3  C   UNL     1      39.697  21.451  18.826  0.00  0.00    +0.072 C 
ATOM      4  C   UNL     1      40.860  19.918  20.329  0.00  0.00    -0.062 C 
ENDBRANCH   5   4
ENDBRANCH   6   5
ENDBRANCH   7   6
TORSDOF 4
ENDMDL
MODEL 2
REMARK VINA RESULT:      -6.7      3.403      5.308
REMARK  Name = ZINC39560214
REMARK  11 active torsions:
REMARK  status: ('A' for Active; 'I' for Inactive)
REMARK    1  A    between atoms: C1_1  and  C2_2
REMARK    2  A    between atoms: C2_2  and  C30_40
REMARK    3  A    between atoms: C3_3  and  C4_4
REMARK    4  A    between atoms: C4_4  and  C5_5
REMARK    5  A    between atoms: C5_5  and  C6_6
REMARK    6  A    between atoms: C10_13  and  C28_36
REMARK    7  A    between atoms: C11_14  and  C27_35
REMARK    8  A    between atoms: C12_15  and  O2_34
REMARK    9  A    between atoms: C19_25  and  C26_33
REMARK   10  A    between atoms: C23_30  and  C24_31
REMARK   11  A    between atoms: C23_30  and  C25_32
REMARK                            x       y       z     vdW  Elec       q    Type
REMARK                         _______ _______ _______ _____ _____    ______ ____
ROOT
ATOM      7  C   UNL     1      50.661  19.949  17.864  0.00  0.00    -0.011 C 
ATOM      8  C   UNL     1      50.964  18.465  18.005  0.00  0.00    +0.007 C 
ATOM      9  C   UNL     1      51.431  18.265  16.506  0.00  0.00    +0.108 C 
ATOM     10  O   UNL     1      52.390  19.268  16.398  0.00  0.00    -0.329 OA
ATOM     11  C   UNL     1      51.487  16.793  16.289  0.00  0.00    +0.085 C 
ATOM     12  C   UNL     1      50.739  16.183  17.497  0.00  0.00    -0.011 C 
ATOM     13  C   UNL     1      51.801  15.670  18.484  0.00  0.00    +0.049 C 
ATOM     14  C   UNL     1      49.757  15.096  17.197  0.00  0.00    -0.093 C 
ATOM     15  C   UNL     1      49.876  14.348  16.137  0.00  0.00    -0.039 C 
ATOM     16  C   UNL     1      48.835  13.264  15.921  0.00  0.00    +0.059 C 
ATOM     17  C   UNL     1      48.718  12.548  17.278  0.00  0.00    +0.031 C 
ATOM     18  C   UNL     1      48.048  13.510  18.253  0.00  0.00    -0.038 C 
ATOM     19  C   UNL     1      48.205  13.008  19.689  0.00  0.00    +0.031 C 
ATOM     20  C   UNL     1      46.551  13.645  17.938  0.00  0.00    +0.036 C 
ATOM     21  C   UNL     1      45.846  12.293  18.006  0.00  0.00    +0.021 C 
ATOM     22  C   UNL     1      46.540  11.353  17.047  0.00  0.00    +0.369 C 
ATOM     23  O   UNL     1      45.907  10.728  16.223  0.00  0.00    -0.451 OA
ATOM     24  C   UNL     1      48.041  11.200  17.140  0.00  0.00    -0.097 C 
ATOM     25  C   UNL     1      48.521  10.473  15.872  0.00  0.00    +0.047 C 
ATOM     26  C   UNL     1      48.387  10.278  18.318  0.00  0.00    +0.055 C 
ATOM     27  C   UNL     1      48.635  14.912  18.183  0.00  0.00    +0.036 C 
ATOM     28  C   UNL     1      48.984  15.526  19.528  0.00  0.00    +0.013 C 
ATOM     29  C   UNL     1      49.333  17.020  19.418  0.00  0.00    +0.180 C 
ATOM     32  C   UNL     1      49.934  17.378  18.091  0.00  0.00    -0.024 C 
ATOM     33  C   UNL     1      48.778  17.728  17.144  0.00  0.00    +0.034 C 
ATOM     34  C   UNL     1      51.731  20.391  16.850  0.00  0.00    +0.482 C 
ATOM     35  O   UNL     1      51.951  21.526  16.509  0.00  0.00    -0.426 OA
ENDROOT
BRANCH  29  30
ATOM     30  O   UNL     1      50.230  17.384  20.475  0.00  0.00    -0.560 OA
ATOM     31  H   UNL     1      50.433  18.328  20.511  0.00  0.00    +0.376 HD
ENDBRANCH  29  30
BRANCH   7   6
ATOM      6  C   UNL     1      50.863  20.673  19.197  0.00  0.00    +0.061 C 
BRANCH   6   5
ATOM      5  C   UNL     1      49.561  20.632  20.001  0.00  0.00    +0.047 C 
BRANCH   5   4
ATOM      1  C   UNL     1      47.030  19.629  20.737  0.00  0.00    +0.073 C 
ATOM      2  C   UNL     1      47.229  20.254  19.381  0.00  0.00    -0.130 C 
ATOM      3  C   UNL     1      46.095  20.280  18.388  0.00  0.00    +0.072 C 
ATOM      4  C   UNL     1      48.388  20.778  19.064  0.00  0.00    -0.062 C 
ENDBRANCH   5   4
ENDBRANCH   6   5
ENDBRANCH   7   6
TORSDOF 4
ENDMDL
MODEL 3
REMARK VINA RESULT:      -6.6      2.186      7.888
REMARK  Name = ZINC39560214
REMARK  11 active torsions:
REMARK  status: ('A' for Active; 'I' for Inactive)
REMARK    1  A    between atoms: C1_1  and  C2_2
REMARK    2  A    between atoms: C2_2  and  C30_40
REMARK    3  A    between atoms: C3_3  and  C4_4
REMARK    4  A    between atoms: C4_4  and  C5_5
REMARK    5  A    between atoms: C5_5  and  C6_6
REMARK    6  A    between atoms: C10_13  and  C28_36
REMARK    7  A    between atoms: C11_14  and  C27_35
REMARK    8  A    between atoms: C12_15  and  O2_34
REMARK    9  A    between atoms: C19_25  and  C26_33
REMARK   10  A    between atoms: C23_30  and  C24_31
REMARK   11  A    between atoms: C23_30  and  C25_32
REMARK                            x       y       z     vdW  Elec       q    Type
REMARK                         _______ _______ _______ _____ _____    ______ ____
ROOT
ATOM      7  C   UNL     1      49.796  13.557  17.987  0.00  0.00    -0.011 C 
ATOM      8  C   UNL     1      49.518  15.028  17.724  0.00  0.00    +0.007 C 
ATOM      9  C   UNL     1      50.728  15.565  18.592  0.00  0.00    +0.108 C 
ATOM     10  O   UNL     1      51.782  14.842  18.042  0.00  0.00    -0.329 OA
ATOM     11  C   UNL     1      50.491  17.026  18.762  0.00  0.00    +0.085 C 
ATOM     12  C   UNL     1      49.027  17.247  18.317  0.00  0.00    -0.011 C 
ATOM     13  C   UNL     1      49.061  17.829  16.895  0.00  0.00    +0.049 C 
ATOM     14  C   UNL     1      48.184  18.111  19.200  0.00  0.00    -0.093 C 
ATOM     15  C   UNL     1      48.713  19.023  19.963  0.00  0.00    -0.039 C 
ATOM     16  C   UNL     1      47.775  19.858  20.818  0.00  0.00    +0.059 C 
ATOM     17  C   UNL     1      46.656  20.303  19.862  0.00  0.00    +0.031 C 
ATOM     18  C   UNL     1      45.830  19.071  19.508  0.00  0.00    -0.038 C 
ATOM     19  C   UNL     1      44.924  19.361  18.312  0.00  0.00    +0.031 C 
ATOM     20  C   UNL     1      44.958  18.644  20.697  0.00  0.00    +0.036 C 
ATOM     21  C   UNL     1      44.018  19.767  21.126  0.00  0.00    +0.021 C 
ATOM     22  C   UNL     1      44.857  20.982  21.452  0.00  0.00    +0.369 C 
ATOM     23  O   UNL     1      44.721  21.566  22.505  0.00  0.00    -0.451 OA
ATOM     24  C   UNL     1      45.864  21.462  20.432  0.00  0.00    -0.097 C 
ATOM     25  C   UNL     1      46.794  22.472  21.126  0.00  0.00    +0.047 C 
ATOM     26  C   UNL     1      45.138  22.241  19.326  0.00  0.00    +0.055 C 
ATOM     27  C   UNL     1      46.698  17.872  19.154  0.00  0.00    +0.036 C 
ATOM     28  C   UNL     1      46.301  17.150  17.878  0.00  0.00    +0.013 C 
ATOM     29  C   UNL     1      47.043  15.814  17.703  0.00  0.00    +0.180 C 
ATOM     32  C   UNL     1      48.402  15.819  18.339  0.00  0.00    -0.024 C 
ATOM     33  C   UNL     1      48.229  15.366  19.794  0.00  0.00    +0.034 C 
ATOM     34  C   UNL     1      51.331  13.540  18.081  0.00  0.00    +0.482 C 
ATOM     35  O   UNL     1      52.020  12.556  18.176  0.00  0.00    -0.426 OA
ENDROOT
BRANCH  29  30
ATOM     30  O   UNL     1      47.157  15.506  16.308  0.00  0.00    -0.560 OA
ATOM     31  H   UNL     1      48.026  15.700  15.932  0.00  0.00    +0.376 HD
ENDBRANCH  29  30
BRANCH   7   6
ATOM      6  C   UNL     1      49.328  12.698  16.810  0.00  0.00    +0.061 C 
BRANCH   6   5
ATOM      5  C   UNL     1      48.455  11.553  17.331  0.00  0.00    +0.047 C 
BRANCH   5   4
ATOM      1  C   UNL     1      45.785  11.767  16.448  0.00  0.00    +0.073 C 
ATOM      2  C   UNL     1      46.170  12.265  17.816  0.00  0.00    -0.130 C 
ATOM      3  C   UNL     1      45.145  12.946  18.688  0.00  0.00    +0.072 C 
ATOM      4  C   UNL     1      47.396  12.107  18.250  0.00  0.00    -0.062 C 
ENDBRANCH   5   4
ENDBRANCH   6   5
ENDBRANCH   7   6
TORSDOF 4
ENDMDL
MODEL 4
REMARK VINA RESULT:      -6.5      4.138      7.717
REMARK  Name = ZINC39560214
REMARK  11 active torsions:
REMARK  status: ('A' for Active; 'I' for Inactive)
REMARK    1  A    between atoms: C1_1  and  C2_2
REMARK    2  A    between atoms: C2_2  and  C30_40
REMARK    3  A    between atoms: C3_3  and  C4_4
REMARK    4  A    between atoms: C4_4  and  C5_5
REMARK    5  A    between atoms: C5_5  and  C6_6
REMARK    6  A    between atoms: C10_13  and  C28_36
REMARK    7  A    between atoms: C11_14  and  C27_35
REMARK    8  A    between atoms: C12_15  and  O2_34
REMARK    9  A    between atoms: C19_25  and  C26_33
REMARK   10  A    between atoms: C23_30  and  C24_31
REMARK   11  A    between atoms: C23_30  and  C25_32
REMARK                            x       y       z     vdW  Elec       q    Type
REMARK                         _______ _______ _______ _____ _____    ______ ____
ROOT
ATOM      7  C   UNL     1      46.200  12.453  16.955  0.00  0.00    -0.011 C 
ATOM      8  C   UNL     1      47.032  13.304  17.901  0.00  0.00    +0.007 C 
ATOM      9  C   UNL     1      45.837  14.237  18.355  0.00  0.00    +0.108 C 
ATOM     10  O   UNL     1      44.902  13.285  18.752  0.00  0.00    -0.329 OA
ATOM     11  C   UNL     1      46.463  15.388  19.062  0.00  0.00    +0.085 C 
ATOM     12  C   UNL     1      47.967  15.299  18.716  0.00  0.00    -0.011 C 
ATOM     13  C   UNL     1      48.684  14.684  19.928  0.00  0.00    +0.049 C 
ATOM     14  C   UNL     1      48.639  16.576  18.322  0.00  0.00    -0.093 C 
ATOM     15  C   UNL     1      48.194  17.730  18.728  0.00  0.00    -0.039 C 
ATOM     16  C   UNL     1      48.947  18.971  18.283  0.00  0.00    +0.059 C 
ATOM     17  C   UNL     1      50.428  18.655  18.550  0.00  0.00    +0.031 C 
ATOM     18  C   UNL     1      50.862  17.586  17.553  0.00  0.00    -0.038 C 
ATOM     19  C   UNL     1      52.202  16.978  17.971  0.00  0.00    +0.031 C 
ATOM     20  C   UNL     1      51.008  18.185  16.147  0.00  0.00    +0.036 C 
ATOM     21  C   UNL     1      52.025  19.323  16.132  0.00  0.00    +0.021 C 
ATOM     22  C   UNL     1      51.585  20.358  17.142  0.00  0.00    +0.369 C 
ATOM     23  O   UNL     1      51.489  21.527  16.832  0.00  0.00    -0.451 OA
ATOM     24  C   UNL     1      51.276  19.910  18.552  0.00  0.00    -0.097 C 
ATOM     25  C   UNL     1      50.546  21.063  19.264  0.00  0.00    +0.047 C 
ATOM     26  C   UNL     1      52.588  19.699  19.320  0.00  0.00    +0.055 C 
ATOM     27  C   UNL     1      49.853  16.453  17.440  0.00  0.00    +0.036 C 
ATOM     28  C   UNL     1      50.447  15.057  17.520  0.00  0.00    +0.013 C 
ATOM     29  C   UNL     1      49.430  13.964  17.151  0.00  0.00    +0.180 C 
ATOM     32  C   UNL     1      48.018  14.352  17.478  0.00  0.00    -0.024 C 
ATOM     33  C   UNL     1      47.451  15.088  16.257  0.00  0.00    +0.034 C 
ATOM     34  C   UNL     1      44.838  12.430  17.672  0.00  0.00    +0.482 C 
ATOM     35  O   UNL     1      43.880  11.777  17.343  0.00  0.00    -0.426 OA
ENDROOT
BRANCH  29  30
ATOM     30  O   UNL     1      49.769  12.745  17.824  0.00  0.00    -0.560 OA
ATOM     31  H   UNL     1      49.119  12.464  18.482  0.00  0.00    +0.376 HD
ENDBRANCH  29  30
BRANCH   7   6
ATOM      6  C   UNL     1      46.770  11.037  16.855  0.00  0.00    +0.061 C 
BRANCH   6   5
ATOM      5  C   UNL     1      46.917  10.650  15.381  0.00  0.00    +0.047 C 
BRANCH   5   4
ATOM      1  C   UNL     1      49.643  10.470  14.682  0.00  0.00    +0.073 C 
ATOM      2  C   UNL     1      48.863  11.718  14.363  0.00  0.00    -0.130 C 
ATOM      3  C   UNL     1      49.555  12.901  13.736  0.00  0.00    +0.072 C 
ATOM      4  C   UNL     1      47.581  11.776  14.631  0.00  0.00    -0.062 C 
ENDBRANCH   5   4
ENDBRANCH   6   5
ENDBRANCH   7   6
TORSDOF 4
ENDMDL
MODEL 5
REMARK VINA RESULT:      -6.4      2.276      8.916
REMARK  Name = ZINC39560214
REMARK  11 active torsions:
REMARK  status: ('A' for Active; 'I' for Inactive)
REMARK    1  A    between atoms: C1_1  and  C2_2
REMARK    2  A    between atoms: C2_2  and  C30_40
REMARK    3  A    between atoms: C3_3  and  C4_4
REMARK    4  A    between atoms: C4_4  and  C5_5
REMARK    5  A    between atoms: C5_5  and  C6_6
REMARK    6  A    between atoms: C10_13  and  C28_36
REMARK    7  A    between atoms: C11_14  and  C27_35
REMARK    8  A    between atoms: C12_15  and  O2_34
REMARK    9  A    between atoms: C19_25  and  C26_33
REMARK   10  A    between atoms: C23_30  and  C24_31
REMARK   11  A    between atoms: C23_30  and  C25_32
REMARK                            x       y       z     vdW  Elec       q    Type
REMARK                         _______ _______ _______ _____ _____    ______ ____
ROOT
ATOM      7  C   UNL     1      47.789  13.252  15.591  0.00  0.00    -0.011 C 
ATOM      8  C   UNL     1      47.759  13.865  16.982  0.00  0.00    +0.007 C 
ATOM      9  C   UNL     1      46.361  13.245  17.389  0.00  0.00    +0.108 C 
ATOM     10  O   UNL     1      46.586  11.899  17.115  0.00  0.00    -0.329 OA
ATOM     11  C   UNL     1      45.940  13.964  18.624  0.00  0.00    +0.085 C 
ATOM     12  C   UNL     1      46.882  15.186  18.715  0.00  0.00    -0.011 C 
ATOM     13  C   UNL     1      47.961  14.859  19.760  0.00  0.00    +0.049 C 
ATOM     14  C   UNL     1      46.244  16.499  19.038  0.00  0.00    -0.093 C 
ATOM     15  C   UNL     1      45.125  16.565  19.701  0.00  0.00    -0.039 C 
ATOM     16  C   UNL     1      44.558  17.944  19.989  0.00  0.00    +0.059 C 
ATOM     17  C   UNL     1      45.746  18.758  20.531  0.00  0.00    +0.031 C 
ATOM     18  C   UNL     1      46.712  18.993  19.375  0.00  0.00    -0.038 C 
ATOM     19  C   UNL     1      48.060  19.489  19.900  0.00  0.00    +0.031 C 
ATOM     20  C   UNL     1      46.147  20.037  18.401  0.00  0.00    +0.036 C 
ATOM     21  C   UNL     1      45.878  21.364  19.106  0.00  0.00    +0.021 C 
ATOM     22  C   UNL     1      44.936  21.102  20.258  0.00  0.00    +0.369 C 
ATOM     23  O   UNL     1      43.924  21.756  20.394  0.00  0.00    -0.451 OA
ATOM     24  C   UNL     1      45.284  20.011  21.245  0.00  0.00    -0.097 C 
ATOM     25  C   UNL     1      44.033  19.728  22.095  0.00  0.00    +0.047 C 
ATOM     26  C   UNL     1      46.353  20.527  22.219  0.00  0.00    +0.055 C 
ATOM     27  C   UNL     1      46.965  17.732  18.562  0.00  0.00    +0.036 C 
ATOM     28  C   UNL     1      48.427  17.435  18.281  0.00  0.00    +0.013 C 
ATOM     29  C   UNL     1      48.610  16.304  17.254  0.00  0.00    +0.180 C 
ATOM     32  C   UNL     1      47.487  15.309  17.284  0.00  0.00    -0.024 C 
ATOM     33  C   UNL     1      46.405  15.812  16.320  0.00  0.00    +0.034 C 
ATOM     34  C   UNL     1      47.071  11.912  15.824  0.00  0.00    +0.482 C 
ATOM     35  O   UNL     1      46.951  11.027  15.015  0.00  0.00    -0.426 OA
ENDROOT
BRANCH  29  30
ATOM     30  O   UNL     1      49.858  15.640  17.489  0.00  0.00    -0.560 OA
ATOM     31  H   UNL     1      49.841  15.020  18.230  0.00  0.00    +0.376 HD
ENDBRANCH  29  30
BRANCH   7   6
ATOM      6  C   UNL     1      49.229  13.009  15.135  0.00  0.00    +0.061 C 
BRANCH   6   5
ATOM      5  C   UNL     1      50.008  12.319  16.257  0.00  0.00    +0.047 C 
BRANCH   5   4
ATOM      1  C   UNL     1      52.486  11.897  17.536  0.00  0.00    +0.073 C 
ATOM      2  C   UNL     1      52.192  11.226  16.219  0.00  0.00    -0.130 C 
ATOM      3  C   UNL     1      53.248  10.386  15.548  0.00  0.00    +0.072 C 
ATOM      4  C   UNL     1      51.017  11.372  15.658  0.00  0.00    -0.062 C 
ENDBRANCH   5   4
ENDBRANCH   6   5
ENDBRANCH   7   6
TORSDOF 4
ENDMDL
MODEL 6
REMARK VINA RESULT:      -6.4      4.414      8.465
REMARK  Name = ZINC39560214
REMARK  11 active torsions:
REMARK  status: ('A' for Active; 'I' for Inactive)
REMARK    1  A    between atoms: C1_1  and  C2_2
REMARK    2  A    between atoms: C2_2  and  C30_40
REMARK    3  A    between atoms: C3_3  and  C4_4
REMARK    4  A    between atoms: C4_4  and  C5_5
REMARK    5  A    between atoms: C5_5  and  C6_6
REMARK    6  A    between atoms: C10_13  and  C28_36
REMARK    7  A    between atoms: C11_14  and  C27_35
REMARK    8  A    between atoms: C12_15  and  O2_34
REMARK    9  A    between atoms: C19_25  and  C26_33
REMARK   10  A    between atoms: C23_30  and  C24_31
REMARK   11  A    between atoms: C23_30  and  C25_32
REMARK                            x       y       z     vdW  Elec       q    Type
REMARK                         _______ _______ _______ _____ _____    ______ ____
ROOT
ATOM      7  C   UNL     1      47.841  11.549  16.577  0.00  0.00    -0.011 C 
ATOM      8  C   UNL     1      48.194  12.586  17.631  0.00  0.00    +0.007 C 
ATOM      9  C   UNL     1      46.762  13.258  17.665  0.00  0.00    +0.108 C 
ATOM     10  O   UNL     1      45.958  12.144  17.881  0.00  0.00    -0.329 OA
ATOM     11  C   UNL     1      46.930  14.538  18.409  0.00  0.00    +0.085 C 
ATOM     12  C   UNL     1      48.458  14.758  18.485  0.00  0.00    -0.011 C 
ATOM     13  C   UNL     1      48.912  14.348  19.895  0.00  0.00    +0.049 C 
ATOM     14  C   UNL     1      48.951  16.135  18.173  0.00  0.00    -0.093 C 
ATOM     15  C   UNL     1      48.195  17.181  18.341  0.00  0.00    -0.039 C 
ATOM     16  C   UNL     1      48.787  18.539  18.005  0.00  0.00    +0.059 C 
ATOM     17  C   UNL     1      50.166  18.551  18.685  0.00  0.00    +0.031 C 
ATOM     18  C   UNL     1      51.061  17.567  17.940  0.00  0.00    -0.038 C 
ATOM     19  C   UNL     1      52.321  17.270  18.752  0.00  0.00    +0.031 C 
ATOM     20  C   UNL     1      51.474  18.139  16.576  0.00  0.00    +0.036 C 
ATOM     21  C   UNL     1      52.213  19.465  16.732  0.00  0.00    +0.021 C 
ATOM     22  C   UNL     1      51.316  20.416  17.492  0.00  0.00    +0.369 C 
ATOM     23  O   UNL     1      51.085  21.526  17.064  0.00  0.00    -0.451 OA
ATOM     24  C   UNL     1      50.718  19.957  18.802  0.00  0.00    -0.097 C 
ATOM     25  C   UNL     1      49.609  20.951  19.187  0.00  0.00    +0.047 C 
ATOM     26  C   UNL     1      51.779  20.052  19.907  0.00  0.00    +0.055 C 
ATOM     27  C   UNL     1      50.363  16.243  17.662  0.00  0.00    +0.036 C 
ATOM     28  C   UNL     1      51.170  15.008  18.022  0.00  0.00    +0.013 C 
ATOM     29  C   UNL     1      50.530  13.713  17.493  0.00  0.00    +0.180 C 
ATOM     32  C   UNL     1      49.035  13.805  17.395  0.00  0.00    -0.024 C 
ATOM     33  C   UNL     1      48.701  14.365  16.007  0.00  0.00    +0.034 C 
ATOM     34  C   UNL     1      46.366  11.261  16.904  0.00  0.00    +0.482 C 
ATOM     35  O   UNL     1      45.684  10.410  16.391  0.00  0.00    -0.426 OA
ENDROOT
BRANCH  29  30
ATOM     30  O   UNL     1      50.898  12.615  18.338  0.00  0.00    -0.560 OA
ATOM     31  H   UNL     1      50.782  11.748  17.928  0.00  0.00    +0.376 HD
ENDBRANCH  29  30
BRANCH   7   6
ATOM      6  C   UNL     1      48.681  10.283  16.759  0.00  0.00    +0.061 C 
BRANCH   6   5
ATOM      5  C   UNL     1      49.927  10.366  15.874  0.00  0.00    +0.047 C 
BRANCH   5   4
ATOM      1  C   UNL     1      51.927  11.918  14.630  0.00  0.00    +0.073 C 
ATOM      2  C   UNL     1      50.520  11.927  14.092  0.00  0.00    -0.130 C 
ATOM      3  C   UNL     1      50.162  12.821  12.932  0.00  0.00    +0.072 C 
ATOM      4  C   UNL     1      49.607  11.157  14.630  0.00  0.00    -0.062 C 
ENDBRANCH   5   4
ENDBRANCH   6   5
ENDBRANCH   7   6
TORSDOF 4
ENDMDL
MODEL 7
REMARK VINA RESULT:      -6.4      1.769      8.082
REMARK  Name = ZINC39560214
REMARK  11 active torsions:
REMARK  status: ('A' for Active; 'I' for Inactive)
REMARK    1  A    between atoms: C1_1  and  C2_2
REMARK    2  A    between atoms: C2_2  and  C30_40
REMARK    3  A    between atoms: C3_3  and  C4_4
REMARK    4  A    between atoms: C4_4  and  C5_5
REMARK    5  A    between atoms: C5_5  and  C6_6
REMARK    6  A    between atoms: C10_13  and  C28_36
REMARK    7  A    between atoms: C11_14  and  C27_35
REMARK    8  A    between atoms: C12_15  and  O2_34
REMARK    9  A    between atoms: C19_25  and  C26_33
REMARK   10  A    between atoms: C23_30  and  C24_31
REMARK   11  A    between atoms: C23_30  and  C25_32
REMARK                            x       y       z     vdW  Elec       q    Type
REMARK                         _______ _______ _______ _____ _____    ______ ____
ROOT
ATOM      7  C   UNL     1      49.543  14.020  18.630  0.00  0.00    -0.011 C 
ATOM      8  C   UNL     1      48.566  15.066  18.118  0.00  0.00    +0.007 C 
ATOM      9  C   UNL     1      49.676  16.108  17.685  0.00  0.00    +0.108 C 
ATOM     10  O   UNL     1      50.482  15.308  16.881  0.00  0.00    -0.329 OA
ATOM     11  C   UNL     1      48.958  17.388  17.433  0.00  0.00    +0.085 C 
ATOM     12  C   UNL     1      47.551  17.184  18.040  0.00  0.00    -0.011 C 
ATOM     13  C   UNL     1      46.589  16.883  16.880  0.00  0.00    +0.049 C 
ATOM     14  C   UNL     1      47.012  18.304  18.871  0.00  0.00    -0.093 C 
ATOM     15  C   UNL     1      47.404  19.532  18.690  0.00  0.00    -0.039 C 
ATOM     16  C   UNL     1      46.794  20.604  19.577  0.00  0.00    +0.059 C 
ATOM     17  C   UNL     1      45.280  20.336  19.540  0.00  0.00    +0.031 C 
ATOM     18  C   UNL     1      45.019  19.039  20.300  0.00  0.00    -0.038 C 
ATOM     19  C   UNL     1      43.605  18.531  20.019  0.00  0.00    +0.031 C 
ATOM     20  C   UNL     1      45.175  19.258  21.812  0.00  0.00    +0.036 C 
ATOM     21  C   UNL     1      44.218  20.334  22.318  0.00  0.00    +0.021 C 
ATOM     22  C   UNL     1      44.481  21.601  21.536  0.00  0.00    +0.369 C 
ATOM     23  O   UNL     1      44.675  22.653  22.107  0.00  0.00    -0.451 OA
ATOM     24  C   UNL     1      44.490  21.533  20.027  0.00  0.00    -0.097 C 
ATOM     25  C   UNL     1      45.100  22.843  19.499  0.00  0.00    +0.047 C 
ATOM     26  C   UNL     1      43.044  21.497  19.510  0.00  0.00    +0.055 C 
ATOM     27  C   UNL     1      45.995  17.936  19.918  0.00  0.00    +0.036 C 
ATOM     28  C   UNL     1      45.353  16.595  19.607  0.00  0.00    +0.013 C 
ATOM     29  C   UNL     1      46.388  15.464  19.475  0.00  0.00    +0.180 C 
ATOM     32  C   UNL     1      47.718  15.952  18.981  0.00  0.00    -0.024 C 
ATOM     33  C   UNL     1      48.539  16.364  20.210  0.00  0.00    +0.034 C 
ATOM     34  C   UNL     1      50.732  14.207  17.673  0.00  0.00    +0.482 C 
ATOM     35  O   UNL     1      51.715  13.512  17.627  0.00  0.00    -0.426 OA
ENDROOT
BRANCH  29  30
ATOM     30  O   UNL     1      45.883  14.450  18.597  0.00  0.00    -0.560 OA
ATOM     31  H   UNL     1      46.312  13.590  18.702  0.00  0.00    +0.376 HD
ENDBRANCH  29  30
BRANCH   7   6
ATOM      6  C   UNL     1      48.959  12.613  18.481  0.00  0.00    +0.061 C 
BRANCH   6   5
ATOM      5  C   UNL     1      48.552  12.383  17.024  0.00  0.00    +0.047 C 
BRANCH   5   4
ATOM      1  C   UNL     1      47.347  11.777  14.547  0.00  0.00    +0.073 C 
ATOM      2  C   UNL     1      46.690  11.345  15.833  0.00  0.00    -0.130 C 
ATOM      3  C   UNL     1      45.352  10.652  15.800  0.00  0.00    +0.072 C 
ATOM      4  C   UNL     1      47.283  11.571  16.979  0.00  0.00    -0.062 C 
ENDBRANCH   5   4
ENDBRANCH   6   5
ENDBRANCH   7   6
TORSDOF 4
ENDMDL
MODEL 8
REMARK VINA RESULT:      -6.2      2.033      8.369
REMARK  Name = ZINC39560214
REMARK  11 active torsions:
REMARK  status: ('A' for Active; 'I' for Inactive)
REMARK    1  A    between atoms: C1_1  and  C2_2
REMARK    2  A    between atoms: C2_2  and  C30_40
REMARK    3  A    between atoms: C3_3  and  C4_4
REMARK    4  A    between atoms: C4_4  and  C5_5
REMARK    5  A    between atoms: C5_5  and  C6_6
REMARK    6  A    between atoms: C10_13  and  C28_36
REMARK    7  A    between atoms: C11_14  and  C27_35
REMARK    8  A    between atoms: C12_15  and  O2_34
REMARK    9  A    between atoms: C19_25  and  C26_33
REMARK   10  A    between atoms: C23_30  and  C24_31
REMARK   11  A    between atoms: C23_30  and  C25_32
REMARK                            x       y       z     vdW  Elec       q    Type
REMARK                         _______ _______ _______ _____ _____    ______ ____
ROOT
ATOM      7  C   UNL     1      50.898  15.028  17.608  0.00  0.00    -0.011 C 
ATOM      8  C   UNL     1      49.521  15.138  18.243  0.00  0.00    +0.007 C 
ATOM      9  C   UNL     1      48.723  15.091  16.877  0.00  0.00    +0.108 C 
ATOM     10  O   UNL     1      49.248  13.934  16.310  0.00  0.00    -0.329 OA
ATOM     11  C   UNL     1      47.331  15.509  17.204  0.00  0.00    +0.085 C 
ATOM     12  C   UNL     1      47.418  16.113  18.624  0.00  0.00    -0.011 C 
ATOM     13  C   UNL     1      46.900  15.052  19.608  0.00  0.00    +0.049 C 
ATOM     14  C   UNL     1      46.700  17.405  18.846  0.00  0.00    -0.093 C 
ATOM     15  C   UNL     1      45.671  17.743  18.123  0.00  0.00    -0.039 C 
ATOM     16  C   UNL     1      45.001  19.072  18.428  0.00  0.00    +0.059 C 
ATOM     17  C   UNL     1      44.823  19.086  19.956  0.00  0.00    +0.031 C 
ATOM     18  C   UNL     1      46.206  19.219  20.584  0.00  0.00    -0.038 C 
ATOM     19  C   UNL     1      46.148  18.900  22.078  0.00  0.00    +0.031 C 
ATOM     20  C   UNL     1      46.746  20.646  20.405  0.00  0.00    +0.036 C 
ATOM     21  C   UNL     1      45.811  21.675  21.034  0.00  0.00    +0.021 C 
ATOM     22  C   UNL     1      44.443  21.509  20.411  0.00  0.00    +0.369 C 
ATOM     23  O   UNL     1      43.854  22.460  19.944  0.00  0.00    -0.451 OA
ATOM     24  C   UNL     1      43.819  20.133  20.390  0.00  0.00    -0.097 C 
ATOM     25  C   UNL     1      42.619  20.174  19.428  0.00  0.00    +0.047 C 
ATOM     26  C   UNL     1      43.242  19.814  21.777  0.00  0.00    +0.055 C 
ATOM     27  C   UNL     1      47.226  18.287  19.948  0.00  0.00    +0.036 C 
ATOM     28  C   UNL     1      48.063  17.488  20.932  0.00  0.00    +0.013 C 
ATOM     29  C   UNL     1      49.235  16.760  20.252  0.00  0.00    +0.180 C 
ATOM     32  C   UNL     1      48.938  16.390  18.828  0.00  0.00    -0.024 C 
ATOM     33  C   UNL     1      49.356  17.577  17.950  0.00  0.00    +0.034 C 
ATOM     34  C   UNL     1      50.611  14.128  16.394  0.00  0.00    +0.482 C 
ATOM     35  O   UNL     1      51.437  13.673  15.643  0.00  0.00    -0.426 OA
ENDROOT
BRANCH  29  30
ATOM     30  O   UNL     1      49.572  15.586  21.001  0.00  0.00    -0.560 OA
ATOM     31  H   UNL     1      49.525  15.704  21.959  0.00  0.00    +0.376 HD
ENDBRANCH  29  30
BRANCH   7   6
ATOM      6  C   UNL     1      51.880  14.338  18.558  0.00  0.00    +0.061 C 
BRANCH   6   5
ATOM      5  C   UNL     1      52.626  15.395  19.376  0.00  0.00    +0.047 C 
BRANCH   5   4
ATOM      1  C   UNL     1      52.533  17.932  20.604  0.00  0.00    +0.073 C 
ATOM      2  C   UNL     1      52.687  17.822  19.109  0.00  0.00    -0.130 C 
ATOM      3  C   UNL     1      52.718  19.067  18.260  0.00  0.00    +0.072 C 
ATOM      4  C   UNL     1      52.794  16.643  18.547  0.00  0.00    -0.062 C 
ENDBRANCH   5   4
ENDBRANCH   6   5
ENDBRANCH   7   6
TORSDOF 4
ENDMDL
MODEL 9
REMARK VINA RESULT:      -6.0      2.588      8.301
REMARK  Name = ZINC39560214
REMARK  11 active torsions:
REMARK  status: ('A' for Active; 'I' for Inactive)
REMARK    1  A    between atoms: C1_1  and  C2_2
REMARK    2  A    between atoms: C2_2  and  C30_40
REMARK    3  A    between atoms: C3_3  and  C4_4
REMARK    4  A    between atoms: C4_4  and  C5_5
REMARK    5  A    between atoms: C5_5  and  C6_6
REMARK    6  A    between atoms: C10_13  and  C28_36
REMARK    7  A    between atoms: C11_14  and  C27_35
REMARK    8  A    between atoms: C12_15  and  O2_34
REMARK    9  A    between atoms: C19_25  and  C26_33
REMARK   10  A    between atoms: C23_30  and  C24_31
REMARK   11  A    between atoms: C23_30  and  C25_32
REMARK                            x       y       z     vdW  Elec       q    Type
REMARK                         _______ _______ _______ _____ _____    ______ ____
ROOT
ATOM      7  C   UNL     1      51.850  15.466  18.987  0.00  0.00    -0.011 C 
ATOM      8  C   UNL     1      51.263  16.824  18.639  0.00  0.00    +0.007 C 
ATOM      9  C   UNL     1      52.175  17.643  19.641  0.00  0.00    +0.108 C 
ATOM     10  O   UNL     1      53.438  17.199  19.263  0.00  0.00    -0.329 OA
ATOM     11  C   UNL     1      51.569  19.001  19.728  0.00  0.00    +0.085 C 
ATOM     12  C   UNL     1      50.171  18.856  19.084  0.00  0.00    -0.011 C 
ATOM     13  C   UNL     1      50.259  19.428  17.660  0.00  0.00    +0.049 C 
ATOM     14  C   UNL     1      49.029  19.487  19.815  0.00  0.00    -0.093 C 
ATOM     15  C   UNL     1      49.211  20.502  20.610  0.00  0.00    -0.039 C 
ATOM     16  C   UNL     1      47.989  21.081  21.303  0.00  0.00    +0.059 C 
ATOM     17  C   UNL     1      46.938  21.238  20.190  0.00  0.00    +0.031 C 
ATOM     18  C   UNL     1      46.494  19.841  19.771  0.00  0.00    -0.038 C 
ATOM     19  C   UNL     1      45.719  19.899  18.455  0.00  0.00    +0.031 C 
ATOM     20  C   UNL     1      45.595  19.213  20.847  0.00  0.00    +0.036 C 
ATOM     21  C   UNL     1      44.361  20.072  21.107  0.00  0.00    +0.021 C 
ATOM     22  C   UNL     1      44.826  21.456  21.500  0.00  0.00    +0.369 C 
ATOM     23  O   UNL     1      44.409  21.990  22.505  0.00  0.00    -0.451 OA
ATOM     24  C   UNL     1      45.818  22.167  20.609  0.00  0.00    -0.097 C 
ATOM     25  C   UNL     1      46.370  23.375  21.386  0.00  0.00    +0.047 C 
ATOM     26  C   UNL     1      45.085  22.745  19.389  0.00  0.00    +0.055 C 
ATOM     27  C   UNL     1      47.667  18.891  19.578  0.00  0.00    +0.036 C 
ATOM     28  C   UNL     1      47.638  18.093  18.286  0.00  0.00    +0.013 C 
ATOM     29  C   UNL     1      48.699  16.980  18.259  0.00  0.00    +0.180 C 
ATOM     32  C   UNL     1      49.915  17.318  19.070  0.00  0.00    -0.024 C 
ATOM     33  C   UNL     1      49.656  16.837  20.504  0.00  0.00    +0.034 C 
ATOM     34  C   UNL     1      53.316  15.826  19.287  0.00  0.00    +0.482 C 
ATOM     35  O   UNL     1      54.203  15.041  19.507  0.00  0.00    -0.426 OA
ENDROOT
BRANCH  29  30
ATOM     30  O   UNL     1      49.076  16.708  16.903  0.00  0.00    -0.560 OA
ATOM     31  H   UNL     1      49.790  17.271  16.573  0.00  0.00    +0.376 HD
ENDBRANCH  29  30
BRANCH   7   6
ATOM      6  C   UNL     1      51.772  14.518  17.788  0.00  0.00    +0.061 C 
BRANCH   6   5
ATOM      5  C   UNL     1      50.991  13.262  18.182  0.00  0.00    +0.047 C 
BRANCH   5   4
ATOM      1  C   UNL     1      48.882  13.404  20.050  0.00  0.00    +0.073 C 
ATOM      2  C   UNL     1      48.584  13.389  18.573  0.00  0.00    -0.130 C 
ATOM      3  C   UNL     1      47.155  13.376  18.093  0.00  0.00    +0.072 C 
ATOM      4  C   UNL     1      49.566  13.388  17.706  0.00  0.00    -0.062 C 
ENDBRANCH   5   4
ENDBRANCH   6   5
ENDBRANCH   7   6
TORSDOF 4
ENDMDL
