MODEL 1
REMARK VINA RESULT:      -5.3      0.000      0.000
REMARK  Name = ZINC95486335
REMARK  14 active torsions:
REMARK  status: ('A' for Active; 'I' for Inactive)
REMARK    1  A    between atoms: C1_1  and  C2_2
REMARK    2  A    between atoms: C2_2  and  O1_3
REMARK    3  A    between atoms: O1_3  and  C3_4
REMARK    4  A    between atoms: C3_4  and  C4_5
REMARK    5  A    between atoms: C3_4  and  O3_27
REMARK    6  A    between atoms: C4_5  and  C5_6
REMARK    7  A    between atoms: C5_6  and  C22_25
REMARK    8  A    between atoms: C6_7  and  C7_8
REMARK    9  A    between atoms: C7_8  and  C8_9
REMARK   10  A    between atoms: C14_17  and  C21_24
REMARK   11  A    between atoms: C18_21  and  C19_22
REMARK   12  A    between atoms: C18_21  and  C20_23
REMARK   13  A    between atoms: O3_27  and  C23_28
REMARK   14  A    between atoms: C23_28  and  C24_29
REMARK                            x       y       z     vdW  Elec       q    Type
REMARK                         _______ _______ _______ _____ _____    ______ ____
ROOT
ATOM     14  C   UNL     1      46.670  16.645  18.533  0.00  0.00    +0.044 C 
ATOM     15  C   UNL     1      47.968  17.377  18.281  0.00  0.00    -0.107 C 
ATOM     16  C   UNL     1      48.868  16.909  17.161  0.00  0.00    +0.049 C 
ATOM     17  C   UNL     1      49.073  15.394  17.293  0.00  0.00    +0.021 C 
ATOM     18  C   UNL     1      47.706  14.716  17.373  0.00  0.00    +0.004 C 
ATOM     19  C   UNL     1      47.808  13.221  17.137  0.00  0.00    -0.049 C 
ATOM     20  C   UNL     1      48.883  12.567  18.005  0.00  0.00    +0.023 C 
ATOM     21  C   UNL     1      48.203  12.988  15.660  0.00  0.00    +0.012 C 
ATOM     22  C   UNL     1      46.470  12.514  17.346  0.00  0.00    +0.011 C 
ATOM     23  C   UNL     1      45.853  12.886  18.690  0.00  0.00    +0.005 C 
ATOM     24  C   UNL     1      45.628  14.397  18.743  0.00  0.00    +0.011 C 
ATOM     25  C   UNL     1      48.305  18.409  19.019  0.00  0.00    -0.007 C 
ATOM     26  C   UNL     1      46.965  15.133  18.634  0.00  0.00    -0.034 C 
ATOM     27  C   UNL     1      47.783  14.897  19.903  0.00  0.00    +0.028 C 
ENDROOT
BRANCH  14  13
ATOM     13  C   UNL     1      46.063  17.139  19.847  0.00  0.00    +0.060 C 
BRANCH  13  12
ATOM      9  C   UNL     1      43.904  18.134  20.488  0.00  0.00    -0.232 C 
ATOM     12  C   UNL     1      44.843  17.974  19.554  0.00  0.00    +0.096 C 
BRANCH   9  10
ATOM     10  C   UNL     1      44.003  17.413  21.756  0.00  0.00    +0.467 C 
ATOM     11  O   UNL     1      43.029  16.849  22.212  0.00  0.00    -0.460 OA
ENDBRANCH   9  10
BRANCH   9   8
ATOM      8  C   UNL     1      42.740  19.058  20.236  0.00  0.00    +0.132 C 
BRANCH   8   4
ATOM      4  C   UNL     1      43.167  20.162  19.265  0.00  0.00    +0.307 C 
BRANCH   4   3
ATOM      3  O   UNL     1      43.488  21.344  20.002  0.00  0.00    -0.386 OA
BRANCH   3   2
ATOM      1  C   UNL     1      45.611  21.409  18.851  0.00  0.00    +0.048 C 
ATOM      2  C   UNL     1      44.889  21.546  20.193  0.00  0.00    +0.146 C 
ENDBRANCH   3   2
ENDBRANCH   4   3
BRANCH   4   5
ATOM      5  O   UNL     1      42.095  20.441  18.361  0.00  0.00    -0.389 OA
BRANCH   5   6
ATOM      6  C   UNL     1      41.289  21.557  18.741  0.00  0.00    +0.152 C 
ATOM      7  C   UNL     1      39.830  21.280  18.373  0.00  0.00    +0.049 C 
ENDBRANCH   5   6
ENDBRANCH   4   5
ENDBRANCH   8   4
ENDBRANCH   9   8
ENDBRANCH  13  12
ENDBRANCH  14  13
TORSDOF 9
ENDMDL
MODEL 2
REMARK VINA RESULT:      -5.3      2.500      3.817
REMARK  Name = ZINC95486335
REMARK  14 active torsions:
REMARK  status: ('A' for Active; 'I' for Inactive)
REMARK    1  A    between atoms: C1_1  and  C2_2
REMARK    2  A    between atoms: C2_2  and  O1_3
REMARK    3  A    between atoms: O1_3  and  C3_4
REMARK    4  A    between atoms: C3_4  and  C4_5
REMARK    5  A    between atoms: C3_4  and  O3_27
REMARK    6  A    between atoms: C4_5  and  C5_6
REMARK    7  A    between atoms: C5_6  and  C22_25
REMARK    8  A    between atoms: C6_7  and  C7_8
REMARK    9  A    between atoms: C7_8  and  C8_9
REMARK   10  A    between atoms: C14_17  and  C21_24
REMARK   11  A    between atoms: C18_21  and  C19_22
REMARK   12  A    between atoms: C18_21  and  C20_23
REMARK   13  A    between atoms: O3_27  and  C23_28
REMARK   14  A    between atoms: C23_28  and  C24_29
REMARK                            x       y       z     vdW  Elec       q    Type
REMARK                         _______ _______ _______ _____ _____    ______ ____
ROOT
ATOM     14  C   UNL     1      48.024  19.018  19.009  0.00  0.00    +0.044 C 
ATOM     15  C   UNL     1      48.377  20.222  19.852  0.00  0.00    -0.107 C 
ATOM     16  C   UNL     1      49.498  21.129  19.401  0.00  0.00    +0.049 C 
ATOM     17  C   UNL     1      50.726  20.269  19.073  0.00  0.00    +0.021 C 
ATOM     18  C   UNL     1      50.316  19.179  18.084  0.00  0.00    +0.004 C 
ATOM     19  C   UNL     1      51.524  18.528  17.437  0.00  0.00    -0.049 C 
ATOM     20  C   UNL     1      52.566  18.083  18.462  0.00  0.00    +0.023 C 
ATOM     21  C   UNL     1      52.200  19.568  16.514  0.00  0.00    +0.012 C 
ATOM     22  C   UNL     1      51.132  17.348  16.548  0.00  0.00    +0.011 C 
ATOM     23  C   UNL     1      50.231  16.371  17.294  0.00  0.00    +0.005 C 
ATOM     24  C   UNL     1      48.961  17.095  17.742  0.00  0.00    +0.011 C 
ATOM     25  C   UNL     1      47.715  20.479  20.955  0.00  0.00    -0.007 C 
ATOM     26  C   UNL     1      49.314  18.224  18.713  0.00  0.00    -0.034 C 
ATOM     27  C   UNL     1      49.812  17.629  20.029  0.00  0.00    +0.028 C 
ENDROOT
BRANCH  14  13
ATOM     13  C   UNL     1      47.043  18.135  19.783  0.00  0.00    +0.060 C 
BRANCH  13  12
ATOM      9  C   UNL     1      44.649  18.487  20.238  0.00  0.00    -0.232 C 
ATOM     12  C   UNL     1      45.635  18.441  19.341  0.00  0.00    +0.096 C 
BRANCH   9  10
ATOM     10  C   UNL     1      44.912  18.134  21.632  0.00  0.00    +0.467 C 
ATOM     11  O   UNL     1      44.123  17.442  22.242  0.00  0.00    -0.460 OA
ENDBRANCH   9  10
BRANCH   9   8
ATOM      8  C   UNL     1      43.263  18.903  19.814  0.00  0.00    +0.132 C 
BRANCH   8   4
ATOM      4  C   UNL     1      43.349  20.178  18.972  0.00  0.00    +0.307 C 
BRANCH   4   3
ATOM      3  O   UNL     1      43.644  21.289  19.820  0.00  0.00    -0.386 OA
BRANCH   3   2
ATOM      1  C   UNL     1      44.999  23.212  20.376  0.00  0.00    +0.048 C 
ATOM      2  C   UNL     1      44.779  22.051  19.403  0.00  0.00    +0.146 C 
ENDBRANCH   3   2
ENDBRANCH   4   3
BRANCH   4   5
ATOM      5  O   UNL     1      42.098  20.399  18.315  0.00  0.00    -0.389 OA
BRANCH   5   6
ATOM      6  C   UNL     1      41.022  20.705  19.203  0.00  0.00    +0.152 C 
ATOM      7  C   UNL     1      39.854  21.290  18.406  0.00  0.00    +0.049 C 
ENDBRANCH   5   6
ENDBRANCH   4   5
ENDBRANCH   8   4
ENDBRANCH   9   8
ENDBRANCH  13  12
ENDBRANCH  14  13
TORSDOF 9
ENDMDL
MODEL 3
REMARK VINA RESULT:      -5.2      1.300      2.617
REMARK  Name = ZINC95486335
REMARK  14 active torsions:
REMARK  status: ('A' for Active; 'I' for Inactive)
REMARK    1  A    between atoms: C1_1  and  C2_2
REMARK    2  A    between atoms: C2_2  and  O1_3
REMARK    3  A    between atoms: O1_3  and  C3_4
REMARK    4  A    between atoms: C3_4  and  C4_5
REMARK    5  A    between atoms: C3_4  and  O3_27
REMARK    6  A    between atoms: C4_5  and  C5_6
REMARK    7  A    between atoms: C5_6  and  C22_25
REMARK    8  A    between atoms: C6_7  and  C7_8
REMARK    9  A    between atoms: C7_8  and  C8_9
REMARK   10  A    between atoms: C14_17  and  C21_24
REMARK   11  A    between atoms: C18_21  and  C19_22
REMARK   12  A    between atoms: C18_21  and  C20_23
REMARK   13  A    between atoms: O3_27  and  C23_28
REMARK   14  A    between atoms: C23_28  and  C24_29
REMARK                            x       y       z     vdW  Elec       q    Type
REMARK                         _______ _______ _______ _____ _____    ______ ____
ROOT
ATOM     14  C   UNL     1      47.912  17.798  17.899  0.00  0.00    +0.044 C 
ATOM     15  C   UNL     1      49.385  18.136  17.878  0.00  0.00    -0.107 C 
ATOM     16  C   UNL     1      50.323  17.279  17.060  0.00  0.00    +0.049 C 
ATOM     17  C   UNL     1      50.070  15.805  17.405  0.00  0.00    +0.021 C 
ATOM     18  C   UNL     1      48.581  15.507  17.236  0.00  0.00    +0.004 C 
ATOM     19  C   UNL     1      48.311  14.015  17.199  0.00  0.00    -0.049 C 
ATOM     20  C   UNL     1      48.970  13.274  18.361  0.00  0.00    +0.023 C 
ATOM     21  C   UNL     1      48.908  13.444  15.891  0.00  0.00    +0.012 C 
ATOM     22  C   UNL     1      46.815  13.703  17.166  0.00  0.00    +0.011 C 
ATOM     23  C   UNL     1      46.074  14.437  18.277  0.00  0.00    +0.005 C 
ATOM     24  C   UNL     1      46.269  15.944  18.108  0.00  0.00    +0.011 C 
ATOM     25  C   UNL     1      49.842  19.164  18.556  0.00  0.00    -0.007 C 
ATOM     26  C   UNL     1      47.752  16.300  18.234  0.00  0.00    -0.034 C 
ATOM     27  C   UNL     1      48.206  16.089  19.677  0.00  0.00    +0.028 C 
ENDROOT
BRANCH  14  13
ATOM     13  C   UNL     1      47.220  18.641  18.971  0.00  0.00    +0.060 C 
BRANCH  13  12
ATOM      9  C   UNL     1      44.845  19.286  19.073  0.00  0.00    -0.232 C 
ATOM     12  C   UNL     1      45.988  19.284  18.386  0.00  0.00    +0.096 C 
BRANCH   9  10
ATOM     10  C   UNL     1      44.756  18.570  20.346  0.00  0.00    +0.467 C 
ATOM     11  O   UNL     1      43.908  17.717  20.505  0.00  0.00    -0.460 OA
ENDBRANCH   9  10
BRANCH   9   8
ATOM      8  C   UNL     1      43.645  20.024  18.539  0.00  0.00    +0.132 C 
BRANCH   8   4
ATOM      4  C   UNL     1      43.239  21.120  19.527  0.00  0.00    +0.307 C 
BRANCH   4   3
ATOM      3  O   UNL     1      41.997  21.695  19.116  0.00  0.00    -0.386 OA
BRANCH   3   2
ATOM      1  C   UNL     1      39.664  21.452  18.534  0.00  0.00    +0.048 C 
ATOM      2  C   UNL     1      40.987  20.733  18.805  0.00  0.00    +0.146 C 
ENDBRANCH   3   2
ENDBRANCH   4   3
BRANCH   4   5
ATOM      5  O   UNL     1      44.247  22.134  19.554  0.00  0.00    -0.389 OA
BRANCH   5   6
ATOM      6  C   UNL     1      44.669  22.498  20.870  0.00  0.00    +0.152 C 
ATOM      7  C   UNL     1      46.187  22.345  20.979  0.00  0.00    +0.049 C 
ENDBRANCH   5   6
ENDBRANCH   4   5
ENDBRANCH   8   4
ENDBRANCH   9   8
ENDBRANCH  13  12
ENDBRANCH  14  13
TORSDOF 9
ENDMDL
MODEL 4
REMARK VINA RESULT:      -5.1      4.108      7.451
REMARK  Name = ZINC95486335
REMARK  14 active torsions:
REMARK  status: ('A' for Active; 'I' for Inactive)
REMARK    1  A    between atoms: C1_1  and  C2_2
REMARK    2  A    between atoms: C2_2  and  O1_3
REMARK    3  A    between atoms: O1_3  and  C3_4
REMARK    4  A    between atoms: C3_4  and  C4_5
REMARK    5  A    between atoms: C3_4  and  O3_27
REMARK    6  A    between atoms: C4_5  and  C5_6
REMARK    7  A    between atoms: C5_6  and  C22_25
REMARK    8  A    between atoms: C6_7  and  C7_8
REMARK    9  A    between atoms: C7_8  and  C8_9
REMARK   10  A    between atoms: C14_17  and  C21_24
REMARK   11  A    between atoms: C18_21  and  C19_22
REMARK   12  A    between atoms: C18_21  and  C20_23
REMARK   13  A    between atoms: O3_27  and  C23_28
REMARK   14  A    between atoms: C23_28  and  C24_29
REMARK                            x       y       z     vdW  Elec       q    Type
REMARK                         _______ _______ _______ _____ _____    ______ ____
ROOT
ATOM     14  C   UNL     1      48.357  18.215  18.593  0.00  0.00    +0.044 C 
ATOM     15  C   UNL     1      48.020  19.318  19.571  0.00  0.00    -0.107 C 
ATOM     16  C   UNL     1      48.466  20.729  19.268  0.00  0.00    +0.049 C 
ATOM     17  C   UNL     1      49.958  20.708  18.908  0.00  0.00    +0.021 C 
ATOM     18  C   UNL     1      50.183  19.686  17.794  0.00  0.00    +0.004 C 
ATOM     19  C   UNL     1      51.539  19.865  17.138  0.00  0.00    -0.049 C 
ATOM     20  C   UNL     1      52.674  19.939  18.158  0.00  0.00    +0.023 C 
ATOM     21  C   UNL     1      51.531  21.201  16.359  0.00  0.00    +0.012 C 
ATOM     22  C   UNL     1      51.830  18.768  16.115  0.00  0.00    +0.011 C 
ATOM     23  C   UNL     1      51.611  17.383  16.713  0.00  0.00    +0.005 C 
ATOM     24  C   UNL     1      50.161  17.254  17.177  0.00  0.00    +0.011 C 
ATOM     25  C   UNL     1      47.343  19.053  20.664  0.00  0.00    -0.007 C 
ATOM     26  C   UNL     1      49.866  18.279  18.274  0.00  0.00    -0.034 C 
ATOM     27  C   UNL     1      50.630  17.903  19.543  0.00  0.00    +0.028 C 
ENDROOT
BRANCH  14  13
ATOM     13  C   UNL     1      48.022  16.864  19.225  0.00  0.00    +0.060 C 
BRANCH  13  12
ATOM      9  C   UNL     1      47.377  14.703  18.234  0.00  0.00    -0.232 C 
ATOM     12  C   UNL     1      47.239  16.030  18.243  0.00  0.00    +0.096 C 
BRANCH   9  10
ATOM     10  C   UNL     1      48.368  14.066  19.101  0.00  0.00    +0.467 C 
ATOM     11  O   UNL     1      48.006  13.356  20.017  0.00  0.00    -0.460 OA
ENDBRANCH   9  10
BRANCH   9   8
ATOM      8  C   UNL     1      46.514  13.861  17.331  0.00  0.00    +0.132 C 
BRANCH   8   4
ATOM      4  C   UNL     1      47.387  12.846  16.591  0.00  0.00    +0.307 C 
BRANCH   4   3
ATOM      3  O   UNL     1      47.903  13.442  15.399  0.00  0.00    -0.386 OA
BRANCH   3   2
ATOM      1  C   UNL     1      50.248  13.628  15.950  0.00  0.00    +0.048 C 
ATOM      2  C   UNL     1      49.206  12.980  15.036  0.00  0.00    +0.146 C 
ENDBRANCH   3   2
ENDBRANCH   4   3
BRANCH   4   5
ATOM      5  O   UNL     1      46.602  11.701  16.251  0.00  0.00    -0.389 OA
BRANCH   5   6
ATOM      6  C   UNL     1      46.766  10.598  17.143  0.00  0.00    +0.152 C 
ATOM      7  C   UNL     1      48.204  10.574  17.665  0.00  0.00    +0.049 C 
ENDBRANCH   5   6
ENDBRANCH   4   5
ENDBRANCH   8   4
ENDBRANCH   9   8
ENDBRANCH  13  12
ENDBRANCH  14  13
TORSDOF 9
ENDMDL
MODEL 5
REMARK VINA RESULT:      -5.1      3.118      7.642
REMARK  Name = ZINC95486335
REMARK  14 active torsions:
REMARK  status: ('A' for Active; 'I' for Inactive)
REMARK    1  A    between atoms: C1_1  and  C2_2
REMARK    2  A    between atoms: C2_2  and  O1_3
REMARK    3  A    between atoms: O1_3  and  C3_4
REMARK    4  A    between atoms: C3_4  and  C4_5
REMARK    5  A    between atoms: C3_4  and  O3_27
REMARK    6  A    between atoms: C4_5  and  C5_6
REMARK    7  A    between atoms: C5_6  and  C22_25
REMARK    8  A    between atoms: C6_7  and  C7_8
REMARK    9  A    between atoms: C7_8  and  C8_9
REMARK   10  A    between atoms: C14_17  and  C21_24
REMARK   11  A    between atoms: C18_21  and  C19_22
REMARK   12  A    between atoms: C18_21  and  C20_23
REMARK   13  A    between atoms: O3_27  and  C23_28
REMARK   14  A    between atoms: C23_28  and  C24_29
REMARK                            x       y       z     vdW  Elec       q    Type
REMARK                         _______ _______ _______ _____ _____    ______ ____
ROOT
ATOM     14  C   UNL     1      44.703  17.358  20.367  0.00  0.00    +0.044 C 
ATOM     15  C   UNL     1      43.791  17.336  21.572  0.00  0.00    -0.107 C 
ATOM     16  C   UNL     1      42.859  18.502  21.806  0.00  0.00    +0.049 C 
ATOM     17  C   UNL     1      43.665  19.804  21.711  0.00  0.00    +0.021 C 
ATOM     18  C   UNL     1      44.425  19.819  20.386  0.00  0.00    +0.004 C 
ATOM     19  C   UNL     1      44.942  21.206  20.054  0.00  0.00    -0.049 C 
ATOM     20  C   UNL     1      45.703  21.838  21.218  0.00  0.00    +0.023 C 
ATOM     21  C   UNL     1      43.731  22.116  19.745  0.00  0.00    +0.012 C 
ATOM     22  C   UNL     1      45.817  21.207  18.800  0.00  0.00    +0.011 C 
ATOM     23  C   UNL     1      46.907  20.145  18.888  0.00  0.00    +0.005 C 
ATOM     24  C   UNL     1      46.263  18.768  19.040  0.00  0.00    +0.011 C 
ATOM     25  C   UNL     1      43.804  16.316  22.398  0.00  0.00    -0.007 C 
ATOM     26  C   UNL     1      45.458  18.704  20.339  0.00  0.00    -0.034 C 
ATOM     27  C   UNL     1      46.411  18.733  21.533  0.00  0.00    +0.028 C 
ENDROOT
BRANCH  14  13
ATOM     13  C   UNL     1      45.707  16.208  20.477  0.00  0.00    +0.060 C 
BRANCH  13  12
ATOM      9  C   UNL     1      45.525  13.935  19.548  0.00  0.00    -0.232 C 
ATOM     12  C   UNL     1      45.501  15.251  19.331  0.00  0.00    +0.096 C 
BRANCH   9  10
ATOM     10  C   UNL     1      45.859  13.419  20.876  0.00  0.00    +0.467 C 
ATOM     11  O   UNL     1      47.000  13.091  21.131  0.00  0.00    -0.460 OA
ENDBRANCH   9  10
BRANCH   9   8
ATOM      8  C   UNL     1      45.209  12.980  18.426  0.00  0.00    +0.132 C 
BRANCH   8   4
ATOM      4  C   UNL     1      46.506  12.574  17.722  0.00  0.00    +0.307 C 
BRANCH   4   3
ATOM      3  O   UNL     1      46.707  13.407  16.578  0.00  0.00    -0.386 OA
BRANCH   3   2
ATOM      1  C   UNL     1      48.809  13.718  17.728  0.00  0.00    +0.048 C 
ATOM      2  C   UNL     1      47.840  14.272  16.682  0.00  0.00    +0.146 C 
ENDBRANCH   3   2
ENDBRANCH   4   3
BRANCH   4   5
ATOM      5  O   UNL     1      46.415  11.209  17.307  0.00  0.00    -0.389 OA
BRANCH   5   6
ATOM      6  C   UNL     1      46.470  11.027  15.891  0.00  0.00    +0.152 C 
ATOM      7  C   UNL     1      45.155  10.415  15.404  0.00  0.00    +0.049 C 
ENDBRANCH   5   6
ENDBRANCH   4   5
ENDBRANCH   8   4
ENDBRANCH   9   8
ENDBRANCH  13  12
ENDBRANCH  14  13
TORSDOF 9
ENDMDL
MODEL 6
REMARK VINA RESULT:      -5.1      3.990      8.215
REMARK  Name = ZINC95486335
REMARK  14 active torsions:
REMARK  status: ('A' for Active; 'I' for Inactive)
REMARK    1  A    between atoms: C1_1  and  C2_2
REMARK    2  A    between atoms: C2_2  and  O1_3
REMARK    3  A    between atoms: O1_3  and  C3_4
REMARK    4  A    between atoms: C3_4  and  C4_5
REMARK    5  A    between atoms: C3_4  and  O3_27
REMARK    6  A    between atoms: C4_5  and  C5_6
REMARK    7  A    between atoms: C5_6  and  C22_25
REMARK    8  A    between atoms: C6_7  and  C7_8
REMARK    9  A    between atoms: C7_8  and  C8_9
REMARK   10  A    between atoms: C14_17  and  C21_24
REMARK   11  A    between atoms: C18_21  and  C19_22
REMARK   12  A    between atoms: C18_21  and  C20_23
REMARK   13  A    between atoms: O3_27  and  C23_28
REMARK   14  A    between atoms: C23_28  and  C24_29
REMARK                            x       y       z     vdW  Elec       q    Type
REMARK                         _______ _______ _______ _____ _____    ______ ____
ROOT
ATOM     14  C   UNL     1      47.091  19.335  19.179  0.00  0.00    +0.044 C 
ATOM     15  C   UNL     1      45.767  18.825  18.656  0.00  0.00    -0.107 C 
ATOM     16  C   UNL     1      44.631  19.800  18.463  0.00  0.00    +0.049 C 
ATOM     17  C   UNL     1      44.468  20.628  19.745  0.00  0.00    +0.021 C 
ATOM     18  C   UNL     1      45.818  21.246  20.109  0.00  0.00    +0.004 C 
ATOM     19  C   UNL     1      45.667  22.355  21.132  0.00  0.00    -0.049 C 
ATOM     20  C   UNL     1      44.830  21.927  22.337  0.00  0.00    +0.023 C 
ATOM     21  C   UNL     1      44.936  23.541  20.461  0.00  0.00    +0.012 C 
ATOM     22  C   UNL     1      47.020  22.888  21.603  0.00  0.00    +0.011 C 
ATOM     23  C   UNL     1      47.934  21.755  22.051  0.00  0.00    +0.005 C 
ATOM     24  C   UNL     1      48.161  20.794  20.885  0.00  0.00    +0.011 C 
ATOM     25  C   UNL     1      45.611  17.554  18.368  0.00  0.00    -0.007 C 
ATOM     26  C   UNL     1      46.833  20.167  20.453  0.00  0.00    -0.034 C 
ATOM     27  C   UNL     1      46.339  19.218  21.543  0.00  0.00    +0.028 C 
ENDROOT
BRANCH  14  13
ATOM     13  C   UNL     1      47.989  18.143  19.517  0.00  0.00    +0.060 C 
BRANCH  13  12
ATOM      9  C   UNL     1      49.793  17.311  18.062  0.00  0.00    -0.232 C 
ATOM     12  C   UNL     1      49.316  18.301  18.818  0.00  0.00    +0.096 C 
BRANCH   9  10
ATOM     10  C   UNL     1      49.084  16.033  17.998  0.00  0.00    +0.467 C 
ATOM     11  O   UNL     1      48.816  15.541  16.921  0.00  0.00    -0.460 OA
ENDBRANCH   9  10
BRANCH   9   8
ATOM      8  C   UNL     1      51.062  17.509  17.274  0.00  0.00    +0.132 C 
BRANCH   8   4
ATOM      4  C   UNL     1      51.946  18.538  17.982  0.00  0.00    +0.307 C 
BRANCH   4   3
ATOM      3  O   UNL     1      52.460  19.464  17.022  0.00  0.00    -0.386 OA
BRANCH   3   2
ATOM      1  C   UNL     1      51.483  21.132  18.474  0.00  0.00    +0.048 C 
ATOM      2  C   UNL     1      51.802  20.733  17.031  0.00  0.00    +0.146 C 
ENDBRANCH   3   2
ENDBRANCH   4   3
BRANCH   4   5
ATOM      5  O   UNL     1      53.033  17.869  18.627  0.00  0.00    -0.389 OA
BRANCH   5   6
ATOM      6  C   UNL     1      52.703  17.325  19.906  0.00  0.00    +0.152 C 
ATOM      7  C   UNL     1      52.348  18.462  20.867  0.00  0.00    +0.049 C 
ENDBRANCH   5   6
ENDBRANCH   4   5
ENDBRANCH   8   4
ENDBRANCH   9   8
ENDBRANCH  13  12
ENDBRANCH  14  13
TORSDOF 9
ENDMDL
MODEL 7
REMARK VINA RESULT:      -5.0      2.371      4.485
REMARK  Name = ZINC95486335
REMARK  14 active torsions:
REMARK  status: ('A' for Active; 'I' for Inactive)
REMARK    1  A    between atoms: C1_1  and  C2_2
REMARK    2  A    between atoms: C2_2  and  O1_3
REMARK    3  A    between atoms: O1_3  and  C3_4
REMARK    4  A    between atoms: C3_4  and  C4_5
REMARK    5  A    between atoms: C3_4  and  O3_27
REMARK    6  A    between atoms: C4_5  and  C5_6
REMARK    7  A    between atoms: C5_6  and  C22_25
REMARK    8  A    between atoms: C6_7  and  C7_8
REMARK    9  A    between atoms: C7_8  and  C8_9
REMARK   10  A    between atoms: C14_17  and  C21_24
REMARK   11  A    between atoms: C18_21  and  C19_22
REMARK   12  A    between atoms: C18_21  and  C20_23
REMARK   13  A    between atoms: O3_27  and  C23_28
REMARK   14  A    between atoms: C23_28  and  C24_29
REMARK                            x       y       z     vdW  Elec       q    Type
REMARK                         _______ _______ _______ _____ _____    ______ ____
ROOT
ATOM     14  C   UNL     1      49.885  19.898  18.477  0.00  0.00    +0.044 C 
ATOM     15  C   UNL     1      51.315  20.379  18.568  0.00  0.00    -0.107 C 
ATOM     16  C   UNL     1      52.399  19.597  17.863  0.00  0.00    +0.049 C 
ATOM     17  C   UNL     1      52.260  18.115  18.238  0.00  0.00    +0.021 C 
ATOM     18  C   UNL     1      50.826  17.667  17.955  0.00  0.00    +0.004 C 
ATOM     19  C   UNL     1      50.705  16.155  17.948  0.00  0.00    -0.049 C 
ATOM     20  C   UNL     1      51.327  15.515  19.188  0.00  0.00    +0.023 C 
ATOM     21  C   UNL     1      51.466  15.611  16.716  0.00  0.00    +0.012 C 
ATOM     22  C   UNL     1      49.254  15.697  17.800  0.00  0.00    +0.011 C 
ATOM     23  C   UNL     1      48.352  16.384  18.817  0.00  0.00    +0.005 C 
ATOM     24  C   UNL     1      48.416  17.897  18.612  0.00  0.00    +0.011 C 
ATOM     25  C   UNL     1      51.610  21.465  19.245  0.00  0.00    -0.007 C 
ATOM     26  C   UNL     1      49.841  18.401  18.850  0.00  0.00    -0.034 C 
ATOM     27  C   UNL     1      50.185  18.276  20.333  0.00  0.00    +0.028 C 
ENDROOT
BRANCH  14  13
ATOM     13  C   UNL     1      49.024  20.698  19.455  0.00  0.00    +0.060 C 
BRANCH  13  12
ATOM      9  C   UNL     1      46.641  21.255  19.728  0.00  0.00    -0.232 C 
ATOM     12  C   UNL     1      47.595  20.708  18.974  0.00  0.00    +0.096 C 
BRANCH   9  10
ATOM     10  C   UNL     1      46.960  21.748  21.068  0.00  0.00    +0.467 C 
ATOM     11  O   UNL     1      46.685  22.890  21.375  0.00  0.00    -0.460 OA
ENDBRANCH   9  10
BRANCH   9   8
ATOM      8  C   UNL     1      45.233  21.366  19.200  0.00  0.00    +0.132 C 
BRANCH   8   4
ATOM      4  C   UNL     1      44.627  19.967  19.068  0.00  0.00    +0.307 C 
BRANCH   4   3
ATOM      3  O   UNL     1      43.355  20.059  18.423  0.00  0.00    -0.386 OA
BRANCH   3   2
ATOM      1  C   UNL     1      41.387  21.417  18.772  0.00  0.00    +0.048 C 
ATOM      2  C   UNL     1      42.266  20.291  19.320  0.00  0.00    +0.146 C 
ENDBRANCH   3   2
ENDBRANCH   4   3
BRANCH   4   5
ATOM      5  O   UNL     1      44.462  19.395  20.368  0.00  0.00    -0.389 OA
BRANCH   5   6
ATOM      6  C   UNL     1      44.983  18.070  20.490  0.00  0.00    +0.152 C 
ATOM      7  C   UNL     1      46.125  18.064  21.509  0.00  0.00    +0.049 C 
ENDBRANCH   5   6
ENDBRANCH   4   5
ENDBRANCH   8   4
ENDBRANCH   9   8
ENDBRANCH  13  12
ENDBRANCH  14  13
TORSDOF 9
ENDMDL
MODEL 8
REMARK VINA RESULT:      -4.9      3.031      4.824
REMARK  Name = ZINC95486335
REMARK  14 active torsions:
REMARK  status: ('A' for Active; 'I' for Inactive)
REMARK    1  A    between atoms: C1_1  and  C2_2
REMARK    2  A    between atoms: C2_2  and  O1_3
REMARK    3  A    between atoms: O1_3  and  C3_4
REMARK    4  A    between atoms: C3_4  and  C4_5
REMARK    5  A    between atoms: C3_4  and  O3_27
REMARK    6  A    between atoms: C4_5  and  C5_6
REMARK    7  A    between atoms: C5_6  and  C22_25
REMARK    8  A    between atoms: C6_7  and  C7_8
REMARK    9  A    between atoms: C7_8  and  C8_9
REMARK   10  A    between atoms: C14_17  and  C21_24
REMARK   11  A    between atoms: C18_21  and  C19_22
REMARK   12  A    between atoms: C18_21  and  C20_23
REMARK   13  A    between atoms: O3_27  and  C23_28
REMARK   14  A    between atoms: C23_28  and  C24_29
REMARK                            x       y       z     vdW  Elec       q    Type
REMARK                         _______ _______ _______ _____ _____    ______ ____
ROOT
ATOM     14  C   UNL     1      49.982  19.513  18.835  0.00  0.00    +0.044 C 
ATOM     15  C   UNL     1      51.071  20.005  17.910  0.00  0.00    -0.107 C 
ATOM     16  C   UNL     1      52.092  19.020  17.390  0.00  0.00    +0.049 C 
ATOM     17  C   UNL     1      52.653  18.221  18.575  0.00  0.00    +0.021 C 
ATOM     18  C   UNL     1      51.489  17.618  19.360  0.00  0.00    +0.004 C 
ATOM     19  C   UNL     1      51.957  16.532  20.308  0.00  0.00    -0.049 C 
ATOM     20  C   UNL     1      53.131  16.983  21.177  0.00  0.00    +0.023 C 
ATOM     21  C   UNL     1      52.443  15.328  19.468  0.00  0.00    +0.012 C 
ATOM     22  C   UNL     1      50.824  16.015  21.194  0.00  0.00    +0.011 C 
ATOM     23  C   UNL     1      50.094  17.162  21.881  0.00  0.00    +0.005 C 
ATOM     24  C   UNL     1      49.508  18.097  20.824  0.00  0.00    +0.011 C 
ATOM     25  C   UNL     1      51.124  21.268  17.558  0.00  0.00    -0.007 C 
ATOM     26  C   UNL     1      50.630  18.708  19.982  0.00  0.00    -0.034 C 
ATOM     27  C   UNL     1      51.440  19.680  20.838  0.00  0.00    +0.028 C 
ENDROOT
BRANCH  14  13
ATOM     13  C   UNL     1      49.232  20.715  19.411  0.00  0.00    +0.060 C 
BRANCH  13  12
ATOM      9  C   UNL     1      46.785  20.930  19.586  0.00  0.00    -0.232 C 
ATOM     12  C   UNL     1      47.855  20.787  18.802  0.00  0.00    +0.096 C 
BRANCH   9  10
ATOM     10  C   UNL     1      46.936  20.908  21.041  0.00  0.00    +0.467 C 
ATOM     11  O   UNL     1      46.613  19.921  21.669  0.00  0.00    -0.460 OA
ENDBRANCH   9  10
BRANCH   9   8
ATOM      8  C   UNL     1      45.421  21.115  18.973  0.00  0.00    +0.132 C 
BRANCH   8   4
ATOM      4  C   UNL     1      44.692  19.770  18.935  0.00  0.00    +0.307 C 
BRANCH   4   3
ATOM      3  O   UNL     1      45.326  18.912  17.983  0.00  0.00    -0.386 OA
BRANCH   3   2
ATOM      1  C   UNL     1      47.071  17.242  18.051  0.00  0.00    +0.048 C 
ATOM      2  C   UNL     1      45.656  17.620  18.496  0.00  0.00    +0.146 C 
ENDBRANCH   3   2
ENDBRANCH   4   3
BRANCH   4   5
ATOM      5  O   UNL     1      43.329  19.977  18.557  0.00  0.00    -0.389 OA
BRANCH   5   6
ATOM      6  C   UNL     1      42.416  19.977  19.656  0.00  0.00    +0.152 C 
ATOM      7  C   UNL     1      42.836  18.911  20.669  0.00  0.00    +0.049 C 
ENDBRANCH   5   6
ENDBRANCH   4   5
ENDBRANCH   8   4
ENDBRANCH   9   8
ENDBRANCH  13  12
ENDBRANCH  14  13
TORSDOF 9
ENDMDL
MODEL 9
REMARK VINA RESULT:      -4.9      2.941      4.450
REMARK  Name = ZINC95486335
REMARK  14 active torsions:
REMARK  status: ('A' for Active; 'I' for Inactive)
REMARK    1  A    between atoms: C1_1  and  C2_2
REMARK    2  A    between atoms: C2_2  and  O1_3
REMARK    3  A    between atoms: O1_3  and  C3_4
REMARK    4  A    between atoms: C3_4  and  C4_5
REMARK    5  A    between atoms: C3_4  and  O3_27
REMARK    6  A    between atoms: C4_5  and  C5_6
REMARK    7  A    between atoms: C5_6  and  C22_25
REMARK    8  A    between atoms: C6_7  and  C7_8
REMARK    9  A    between atoms: C7_8  and  C8_9
REMARK   10  A    between atoms: C14_17  and  C21_24
REMARK   11  A    between atoms: C18_21  and  C19_22
REMARK   12  A    between atoms: C18_21  and  C20_23
REMARK   13  A    between atoms: O3_27  and  C23_28
REMARK   14  A    between atoms: C23_28  and  C24_29
REMARK                            x       y       z     vdW  Elec       q    Type
REMARK                         _______ _______ _______ _____ _____    ______ ____
ROOT
ATOM     14  C   UNL     1      50.004  19.465  18.048  0.00  0.00    +0.044 C 
ATOM     15  C   UNL     1      51.078  19.839  17.052  0.00  0.00    -0.107 C 
ATOM     16  C   UNL     1      51.527  18.813  16.038  0.00  0.00    +0.049 C 
ATOM     17  C   UNL     1      51.846  17.503  16.770  0.00  0.00    +0.021 C 
ATOM     18  C   UNL     1      50.641  17.108  17.624  0.00  0.00    +0.004 C 
ATOM     19  C   UNL     1      50.729  15.665  18.081  0.00  0.00    -0.049 C 
ATOM     20  C   UNL     1      52.080  15.336  18.715  0.00  0.00    +0.023 C 
ATOM     21  C   UNL     1      50.565  14.751  16.844  0.00  0.00    +0.012 C 
ATOM     22  C   UNL     1      49.600  15.299  19.045  0.00  0.00    +0.011 C 
ATOM     23  C   UNL     1      49.502  16.304  20.187  0.00  0.00    +0.005 C 
ATOM     24  C   UNL     1      49.233  17.695  19.616  0.00  0.00    +0.011 C 
ATOM     25  C   UNL     1      51.607  21.040  17.064  0.00  0.00    -0.007 C 
ATOM     26  C   UNL     1      50.395  18.132  18.721  0.00  0.00    -0.034 C 
ATOM     27  C   UNL     1      51.633  18.384  19.580  0.00  0.00    +0.028 C 
ENDROOT
BRANCH  14  13
ATOM     13  C   UNL     1      49.897  20.563  19.107  0.00  0.00    +0.060 C 
BRANCH  13  12
ATOM      9  C   UNL     1      47.974  21.086  20.554  0.00  0.00    -0.232 C 
ATOM     12  C   UNL     1      48.447  20.918  19.318  0.00  0.00    +0.096 C 
BRANCH   9  10
ATOM     10  C   UNL     1      48.833  20.820  21.708  0.00  0.00    +0.467 C 
ATOM     11  O   UNL     1      48.640  19.837  22.394  0.00  0.00    -0.460 OA
ENDBRANCH   9  10
BRANCH   9   8
ATOM      8  C   UNL     1      46.555  21.549  20.761  0.00  0.00    +0.132 C 
BRANCH   8   4
ATOM      4  C   UNL     1      45.678  21.031  19.620  0.00  0.00    +0.307 C 
BRANCH   4   3
ATOM      3  O   UNL     1      44.798  22.071  19.186  0.00  0.00    -0.386 OA
BRANCH   3   2
ATOM      1  C   UNL     1      44.479  24.458  18.989  0.00  0.00    +0.048 C 
ATOM      2  C   UNL     1      44.990  23.313  19.866  0.00  0.00    +0.146 C 
ENDBRANCH   3   2
ENDBRANCH   4   3
BRANCH   4   5
ATOM      5  O   UNL     1      44.908  19.917  20.079  0.00  0.00    -0.389 OA
BRANCH   5   6
ATOM      6  C   UNL     1      45.415  18.648  19.661  0.00  0.00    +0.152 C 
ATOM      7  C   UNL     1      45.763  18.704  18.172  0.00  0.00    +0.049 C 
ENDBRANCH   5   6
ENDBRANCH   4   5
ENDBRANCH   8   4
ENDBRANCH   9   8
ENDBRANCH  13  12
ENDBRANCH  14  13
TORSDOF 9
ENDMDL
