MODEL 1
REMARK VINA RESULT:      -6.2      0.000      0.000
REMARK  Name = ZINC95485955
REMARK  2 active torsions:
REMARK  status: ('A' for Active; 'I' for Inactive)
REMARK    1  A    between atoms: C1_1  and  O1_2
REMARK    2  A    between atoms: O1_2  and  C2_3
REMARK                            x       y       z     vdW  Elec       q    Type
REMARK                         _______ _______ _______ _____ _____    ______ ____
ROOT
ATOM      3  C   UNL     1      47.216  19.706  21.974  0.00  0.00    +0.176 A 
ATOM      4  C   UNL     1      47.801  20.968  21.980  0.00  0.00    -0.028 A 
ATOM      5  C   UNL     1      47.156  22.073  21.456  0.00  0.00    +0.157 A 
ATOM      6  C   UNL     1      45.885  21.923  20.914  0.00  0.00    -0.172 A 
ATOM      7  C   UNL     1      45.297  20.640  20.908  0.00  0.00    -0.037 A 
ATOM      8  C   UNL     1      43.956  20.508  20.328  0.00  0.00    -0.073 A 
ATOM      9  C   UNL     1      43.381  21.577  19.643  0.00  0.00    +0.155 A 
ATOM     10  O   UNL     1      44.090  22.722  19.476  0.00  0.00    -0.268 OA
ATOM     11  C   UNL     1      42.102  21.408  19.122  0.00  0.00    +0.068 A 
ATOM     12  C   UNL     1      41.440  20.187  19.269  0.00  0.00    +0.072 A 
ATOM     13  O   UNL     1      40.217  20.284  18.666  0.00  0.00    -0.292 OA
ATOM     14  C   UNL     1      39.974  21.695  18.514  0.00  0.00    +0.454 C 
ATOM     15  C   UNL     1      42.035  19.116  19.919  0.00  0.00    +0.134 A 
ATOM     16  O   UNL     1      41.293  22.263  18.432  0.00  0.00    -0.287 OA
ATOM     17  C   UNL     1      43.300  19.268  20.467  0.00  0.00    -0.116 A 
ATOM     18  C   UNL     1      44.015  18.223  21.218  0.00  0.00    +0.541 A 
ATOM     19  O   UNL     1      43.405  17.303  21.729  0.00  0.00    -0.413 OA
ATOM     20  O   UNL     1      45.364  18.304  21.333  0.00  0.00    -0.257 OA
ATOM     21  C   UNL     1      45.086  23.020  20.346  0.00  0.00    +0.541 A 
ATOM     22  O   UNL     1      45.314  24.175  20.653  0.00  0.00    -0.419 OA
ATOM     23  C   UNL     1      45.952  19.523  21.419  0.00  0.00    +0.097 A 
ENDROOT
BRANCH   3   2
ATOM      1  C   UNL     1      48.932  18.080  21.718  0.00  0.00    +0.261 C 
ATOM      2  O   UNL     1      47.883  18.648  22.505  0.00  0.00    -0.292 OA
ENDBRANCH   3   2
TORSDOF 1
ENDMDL
MODEL 2
REMARK VINA RESULT:      -6.0      4.347      7.208
REMARK  Name = ZINC95485955
REMARK  2 active torsions:
REMARK  status: ('A' for Active; 'I' for Inactive)
REMARK    1  A    between atoms: C1_1  and  O1_2
REMARK    2  A    between atoms: O1_2  and  C2_3
REMARK                            x       y       z     vdW  Elec       q    Type
REMARK                         _______ _______ _______ _____ _____    ______ ____
ROOT
ATOM      3  C   UNL     1      43.947  18.173  21.417  0.00  0.00    +0.176 A 
ATOM      4  C   UNL     1      43.699  17.342  22.505  0.00  0.00    -0.028 A 
ATOM      5  C   UNL     1      44.070  16.010  22.505  0.00  0.00    +0.157 A 
ATOM      6  C   UNL     1      44.714  15.486  21.393  0.00  0.00    -0.172 A 
ATOM      7  C   UNL     1      44.961  16.331  20.290  0.00  0.00    -0.037 A 
ATOM      8  C   UNL     1      45.641  15.751  19.125  0.00  0.00    -0.073 A 
ATOM      9  C   UNL     1      45.854  14.376  19.052  0.00  0.00    +0.155 A 
ATOM     10  O   UNL     1      45.387  13.574  20.042  0.00  0.00    -0.268 OA
ATOM     11  C   UNL     1      46.515  13.875  17.935  0.00  0.00    +0.068 A 
ATOM     12  C   UNL     1      46.922  14.738  16.914  0.00  0.00    +0.072 A 
ATOM     13  O   UNL     1      47.533  13.998  15.941  0.00  0.00    -0.292 OA
ATOM     14  C   UNL     1      47.862  12.742  16.563  0.00  0.00    +0.454 C 
ATOM     15  C   UNL     1      46.671  16.101  16.978  0.00  0.00    +0.134 A 
ATOM     16  O   UNL     1      46.873  12.602  17.599  0.00  0.00    -0.287 OA
ATOM     17  C   UNL     1      46.035  16.627  18.093  0.00  0.00    -0.116 A 
ATOM     18  C   UNL     1      45.756  18.057  18.297  0.00  0.00    +0.541 A 
ATOM     19  O   UNL     1      46.390  18.902  17.694  0.00  0.00    -0.413 OA
ATOM     20  O   UNL     1      44.783  18.418  19.170  0.00  0.00    -0.257 OA
ATOM     21  C   UNL     1      45.178  14.094  21.276  0.00  0.00    +0.541 A 
ATOM     22  O   UNL     1      45.373  13.422  22.271  0.00  0.00    -0.419 OA
ATOM     23  C   UNL     1      44.573  17.668  20.280  0.00  0.00    +0.097 A 
ENDROOT
BRANCH   3   2
ATOM      1  C   UNL     1      44.339  20.345  22.298  0.00  0.00    +0.261 C 
ATOM      2  O   UNL     1      43.572  19.477  21.461  0.00  0.00    -0.292 OA
ENDBRANCH   3   2
TORSDOF 1
ENDMDL
MODEL 3
REMARK VINA RESULT:      -5.9      1.355      3.511
REMARK  Name = ZINC95485955
REMARK  2 active torsions:
REMARK  status: ('A' for Active; 'I' for Inactive)
REMARK    1  A    between atoms: C1_1  and  O1_2
REMARK    2  A    between atoms: O1_2  and  C2_3
REMARK                            x       y       z     vdW  Elec       q    Type
REMARK                         _______ _______ _______ _____ _____    ______ ____
ROOT
ATOM      3  C   UNL     1      47.605  20.744  21.550  0.00  0.00    +0.176 A 
ATOM      4  C   UNL     1      47.875  19.380  21.517  0.00  0.00    -0.028 A 
ATOM      5  C   UNL     1      46.963  18.467  21.022  0.00  0.00    +0.157 A 
ATOM      6  C   UNL     1      45.744  18.922  20.535  0.00  0.00    -0.172 A 
ATOM      7  C   UNL     1      45.473  20.307  20.572  0.00  0.00    -0.037 A 
ATOM      8  C   UNL     1      44.177  20.762  20.053  0.00  0.00    -0.073 A 
ATOM      9  C   UNL     1      43.192  19.834  19.721  0.00  0.00    +0.155 A 
ATOM     10  O   UNL     1      43.422  18.512  19.925  0.00  0.00    -0.268 OA
ATOM     11  C   UNL     1      41.985  20.313  19.221  0.00  0.00    +0.068 A 
ATOM     12  C   UNL     1      41.776  21.688  19.089  0.00  0.00    +0.072 A 
ATOM     13  O   UNL     1      40.520  21.887  18.589  0.00  0.00    -0.292 OA
ATOM     14  C   UNL     1      40.122  20.620  18.031  0.00  0.00    +0.454 C 
ATOM     15  C   UNL     1      42.748  22.605  19.458  0.00  0.00    +0.134 A 
ATOM     16  O   UNL     1      40.863  19.658  18.803  0.00  0.00    -0.287 OA
ATOM     17  C   UNL     1      43.969  22.150  19.937  0.00  0.00    -0.116 A 
ATOM     18  C   UNL     1      45.093  23.022  20.316  0.00  0.00    +0.541 A 
ATOM     19  O   UNL     1      45.167  24.157  19.887  0.00  0.00    -0.413 OA
ATOM     20  O   UNL     1      46.045  22.538  21.151  0.00  0.00    -0.257 OA
ATOM     21  C   UNL     1      44.699  18.059  19.962  0.00  0.00    +0.541 A 
ATOM     22  O   UNL     1      44.977  16.956  19.530  0.00  0.00    -0.419 OA
ATOM     23  C   UNL     1      46.383  21.226  21.087  0.00  0.00    +0.097 A 
ENDROOT
BRANCH   3   2
ATOM      1  C   UNL     1      49.886  21.151  22.078  0.00  0.00    +0.261 C 
ATOM      2  O   UNL     1      48.532  21.607  22.039  0.00  0.00    -0.292 OA
ENDBRANCH   3   2
TORSDOF 1
ENDMDL
MODEL 4
REMARK VINA RESULT:      -5.8      0.906      6.449
REMARK  Name = ZINC95485955
REMARK  2 active torsions:
REMARK  status: ('A' for Active; 'I' for Inactive)
REMARK    1  A    between atoms: C1_1  and  O1_2
REMARK    2  A    between atoms: O1_2  and  C2_3
REMARK                            x       y       z     vdW  Elec       q    Type
REMARK                         _______ _______ _______ _____ _____    ______ ____
ROOT
ATOM      3  C   UNL     1      41.550  20.804  19.317  0.00  0.00    +0.176 A 
ATOM      4  C   UNL     1      40.966  19.606  19.717  0.00  0.00    -0.028 A 
ATOM      5  C   UNL     1      41.680  18.642  20.406  0.00  0.00    +0.157 A 
ATOM      6  C   UNL     1      43.014  18.877  20.715  0.00  0.00    -0.172 A 
ATOM      7  C   UNL     1      43.602  20.092  20.304  0.00  0.00    -0.037 A 
ATOM      8  C   UNL     1      45.013  20.315  20.641  0.00  0.00    -0.073 A 
ATOM      9  C   UNL     1      45.777  19.278  21.173  0.00  0.00    +0.155 A 
ATOM     10  O   UNL     1      45.220  18.051  21.334  0.00  0.00    -0.268 OA
ATOM     11  C   UNL     1      47.107  19.541  21.489  0.00  0.00    +0.068 A 
ATOM     12  C   UNL     1      47.649  20.805  21.246  0.00  0.00    +0.072 A 
ATOM     13  O   UNL     1      48.960  20.794  21.634  0.00  0.00    -0.292 OA
ATOM     14  C   UNL     1      49.097  19.647  22.492  0.00  0.00    +0.454 C 
ATOM     15  C   UNL     1      46.891  21.820  20.679  0.00  0.00    +0.134 A 
ATOM     16  O   UNL     1      48.076  18.746  22.027  0.00  0.00    -0.287 OA
ATOM     17  C   UNL     1      45.556  21.588  20.379  0.00  0.00    -0.116 A 
ATOM     18  C   UNL     1      44.641  22.596  19.820  0.00  0.00    +0.541 A 
ATOM     19  O   UNL     1      44.882  23.782  19.937  0.00  0.00    -0.413 OA
ATOM     20  O   UNL     1      43.523  22.181  19.175  0.00  0.00    -0.257 OA
ATOM     21  C   UNL     1      43.874  17.945  21.460  0.00  0.00    +0.541 A 
ATOM     22  O   UNL     1      43.387  17.092  22.177  0.00  0.00    -0.419 OA
ATOM     23  C   UNL     1      42.891  21.057  19.595  0.00  0.00    +0.097 A 
ENDROOT
BRANCH   3   2
ATOM      1  C   UNL     1      39.398  21.517  18.602  0.00  0.00    +0.261 C 
ATOM      2  O   UNL     1      40.811  21.727  18.648  0.00  0.00    -0.292 OA
ENDBRANCH   3   2
TORSDOF 1
ENDMDL
MODEL 5
REMARK VINA RESULT:      -5.5     21.510     23.337
REMARK  Name = ZINC95485955
REMARK  2 active torsions:
REMARK  status: ('A' for Active; 'I' for Inactive)
REMARK    1  A    between atoms: C1_1  and  O1_2
REMARK    2  A    between atoms: O1_2  and  C2_3
REMARK                            x       y       z     vdW  Elec       q    Type
REMARK                         _______ _______ _______ _____ _____    ______ ____
ROOT
ATOM      3  C   UNL     1      53.330  33.614   6.304  0.00  0.00    +0.176 A 
ATOM      4  C   UNL     1      54.710  33.551   6.467  0.00  0.00    -0.028 A 
ATOM      5  C   UNL     1      55.549  33.168   5.437  0.00  0.00    +0.157 A 
ATOM      6  C   UNL     1      55.003  32.843   4.202  0.00  0.00    -0.172 A 
ATOM      7  C   UNL     1      53.602  32.905   4.042  0.00  0.00    -0.037 A 
ATOM      8  C   UNL     1      53.049  32.555   2.728  0.00  0.00    -0.073 A 
ATOM      9  C   UNL     1      53.871  32.000   1.749  0.00  0.00    +0.155 A 
ATOM     10  O   UNL     1      55.173  31.744   2.035  0.00  0.00    -0.268 OA
ATOM     11  C   UNL     1      53.305  31.697   0.515  0.00  0.00    +0.068 A 
ATOM     12  C   UNL     1      51.944  31.923   0.292  0.00  0.00    +0.072 A 
ATOM     13  O   UNL     1      51.646  31.535  -0.984  0.00  0.00    -0.292 OA
ATOM     14  C   UNL     1      52.910  31.459  -1.669  0.00  0.00    +0.454 C 
ATOM     15  C   UNL     1      51.125  32.439   1.286  0.00  0.00    +0.134 A 
ATOM     16  O   UNL     1      53.851  31.171  -0.619  0.00  0.00    -0.287 OA
ATOM     17  C   UNL     1      51.673  32.772   2.517  0.00  0.00    -0.116 A 
ATOM     18  C   UNL     1      50.919  33.369   3.631  0.00  0.00    +0.541 A 
ATOM     19  O   UNL     1      49.872  33.952   3.426  0.00  0.00    -0.413 OA
ATOM     20  O   UNL     1      51.411  33.259   4.890  0.00  0.00    -0.257 OA
ATOM     21  C   UNL     1      55.785  32.443   3.022  0.00  0.00    +0.541 A 
ATOM     22  O   UNL     1      56.963  32.734   2.934  0.00  0.00    -0.419 OA
ATOM     23  C   UNL     1      52.753  33.273   5.083  0.00  0.00    +0.097 A 
ENDROOT
BRANCH   3   2
ATOM      1  C   UNL     1      52.288  35.401   7.474  0.00  0.00    +0.261 C 
ATOM      2  O   UNL     1      52.543  34.001   7.341  0.00  0.00    -0.292 OA
ENDBRANCH   3   2
TORSDOF 1
ENDMDL
MODEL 6
REMARK VINA RESULT:      -5.4      4.790      6.852
REMARK  Name = ZINC95485955
REMARK  2 active torsions:
REMARK  status: ('A' for Active; 'I' for Inactive)
REMARK    1  A    between atoms: C1_1  and  O1_2
REMARK    2  A    between atoms: O1_2  and  C2_3
REMARK                            x       y       z     vdW  Elec       q    Type
REMARK                         _______ _______ _______ _____ _____    ______ ____
ROOT
ATOM      3  C   UNL     1      51.038  19.937  17.788  0.00  0.00    +0.176 A 
ATOM      4  C   UNL     1      50.432  20.928  18.553  0.00  0.00    -0.028 A 
ATOM      5  C   UNL     1      49.234  20.713  19.210  0.00  0.00    +0.157 A 
ATOM      6  C   UNL     1      48.620  19.471  19.111  0.00  0.00    -0.172 A 
ATOM      7  C   UNL     1      49.237  18.469  18.331  0.00  0.00    -0.037 A 
ATOM      8  C   UNL     1      48.567  17.166  18.241  0.00  0.00    -0.073 A 
ATOM      9  C   UNL     1      47.281  17.004  18.752  0.00  0.00    +0.155 A 
ATOM     10  O   UNL     1      46.636  18.070  19.289  0.00  0.00    -0.268 OA
ATOM     11  C   UNL     1      46.692  15.747  18.655  0.00  0.00    +0.068 A 
ATOM     12  C   UNL     1      47.376  14.698  18.036  0.00  0.00    +0.072 A 
ATOM     13  O   UNL     1      46.580  13.587  18.066  0.00  0.00    -0.292 OA
ATOM     14  C   UNL     1      45.582  13.856  19.069  0.00  0.00    +0.454 C 
ATOM     15  C   UNL     1      48.641  14.878  17.496  0.00  0.00    +0.134 A 
ATOM     16  O   UNL     1      45.475  15.291  19.070  0.00  0.00    -0.287 OA
ATOM     17  C   UNL     1      49.258  16.117  17.603  0.00  0.00    -0.116 A 
ATOM     18  C   UNL     1      50.612  16.418  17.113  0.00  0.00    +0.541 A 
ATOM     19  O   UNL     1      51.415  15.524  16.927  0.00  0.00    -0.413 OA
ATOM     20  O   UNL     1      50.951  17.709  16.873  0.00  0.00    -0.257 OA
ATOM     21  C   UNL     1      47.360  19.108  19.777  0.00  0.00    +0.541 A 
ATOM     22  O   UNL     1      46.973  19.728  20.750  0.00  0.00    -0.419 OA
ATOM     23  C   UNL     1      50.434  18.689  17.655  0.00  0.00    +0.097 A 
ENDROOT
BRANCH   3   2
ATOM      1  C   UNL     1      52.156  20.864  15.907  0.00  0.00    +0.261 C 
ATOM      2  O   UNL     1      52.218  20.189  17.165  0.00  0.00    -0.292 OA
ENDBRANCH   3   2
TORSDOF 1
ENDMDL
MODEL 7
REMARK VINA RESULT:      -5.4      3.697      7.191
REMARK  Name = ZINC95485955
REMARK  2 active torsions:
REMARK  status: ('A' for Active; 'I' for Inactive)
REMARK    1  A    between atoms: C1_1  and  O1_2
REMARK    2  A    between atoms: O1_2  and  C2_3
REMARK                            x       y       z     vdW  Elec       q    Type
REMARK                         _______ _______ _______ _____ _____    ______ ____
ROOT
ATOM      3  C   UNL     1      44.731  18.334  20.309  0.00  0.00    +0.176 A 
ATOM      4  C   UNL     1      44.609  16.972  20.051  0.00  0.00    -0.028 A 
ATOM      5  C   UNL     1      45.624  16.250  19.452  0.00  0.00    +0.157 A 
ATOM      6  C   UNL     1      46.803  16.897  19.104  0.00  0.00    -0.172 A 
ATOM      7  C   UNL     1      46.921  18.279  19.365  0.00  0.00    -0.037 A 
ATOM      8  C   UNL     1      48.176  18.939  18.987  0.00  0.00    -0.073 A 
ATOM      9  C   UNL     1      49.124  18.257  18.226  0.00  0.00    +0.155 A 
ATOM     10  O   UNL     1      48.858  16.997  17.800  0.00  0.00    -0.268 OA
ATOM     11  C   UNL     1      50.303  18.921  17.903  0.00  0.00    +0.068 A 
ATOM     12  C   UNL     1      50.501  20.241  18.314  0.00  0.00    +0.072 A 
ATOM     13  O   UNL     1      51.724  20.655  17.863  0.00  0.00    -0.292 OA
ATOM     14  C   UNL     1      52.439  19.450  17.532  0.00  0.00    +0.454 C 
ATOM     15  C   UNL     1      49.536  20.925  19.038  0.00  0.00    +0.134 A 
ATOM     16  O   UNL     1      51.399  18.514  17.199  0.00  0.00    -0.287 OA
ATOM     17  C   UNL     1      48.362  20.276  19.393  0.00  0.00    -0.116 A 
ATOM     18  C   UNL     1      47.286  20.879  20.196  0.00  0.00    +0.541 A 
ATOM     19  O   UNL     1      47.511  21.835  20.913  0.00  0.00    -0.413 OA
ATOM     20  O   UNL     1      46.040  20.349  20.126  0.00  0.00    -0.257 OA
ATOM     21  C   UNL     1      47.964  16.240  18.483  0.00  0.00    +0.541 A 
ATOM     22  O   UNL     1      48.119  15.037  18.580  0.00  0.00    -0.419 OA
ATOM     23  C   UNL     1      45.894  19.012  19.952  0.00  0.00    +0.097 A 
ENDROOT
BRANCH   3   2
ATOM      1  C   UNL     1      42.526  19.205  20.132  0.00  0.00    +0.261 C 
ATOM      2  O   UNL     1      43.711  19.004  20.905  0.00  0.00    -0.292 OA
ENDBRANCH   3   2
TORSDOF 1
ENDMDL
MODEL 8
REMARK VINA RESULT:      -5.3      4.796      6.846
REMARK  Name = ZINC95485955
REMARK  2 active torsions:
REMARK  status: ('A' for Active; 'I' for Inactive)
REMARK    1  A    between atoms: C1_1  and  O1_2
REMARK    2  A    between atoms: O1_2  and  C2_3
REMARK                            x       y       z     vdW  Elec       q    Type
REMARK                         _______ _______ _______ _____ _____    ______ ____
ROOT
ATOM      3  C   UNL     1      48.650  20.484  19.603  0.00  0.00    +0.176 A 
ATOM      4  C   UNL     1      49.892  20.830  19.080  0.00  0.00    -0.028 A 
ATOM      5  C   UNL     1      50.582  19.991  18.223  0.00  0.00    +0.157 A 
ATOM      6  C   UNL     1      50.019  18.772  17.869  0.00  0.00    -0.172 A 
ATOM      7  C   UNL     1      48.761  18.424  18.404  0.00  0.00    -0.037 A 
ATOM      8  C   UNL     1      48.189  17.130  18.015  0.00  0.00    -0.073 A 
ATOM      9  C   UNL     1      48.956  16.212  17.300  0.00  0.00    +0.155 A 
ATOM     10  O   UNL     1      50.248  16.505  17.008  0.00  0.00    -0.268 OA
ATOM     11  C   UNL     1      48.366  15.003  16.942  0.00  0.00    +0.068 A 
ATOM     12  C   UNL     1      47.050  14.726  17.321  0.00  0.00    +0.072 A 
ATOM     13  O   UNL     1      46.721  13.483  16.856  0.00  0.00    -0.292 OA
ATOM     14  C   UNL     1      47.697  13.181  15.842  0.00  0.00    +0.454 C 
ATOM     15  C   UNL     1      46.306  15.629  18.066  0.00  0.00    +0.134 A 
ATOM     16  O   UNL     1      48.853  13.939  16.242  0.00  0.00    -0.287 OA
ATOM     17  C   UNL     1      46.866  16.851  18.414  0.00  0.00    -0.116 A 
ATOM     18  C   UNL     1      46.163  17.907  19.160  0.00  0.00    +0.541 A 
ATOM     19  O   UNL     1      44.948  17.938  19.191  0.00  0.00    -0.413 OA
ATOM     20  O   UNL     1      46.893  18.847  19.810  0.00  0.00    -0.257 OA
ATOM     21  C   UNL     1      50.639  17.802  16.952  0.00  0.00    +0.541 A 
ATOM     22  O   UNL     1      51.487  18.158  16.156  0.00  0.00    -0.419 OA
ATOM     23  C   UNL     1      48.072  19.258  19.280  0.00  0.00    +0.097 A 
ENDROOT
BRANCH   3   2
ATOM      1  C   UNL     1      48.420  21.355  21.803  0.00  0.00    +0.261 C 
ATOM      2  O   UNL     1      48.004  21.340  20.435  0.00  0.00    -0.292 OA
ENDBRANCH   3   2
TORSDOF 1
ENDMDL
MODEL 9
REMARK VINA RESULT:      -5.2      3.579      7.382
REMARK  Name = ZINC95485955
REMARK  2 active torsions:
REMARK  status: ('A' for Active; 'I' for Inactive)
REMARK    1  A    between atoms: C1_1  and  O1_2
REMARK    2  A    between atoms: O1_2  and  C2_3
REMARK                            x       y       z     vdW  Elec       q    Type
REMARK                         _______ _______ _______ _____ _____    ______ ____
ROOT
ATOM      3  C   UNL     1      45.510  21.030  19.699  0.00  0.00    +0.176 A 
ATOM      4  C   UNL     1      44.600  20.281  18.960  0.00  0.00    -0.028 A 
ATOM      5  C   UNL     1      44.990  19.175  18.228  0.00  0.00    +0.157 A 
ATOM      6  C   UNL     1      46.325  18.794  18.235  0.00  0.00    -0.172 A 
ATOM      7  C   UNL     1      47.246  19.558  18.983  0.00  0.00    -0.037 A 
ATOM      8  C   UNL     1      48.651  19.135  18.972  0.00  0.00    -0.073 A 
ATOM      9  C   UNL     1      49.074  18.134  18.099  0.00  0.00    +0.155 A 
ATOM     10  O   UNL     1      48.188  17.588  17.229  0.00  0.00    -0.268 OA
ATOM     11  C   UNL     1      50.413  17.758  18.134  0.00  0.00    +0.068 A 
ATOM     12  C   UNL     1      51.299  18.396  19.007  0.00  0.00    +0.072 A 
ATOM     13  O   UNL     1      52.540  17.850  18.837  0.00  0.00    -0.292 OA
ATOM     14  C   UNL     1      52.321  16.600  18.157  0.00  0.00    +0.454 C 
ATOM     15  C   UNL     1      50.877  19.418  19.845  0.00  0.00    +0.134 A 
ATOM     16  O   UNL     1      51.101  16.818  17.425  0.00  0.00    -0.287 OA
ATOM     17  C   UNL     1      49.541  19.793  19.845  0.00  0.00    -0.116 A 
ATOM     18  C   UNL     1      48.966  20.828  20.719  0.00  0.00    +0.541 A 
ATOM     19  O   UNL     1      49.529  21.152  21.747  0.00  0.00    -0.413 OA
ATOM     20  O   UNL     1      47.796  21.413  20.361  0.00  0.00    -0.257 OA
ATOM     21  C   UNL     1      46.864  17.627  17.518  0.00  0.00    +0.541 A 
ATOM     22  O   UNL     1      46.133  16.711  17.190  0.00  0.00    -0.419 OA
ATOM     23  C   UNL     1      46.859  20.682  19.707  0.00  0.00    +0.097 A 
ENDROOT
BRANCH   3   2
ATOM      1  C   UNL     1      44.199  23.012  19.746  0.00  0.00    +0.261 C 
ATOM      2  O   UNL     1      45.083  22.106  20.409  0.00  0.00    -0.292 OA
ENDBRANCH   3   2
TORSDOF 1
ENDMDL
