MODEL 1
REMARK VINA RESULT:      -6.4      0.000      0.000
REMARK  Name = ZINC06483609
REMARK  9 active torsions:
REMARK  status: ('A' for Active; 'I' for Inactive)
REMARK    1  A    between atoms: C1_1  and  O1_2
REMARK    2  A    between atoms: O1_2  and  C2_3
REMARK    3  A    between atoms: C4_5  and  C9_12
REMARK    4  A    between atoms: C6_7  and  O3_10
REMARK    5  A    between atoms: C7_8  and  O2_9
REMARK    6  A    between atoms: O3_10  and  C8_11
REMARK    7  A    between atoms: C10_13  and  O8_25
REMARK    8  A    between atoms: C13_17  and  O7_24
REMARK    9  A    between atoms: C15_19  and  O6_23
REMARK                            x       y       z     vdW  Elec       q    Type
REMARK                         _______ _______ _______ _____ _____    ______ ____
ROOT
ATOM      6  C   UNL     1      44.011  18.875  20.042  0.00  0.00    +0.113 A 
ATOM      7  C   UNL     1      43.565  18.291  21.190  0.00  0.00    -0.018 A 
ATOM     10  C   UNL     1      43.943  16.956  21.487  0.00  0.00    +0.404 A 
ATOM     11  C   UNL     1      44.812  16.267  20.518  0.00  0.00    -0.311 A 
ATOM     12  C   UNL     1      45.234  14.949  20.730  0.00  0.00    +0.291 A 
ATOM     15  C   UNL     1      46.045  14.334  19.794  0.00  0.00    -0.153 A 
ATOM     16  C   UNL     1      46.441  15.024  18.654  0.00  0.00    +0.268 A 
ATOM     19  C   UNL     1      46.032  16.330  18.440  0.00  0.00    -0.142 A 
ATOM     20  C   UNL     1      45.219  16.964  19.367  0.00  0.00    +0.231 A 
ATOM     21  O   UNL     1      43.565  16.401  22.505  0.00  0.00    -0.453 OA
ATOM     22  O   UNL     1      44.812  18.236  19.173  0.00  0.00    -0.199 OA
ENDROOT
BRANCH   6   5
ATOM      3  C   UNL     1      41.998  21.824  18.875  0.00  0.00    +0.117 A 
ATOM      4  C   UNL     1      42.373  20.522  19.148  0.00  0.00    -0.003 A 
ATOM      5  C   UNL     1      43.607  20.263  19.748  0.00  0.00    -0.012 A 
ATOM     23  C   UNL     1      44.457  21.322  20.077  0.00  0.00    -0.030 A 
ATOM     24  C   UNL     1      44.078  22.623  19.797  0.00  0.00    +0.064 A 
ATOM     27  C   UNL     1      42.848  22.877  19.198  0.00  0.00    +0.125 A 
BRANCH   3   2
ATOM      1  C   UNL     1      39.692  21.265  18.697  0.00  0.00    +0.242 C 
ATOM      2  O   UNL     1      40.796  22.077  18.289  0.00  0.00    -0.300 OA
ENDBRANCH   3   2
BRANCH  24  25
ATOM     25  O   UNL     1      44.907  23.654  20.113  0.00  0.00    -0.321 OA
ATOM     26  C   UNL     1      45.834  23.440  21.179  0.00  0.00    +0.253 C 
ENDBRANCH  24  25
BRANCH  27  28
ATOM     28  O   UNL     1      42.477  24.157  18.929  0.00  0.00    -0.491 OA
ATOM     29  H   UNL     1      42.780  24.971  19.603  0.00  0.00    +0.439 HD
ENDBRANCH  27  28
ENDBRANCH   6   5
BRANCH   7   8
ATOM      8  O   UNL     1      42.764  18.983  22.045  0.00  0.00    -0.480 OA
ATOM      9  H   UNL     1      41.884  18.496  22.491  0.00  0.00    +0.443 HD
ENDBRANCH   7   8
BRANCH  12  13
ATOM     13  O   UNL     1      44.846  14.277  21.845  0.00  0.00    -0.469 OA
ATOM     14  H   UNL     1      44.665  14.825  22.781  0.00  0.00    +0.442 HD
ENDBRANCH  12  13
BRANCH  16  17
ATOM     17  O   UNL     1      47.238  14.411  17.741  0.00  0.00    -0.495 OA
ATOM     18  H   UNL     1      48.002  13.691  18.070  0.00  0.00    +0.446 HD
ENDBRANCH  16  17
TORSDOF 7
ENDMDL
MODEL 2
REMARK VINA RESULT:      -6.4      0.072      2.582
REMARK  Name = ZINC06483609
REMARK  9 active torsions:
REMARK  status: ('A' for Active; 'I' for Inactive)
REMARK    1  A    between atoms: C1_1  and  O1_2
REMARK    2  A    between atoms: O1_2  and  C2_3
REMARK    3  A    between atoms: C4_5  and  C9_12
REMARK    4  A    between atoms: C6_7  and  O3_10
REMARK    5  A    between atoms: C7_8  and  O2_9
REMARK    6  A    between atoms: O3_10  and  C8_11
REMARK    7  A    between atoms: C10_13  and  O8_25
REMARK    8  A    between atoms: C13_17  and  O7_24
REMARK    9  A    between atoms: C15_19  and  O6_23
REMARK                            x       y       z     vdW  Elec       q    Type
REMARK                         _______ _______ _______ _____ _____    ______ ____
ROOT
ATOM      6  C   UNL     1      43.966  18.893  20.063  0.00  0.00    +0.113 A 
ATOM      7  C   UNL     1      43.486  18.305  21.195  0.00  0.00    -0.018 A 
ATOM     10  C   UNL     1      43.858  16.970  21.500  0.00  0.00    +0.404 A 
ATOM     11  C   UNL     1      44.758  16.286  20.558  0.00  0.00    -0.311 A 
ATOM     12  C   UNL     1      45.177  14.968  20.779  0.00  0.00    +0.291 A 
ATOM     15  C   UNL     1      46.017  14.357  19.867  0.00  0.00    -0.153 A 
ATOM     16  C   UNL     1      46.448  15.051  18.742  0.00  0.00    +0.268 A 
ATOM     19  C   UNL     1      46.042  16.357  18.518  0.00  0.00    -0.142 A 
ATOM     20  C   UNL     1      45.199  16.987  19.422  0.00  0.00    +0.231 A 
ATOM     21  O   UNL     1      43.450  16.412  22.505  0.00  0.00    -0.453 OA
ATOM     22  O   UNL     1      44.795  18.258  19.218  0.00  0.00    -0.199 OA
ENDROOT
BRANCH   6   5
ATOM      3  C   UNL     1      44.048  22.639  19.793  0.00  0.00    +0.117 A 
ATOM      4  C   UNL     1      44.423  21.339  20.079  0.00  0.00    -0.003 A 
ATOM      5  C   UNL     1      43.569  20.281  19.761  0.00  0.00    -0.012 A 
ATOM     23  C   UNL     1      42.339  20.539  19.150  0.00  0.00    -0.030 A 
ATOM     24  C   UNL     1      41.966  21.841  18.871  0.00  0.00    +0.064 A 
ATOM     27  C   UNL     1      42.819  22.893  19.189  0.00  0.00    +0.125 A 
BRANCH   3   2
ATOM      1  C   UNL     1      45.845  23.438  21.130  0.00  0.00    +0.242 C 
ATOM      2  O   UNL     1      44.879  23.670  20.103  0.00  0.00    -0.300 OA
ENDBRANCH   3   2
BRANCH  24  25
ATOM     25  O   UNL     1      40.767  22.093  18.281  0.00  0.00    -0.321 OA
ATOM     26  C   UNL     1      39.686  21.219  18.609  0.00  0.00    +0.253 C 
ENDBRANCH  24  25
BRANCH  27  28
ATOM     28  O   UNL     1      42.453  24.172  18.910  0.00  0.00    -0.491 OA
ATOM     29  H   UNL     1      41.448  24.528  19.181  0.00  0.00    +0.439 HD
ENDBRANCH  27  28
ENDBRANCH   6   5
BRANCH   7   8
ATOM      8  O   UNL     1      42.657  18.993  22.027  0.00  0.00    -0.480 OA
ATOM      9  H   UNL     1      43.029  19.877  22.566  0.00  0.00    +0.443 HD
ENDBRANCH   7   8
BRANCH  12  13
ATOM     13  O   UNL     1      44.755  14.292  21.879  0.00  0.00    -0.469 OA
ATOM     14  H   UNL     1      45.479  13.737  22.494  0.00  0.00    +0.442 HD
ENDBRANCH  12  13
BRANCH  16  17
ATOM     17  O   UNL     1      47.274  14.443  17.852  0.00  0.00    -0.495 OA
ATOM     18  H   UNL     1      47.338  13.345  17.821  0.00  0.00    +0.446 HD
ENDBRANCH  16  17
TORSDOF 7
ENDMDL
MODEL 3
REMARK VINA RESULT:      -6.1      1.077      2.869
REMARK  Name = ZINC06483609
REMARK  9 active torsions:
REMARK  status: ('A' for Active; 'I' for Inactive)
REMARK    1  A    between atoms: C1_1  and  O1_2
REMARK    2  A    between atoms: O1_2  and  C2_3
REMARK    3  A    between atoms: C4_5  and  C9_12
REMARK    4  A    between atoms: C6_7  and  O3_10
REMARK    5  A    between atoms: C7_8  and  O2_9
REMARK    6  A    between atoms: O3_10  and  C8_11
REMARK    7  A    between atoms: C10_13  and  O8_25
REMARK    8  A    between atoms: C13_17  and  O7_24
REMARK    9  A    between atoms: C15_19  and  O6_23
REMARK                            x       y       z     vdW  Elec       q    Type
REMARK                         _______ _______ _______ _____ _____    ______ ____
ROOT
ATOM      6  C   UNL     1      44.713  18.476  19.481  0.00  0.00    +0.113 A 
ATOM      7  C   UNL     1      44.424  17.672  20.543  0.00  0.00    -0.018 A 
ATOM     10  C   UNL     1      44.847  16.318  20.529  0.00  0.00    +0.404 A 
ATOM     11  C   UNL     1      45.586  15.851  19.345  0.00  0.00    -0.311 A 
ATOM     12  C   UNL     1      46.041  14.530  19.245  0.00  0.00    +0.291 A 
ATOM     15  C   UNL     1      46.725  14.129  18.113  0.00  0.00    -0.153 A 
ATOM     16  C   UNL     1      46.965  15.033  17.085  0.00  0.00    +0.268 A 
ATOM     19  C   UNL     1      46.523  16.343  17.178  0.00  0.00    -0.142 A 
ATOM     20  C   UNL     1      45.834  16.765  18.306  0.00  0.00    +0.231 A 
ATOM     21  O   UNL     1      44.609  15.569  21.462  0.00  0.00    -0.453 OA
ATOM     22  O   UNL     1      45.397  18.038  18.411  0.00  0.00    -0.199 OA
ENDROOT
BRANCH   6   5
ATOM      3  C   UNL     1      44.716  22.201  19.966  0.00  0.00    +0.117 A 
ATOM      4  C   UNL     1      45.138  20.885  19.939  0.00  0.00    -0.003 A 
ATOM      5  C   UNL     1      44.266  19.881  19.512  0.00  0.00    -0.012 A 
ATOM     23  C   UNL     1      42.969  20.211  19.108  0.00  0.00    -0.030 A 
ATOM     24  C   UNL     1      42.551  21.529  19.142  0.00  0.00    +0.064 A 
ATOM     27  C   UNL     1      43.422  22.526  19.568  0.00  0.00    +0.125 A 
BRANCH   3   2
ATOM      1  C   UNL     1      46.388  22.884  21.514  0.00  0.00    +0.242 C 
ATOM      2  O   UNL     1      45.565  23.178  20.382  0.00  0.00    -0.300 OA
ENDBRANCH   3   2
BRANCH  24  25
ATOM     25  O   UNL     1      41.288  21.851  18.753  0.00  0.00    -0.321 OA
ATOM     26  C   UNL     1      40.445  20.777  18.331  0.00  0.00    +0.253 C 
ENDBRANCH  24  25
BRANCH  27  28
ATOM     28  O   UNL     1      43.009  23.822  19.596  0.00  0.00    -0.491 OA
ATOM     29  H   UNL     1      42.051  24.083  20.068  0.00  0.00    +0.439 HD
ENDBRANCH  27  28
ENDBRANCH   6   5
BRANCH   7   8
ATOM      8  O   UNL     1      43.738  18.165  21.610  0.00  0.00    -0.480 OA
ATOM      9  H   UNL     1      44.059  19.104  22.085  0.00  0.00    +0.443 HD
ENDBRANCH   7   8
BRANCH  12  13
ATOM     13  O   UNL     1      45.806  13.649  20.250  0.00  0.00    -0.469 OA
ATOM     14  H   UNL     1      46.635  13.306  20.885  0.00  0.00    +0.442 HD
ENDBRANCH  12  13
BRANCH  16  17
ATOM     17  O   UNL     1      47.640  14.629  15.977  0.00  0.00    -0.495 OA
ATOM     18  H   UNL     1      48.350  15.310  15.486  0.00  0.00    +0.446 HD
ENDBRANCH  16  17
TORSDOF 7
ENDMDL
MODEL 4
REMARK VINA RESULT:      -6.0      2.305      6.674
REMARK  Name = ZINC06483609
REMARK  9 active torsions:
REMARK  status: ('A' for Active; 'I' for Inactive)
REMARK    1  A    between atoms: C1_1  and  O1_2
REMARK    2  A    between atoms: O1_2  and  C2_3
REMARK    3  A    between atoms: C4_5  and  C9_12
REMARK    4  A    between atoms: C6_7  and  O3_10
REMARK    5  A    between atoms: C7_8  and  O2_9
REMARK    6  A    between atoms: O3_10  and  C8_11
REMARK    7  A    between atoms: C10_13  and  O8_25
REMARK    8  A    between atoms: C13_17  and  O7_24
REMARK    9  A    between atoms: C15_19  and  O6_23
REMARK                            x       y       z     vdW  Elec       q    Type
REMARK                         _______ _______ _______ _____ _____    ______ ____
ROOT
ATOM      6  C   UNL     1      44.694  18.540  19.302  0.00  0.00    +0.113 A 
ATOM      7  C   UNL     1      44.283  17.970  20.470  0.00  0.00    -0.018 A 
ATOM     10  C   UNL     1      43.014  18.311  21.006  0.00  0.00    +0.404 A 
ATOM     11  C   UNL     1      42.200  19.281  20.255  0.00  0.00    -0.311 A 
ATOM     12  C   UNL     1      40.936  19.676  20.710  0.00  0.00    +0.291 A 
ATOM     15  C   UNL     1      40.205  20.594  19.979  0.00  0.00    -0.153 A 
ATOM     16  C   UNL     1      40.721  21.116  18.798  0.00  0.00    +0.268 A 
ATOM     19  C   UNL     1      41.969  20.726  18.339  0.00  0.00    -0.142 A 
ATOM     20  C   UNL     1      42.717  19.806  19.057  0.00  0.00    +0.231 A 
ATOM     21  O   UNL     1      42.612  17.819  22.047  0.00  0.00    -0.453 OA
ATOM     22  O   UNL     1      43.934  19.417  18.623  0.00  0.00    -0.199 OA
ENDROOT
BRANCH   6   5
ATOM      3  C   UNL     1      48.370  18.615  18.538  0.00  0.00    +0.117 A 
ATOM      4  C   UNL     1      47.133  18.961  19.048  0.00  0.00    -0.003 A 
ATOM      5  C   UNL     1      46.015  18.175  18.760  0.00  0.00    -0.012 A 
ATOM     23  C   UNL     1      46.153  17.036  17.961  0.00  0.00    -0.030 A 
ATOM     24  C   UNL     1      47.392  16.697  17.450  0.00  0.00    +0.064 A 
ATOM     27  C   UNL     1      48.504  17.483  17.738  0.00  0.00    +0.125 A 
BRANCH   3   2
ATOM      1  C   UNL     1      49.223  20.759  19.119  0.00  0.00    +0.242 C 
ATOM      2  O   UNL     1      49.459  19.381  18.817  0.00  0.00    -0.300 OA
ENDBRANCH   3   2
BRANCH  24  25
ATOM     25  O   UNL     1      47.526  15.591  16.670  0.00  0.00    -0.321 OA
ATOM     26  C   UNL     1      46.777  14.435  17.048  0.00  0.00    +0.253 C 
ENDBRANCH  24  25
BRANCH  27  28
ATOM     28  O   UNL     1      49.722  17.145  17.238  0.00  0.00    -0.491 OA
ATOM     29  H   UNL     1      50.108  17.652  16.342  0.00  0.00    +0.439 HD
ENDBRANCH  27  28
ENDBRANCH   6   5
BRANCH   7   8
ATOM      8  O   UNL     1      45.082  17.078  21.116  0.00  0.00    -0.480 OA
ATOM      9  H   UNL     1      44.730  16.051  21.294  0.00  0.00    +0.443 HD
ENDBRANCH   7   8
BRANCH  12  13
ATOM     13  O   UNL     1      40.434  19.165  21.863  0.00  0.00    -0.469 OA
ATOM     14  H   UNL     1      39.933  18.186  21.858  0.00  0.00    +0.442 HD
ENDBRANCH  12  13
BRANCH  16  17
ATOM     17  O   UNL     1      39.995  22.017  18.087  0.00  0.00    -0.495 OA
ATOM     18  H   UNL     1      39.893  23.050  18.449  0.00  0.00    +0.446 HD
ENDBRANCH  16  17
TORSDOF 7
ENDMDL
MODEL 5
REMARK VINA RESULT:      -6.0      1.450      7.410
REMARK  Name = ZINC06483609
REMARK  9 active torsions:
REMARK  status: ('A' for Active; 'I' for Inactive)
REMARK    1  A    between atoms: C1_1  and  O1_2
REMARK    2  A    between atoms: O1_2  and  C2_3
REMARK    3  A    between atoms: C4_5  and  C9_12
REMARK    4  A    between atoms: C6_7  and  O3_10
REMARK    5  A    between atoms: C7_8  and  O2_9
REMARK    6  A    between atoms: O3_10  and  C8_11
REMARK    7  A    between atoms: C10_13  and  O8_25
REMARK    8  A    between atoms: C13_17  and  O7_24
REMARK    9  A    between atoms: C15_19  and  O6_23
REMARK                            x       y       z     vdW  Elec       q    Type
REMARK                         _______ _______ _______ _____ _____    ______ ____
ROOT
ATOM      6  C   UNL     1      44.816  18.762  19.364  0.00  0.00    +0.113 A 
ATOM      7  C   UNL     1      45.701  19.690  19.823  0.00  0.00    -0.018 A 
ATOM     10  C   UNL     1      45.308  21.051  19.904  0.00  0.00    +0.404 A 
ATOM     11  C   UNL     1      43.940  21.387  19.477  0.00  0.00    -0.311 A 
ATOM     12  C   UNL     1      43.467  22.704  19.523  0.00  0.00    +0.291 A 
ATOM     15  C   UNL     1      42.177  22.980  19.107  0.00  0.00    -0.153 A 
ATOM     16  C   UNL     1      41.356  21.954  18.654  0.00  0.00    +0.268 A 
ATOM     19  C   UNL     1      41.815  20.647  18.611  0.00  0.00    -0.142 A 
ATOM     20  C   UNL     1      43.105  20.350  19.023  0.00  0.00    +0.231 A 
ATOM     21  O   UNL     1      46.073  21.910  20.312  0.00  0.00    -0.453 OA
ATOM     22  O   UNL     1      43.566  19.083  18.988  0.00  0.00    -0.199 OA
ENDROOT
BRANCH   6   5
ATOM      3  C   UNL     1      46.315  15.563  18.087  0.00  0.00    +0.117 A 
ATOM      4  C   UNL     1      45.916  16.885  18.156  0.00  0.00    -0.003 A 
ATOM      5  C   UNL     1      45.241  17.352  19.286  0.00  0.00    -0.012 A 
ATOM     23  C   UNL     1      44.976  16.482  20.347  0.00  0.00    -0.030 A 
ATOM     24  C   UNL     1      45.372  15.159  20.271  0.00  0.00    +0.064 A 
ATOM     27  C   UNL     1      46.044  14.697  19.143  0.00  0.00    +0.125 A 
BRANCH   3   2
ATOM      1  C   UNL     1      48.398  15.056  17.056  0.00  0.00    +0.242 C 
ATOM      2  O   UNL     1      46.971  15.107  16.986  0.00  0.00    -0.300 OA
ENDBRANCH   3   2
BRANCH  24  25
ATOM     25  O   UNL     1      45.110  14.311  21.301  0.00  0.00    -0.321 OA
ATOM     26  C   UNL     1      45.858  14.499  22.503  0.00  0.00    +0.253 C 
ENDBRANCH  24  25
BRANCH  27  28
ATOM     28  O   UNL     1      46.436  13.397  19.072  0.00  0.00    -0.491 OA
ATOM     29  H   UNL     1      47.461  13.116  19.357  0.00  0.00    +0.439 HD
ENDBRANCH  27  28
ENDBRANCH   6   5
BRANCH   7   8
ATOM      8  O   UNL     1      46.953  19.315  20.204  0.00  0.00    -0.480 OA
ATOM      9  H   UNL     1      47.821  19.933  19.930  0.00  0.00    +0.443 HD
ENDBRANCH   7   8
BRANCH  12  13
ATOM     13  O   UNL     1      44.271  23.705  19.966  0.00  0.00    -0.469 OA
ATOM     14  H   UNL     1      44.537  24.533  19.295  0.00  0.00    +0.442 HD
ENDBRANCH  12  13
BRANCH  16  17
ATOM     17  O   UNL     1      40.090  22.236  18.248  0.00  0.00    -0.495 OA
ATOM     18  H   UNL     1      39.678  23.245  18.390  0.00  0.00    +0.446 HD
ENDBRANCH  16  17
TORSDOF 7
ENDMDL
MODEL 6
REMARK VINA RESULT:      -6.0      2.418      6.255
REMARK  Name = ZINC06483609
REMARK  9 active torsions:
REMARK  status: ('A' for Active; 'I' for Inactive)
REMARK    1  A    between atoms: C1_1  and  O1_2
REMARK    2  A    between atoms: O1_2  and  C2_3
REMARK    3  A    between atoms: C4_5  and  C9_12
REMARK    4  A    between atoms: C6_7  and  O3_10
REMARK    5  A    between atoms: C7_8  and  O2_9
REMARK    6  A    between atoms: O3_10  and  C8_11
REMARK    7  A    between atoms: C10_13  and  O8_25
REMARK    8  A    between atoms: C13_17  and  O7_24
REMARK    9  A    between atoms: C15_19  and  O6_23
REMARK                            x       y       z     vdW  Elec       q    Type
REMARK                         _______ _______ _______ _____ _____    ______ ____
ROOT
ATOM      6  C   UNL     1      44.793  18.689  19.441  0.00  0.00    +0.113 A 
ATOM      7  C   UNL     1      44.350  18.083  20.578  0.00  0.00    -0.018 A 
ATOM     10  C   UNL     1      43.046  18.369  21.060  0.00  0.00    +0.404 A 
ATOM     11  C   UNL     1      42.234  19.323  20.288  0.00  0.00    -0.311 A 
ATOM     12  C   UNL     1      40.936  19.665  20.689  0.00  0.00    +0.291 A 
ATOM     15  C   UNL     1      40.207  20.570  19.941  0.00  0.00    -0.153 A 
ATOM     16  C   UNL     1      40.758  21.132  18.795  0.00  0.00    +0.268 A 
ATOM     19  C   UNL     1      42.039  20.795  18.388  0.00  0.00    -0.142 A 
ATOM     20  C   UNL     1      42.786  19.889  19.125  0.00  0.00    +0.231 A 
ATOM     21  O   UNL     1      42.614  17.844  22.073  0.00  0.00    -0.453 OA
ATOM     22  O   UNL     1      44.035  19.551  18.742  0.00  0.00    -0.199 OA
ENDROOT
BRANCH   6   5
ATOM      3  C   UNL     1      47.628  17.033  17.616  0.00  0.00    +0.117 A 
ATOM      4  C   UNL     1      46.354  17.319  18.071  0.00  0.00    -0.003 A 
ATOM      5  C   UNL     1      46.150  18.381  18.955  0.00  0.00    -0.012 A 
ATOM     23  C   UNL     1      47.236  19.155  19.374  0.00  0.00    -0.030 A 
ATOM     24  C   UNL     1      48.509  18.861  18.919  0.00  0.00    +0.064 A 
ATOM     27  C   UNL     1      48.708  17.802  18.039  0.00  0.00    +0.125 A 
BRANCH   3   2
ATOM      1  C   UNL     1      46.853  14.951  16.764  0.00  0.00    +0.242 C 
ATOM      2  O   UNL     1      47.826  15.998  16.756  0.00  0.00    -0.300 OA
ENDBRANCH   3   2
BRANCH  24  25
ATOM     25  O   UNL     1      49.567  19.612  19.330  0.00  0.00    -0.321 OA
ATOM     26  C   UNL     1      49.741  20.885  18.706  0.00  0.00    +0.253 C 
ENDBRANCH  24  25
BRANCH  27  28
ATOM     28  O   UNL     1      49.960  17.519  17.591  0.00  0.00    -0.491 OA
ATOM     29  H   UNL     1      50.836  17.955  18.093  0.00  0.00    +0.439 HD
ENDBRANCH  27  28
ENDBRANCH   6   5
BRANCH   7   8
ATOM      8  O   UNL     1      45.150  17.208  21.246  0.00  0.00    -0.480 OA
ATOM      9  H   UNL     1      44.764  16.219  21.535  0.00  0.00    +0.443 HD
ENDBRANCH   7   8
BRANCH  12  13
ATOM     13  O   UNL     1      40.400  19.115  21.809  0.00  0.00    -0.469 OA
ATOM     14  H   UNL     1      40.623  18.070  22.069  0.00  0.00    +0.442 HD
ENDBRANCH  12  13
BRANCH  16  17
ATOM     17  O   UNL     1      40.033  22.020  18.066  0.00  0.00    -0.495 OA
ATOM     18  H   UNL     1      38.962  21.843  17.889  0.00  0.00    +0.446 HD
ENDBRANCH  16  17
TORSDOF 7
ENDMDL
MODEL 7
REMARK VINA RESULT:      -5.9      1.447      7.371
REMARK  Name = ZINC06483609
REMARK  9 active torsions:
REMARK  status: ('A' for Active; 'I' for Inactive)
REMARK    1  A    between atoms: C1_1  and  O1_2
REMARK    2  A    between atoms: O1_2  and  C2_3
REMARK    3  A    between atoms: C4_5  and  C9_12
REMARK    4  A    between atoms: C6_7  and  O3_10
REMARK    5  A    between atoms: C7_8  and  O2_9
REMARK    6  A    between atoms: O3_10  and  C8_11
REMARK    7  A    between atoms: C10_13  and  O8_25
REMARK    8  A    between atoms: C13_17  and  O7_24
REMARK    9  A    between atoms: C15_19  and  O6_23
REMARK                            x       y       z     vdW  Elec       q    Type
REMARK                         _______ _______ _______ _____ _____    ______ ____
ROOT
ATOM      6  C   UNL     1      44.943  18.688  19.425  0.00  0.00    +0.113 A 
ATOM      7  C   UNL     1      45.842  19.591  19.910  0.00  0.00    -0.018 A 
ATOM     10  C   UNL     1      45.476  20.959  20.002  0.00  0.00    +0.404 A 
ATOM     11  C   UNL     1      44.122  21.329  19.559  0.00  0.00    -0.311 A 
ATOM     12  C   UNL     1      43.677  22.656  19.614  0.00  0.00    +0.291 A 
ATOM     15  C   UNL     1      42.400  22.965  19.183  0.00  0.00    -0.153 A 
ATOM     16  C   UNL     1      41.563  21.963  18.704  0.00  0.00    +0.268 A 
ATOM     19  C   UNL     1      41.995  20.647  18.652  0.00  0.00    -0.142 A 
ATOM     20  C   UNL     1      43.272  20.317  19.080  0.00  0.00    +0.231 A 
ATOM     21  O   UNL     1      46.253  21.796  20.433  0.00  0.00    -0.453 OA
ATOM     22  O   UNL     1      43.707  19.041  19.035  0.00  0.00    -0.199 OA
ENDROOT
BRANCH   6   5
ATOM      3  C   UNL     1      45.382  15.056  20.277  0.00  0.00    +0.117 A 
ATOM      4  C   UNL     1      45.010  16.385  20.365  0.00  0.00    -0.003 A 
ATOM      5  C   UNL     1      45.340  17.271  19.336  0.00  0.00    -0.012 A 
ATOM     23  C   UNL     1      46.041  16.809  18.219  0.00  0.00    -0.030 A 
ATOM     24  C   UNL     1      46.415  15.480  18.139  0.00  0.00    +0.064 A 
ATOM     27  C   UNL     1      46.086  14.600  19.165  0.00  0.00    +0.125 A 
BRANCH   3   2
ATOM      1  C   UNL     1      45.787  14.324  22.504  0.00  0.00    +0.242 C 
ATOM      2  O   UNL     1      45.063  14.193  21.279  0.00  0.00    -0.300 OA
ENDBRANCH   3   2
BRANCH  24  25
ATOM     25  O   UNL     1      47.101  15.032  17.053  0.00  0.00    -0.321 OA
ATOM     26  C   UNL     1      48.482  15.389  16.965  0.00  0.00    +0.253 C 
ENDBRANCH  24  25
BRANCH  27  28
ATOM     28  O   UNL     1      46.451  13.294  19.082  0.00  0.00    -0.491 OA
ATOM     29  H   UNL     1      46.381  12.763  18.121  0.00  0.00    +0.439 HD
ENDBRANCH  27  28
ENDBRANCH   6   5
BRANCH   7   8
ATOM      8  O   UNL     1      47.079  19.184  20.305  0.00  0.00    -0.480 OA
ATOM      9  H   UNL     1      47.876  19.925  20.467  0.00  0.00    +0.443 HD
ENDBRANCH   7   8
BRANCH  12  13
ATOM     13  O   UNL     1      44.495  23.633  20.083  0.00  0.00    -0.469 OA
ATOM     14  H   UNL     1      45.257  23.396  20.839  0.00  0.00    +0.442 HD
ENDBRANCH  12  13
BRANCH  16  17
ATOM     17  O   UNL     1      40.311  22.276  18.284  0.00  0.00    -0.495 OA
ATOM     18  H   UNL     1      39.488  21.559  18.420  0.00  0.00    +0.446 HD
ENDBRANCH  16  17
TORSDOF 7
ENDMDL
MODEL 8
REMARK VINA RESULT:      -5.8      3.570      5.684
REMARK  Name = ZINC06483609
REMARK  9 active torsions:
REMARK  status: ('A' for Active; 'I' for Inactive)
REMARK    1  A    between atoms: C1_1  and  O1_2
REMARK    2  A    between atoms: O1_2  and  C2_3
REMARK    3  A    between atoms: C4_5  and  C9_12
REMARK    4  A    between atoms: C6_7  and  O3_10
REMARK    5  A    between atoms: C7_8  and  O2_9
REMARK    6  A    between atoms: O3_10  and  C8_11
REMARK    7  A    between atoms: C10_13  and  O8_25
REMARK    8  A    between atoms: C13_17  and  O7_24
REMARK    9  A    between atoms: C15_19  and  O6_23
REMARK                            x       y       z     vdW  Elec       q    Type
REMARK                         _______ _______ _______ _____ _____    ______ ____
ROOT
ATOM      6  C   UNL     1      46.757  18.966  19.035  0.00  0.00    +0.113 A 
ATOM      7  C   UNL     1      47.022  17.862  18.281  0.00  0.00    -0.018 A 
ATOM     10  C   UNL     1      48.319  17.684  17.734  0.00  0.00    +0.404 A 
ATOM     11  C   UNL     1      49.322  18.723  18.017  0.00  0.00    -0.311 A 
ATOM     12  C   UNL     1      50.627  18.630  17.518  0.00  0.00    +0.291 A 
ATOM     15  C   UNL     1      51.538  19.631  17.801  0.00  0.00    -0.153 A 
ATOM     16  C   UNL     1      51.161  20.718  18.581  0.00  0.00    +0.268 A 
ATOM     19  C   UNL     1      49.873  20.814  19.084  0.00  0.00    -0.142 A 
ATOM     20  C   UNL     1      48.945  19.821  18.811  0.00  0.00    +0.231 A 
ATOM     21  O   UNL     1      48.593  16.707  17.056  0.00  0.00    -0.453 OA
ATOM     22  O   UNL     1      47.687  19.901  19.293  0.00  0.00    -0.199 OA
ENDROOT
BRANCH   6   5
ATOM      3  C   UNL     1      43.789  18.668  21.318  0.00  0.00    +0.117 A 
ATOM      4  C   UNL     1      45.059  18.506  20.794  0.00  0.00    -0.003 A 
ATOM      5  C   UNL     1      45.404  19.135  19.596  0.00  0.00    -0.012 A 
ATOM     23  C   UNL     1      44.466  19.930  18.932  0.00  0.00    -0.030 A 
ATOM     24  C   UNL     1      43.196  20.084  19.458  0.00  0.00    +0.064 A 
ATOM     27  C   UNL     1      42.855  19.456  20.651  0.00  0.00    +0.125 A 
BRANCH   3   2
ATOM      1  C   UNL     1      43.316  16.632  22.454  0.00  0.00    +0.242 C 
ATOM      2  O   UNL     1      43.452  18.055  22.484  0.00  0.00    -0.300 OA
ENDBRANCH   3   2
BRANCH  24  25
ATOM     25  O   UNL     1      42.282  20.855  18.809  0.00  0.00    -0.321 OA
ATOM     26  C   UNL     1      41.261  20.174  18.078  0.00  0.00    +0.253 C 
ENDBRANCH  24  25
BRANCH  27  28
ATOM     28  O   UNL     1      41.608  19.613  21.168  0.00  0.00    -0.491 OA
ATOM     29  H   UNL     1      40.777  18.994  20.798  0.00  0.00    +0.439 HD
ENDBRANCH  27  28
ENDBRANCH   6   5
BRANCH   7   8
ATOM      8  O   UNL     1      46.050  16.935  18.057  0.00  0.00    -0.480 OA
ATOM      9  H   UNL     1      45.768  16.229  18.852  0.00  0.00    +0.443 HD
ENDBRANCH   7   8
BRANCH  12  13
ATOM     13  O   UNL     1      50.993  17.568  16.755  0.00  0.00    -0.469 OA
ATOM     14  H   UNL     1      51.696  16.822  17.154  0.00  0.00    +0.442 HD
ENDBRANCH  12  13
BRANCH  16  17
ATOM     17  O   UNL     1      52.064  21.695  18.855  0.00  0.00    -0.495 OA
ATOM     18  H   UNL     1      53.141  21.486  18.779  0.00  0.00    +0.446 HD
ENDBRANCH  16  17
TORSDOF 7
ENDMDL
MODEL 9
REMARK VINA RESULT:      -5.4      4.429      7.820
REMARK  Name = ZINC06483609
REMARK  9 active torsions:
REMARK  status: ('A' for Active; 'I' for Inactive)
REMARK    1  A    between atoms: C1_1  and  O1_2
REMARK    2  A    between atoms: O1_2  and  C2_3
REMARK    3  A    between atoms: C4_5  and  C9_12
REMARK    4  A    between atoms: C6_7  and  O3_10
REMARK    5  A    between atoms: C7_8  and  O2_9
REMARK    6  A    between atoms: O3_10  and  C8_11
REMARK    7  A    between atoms: C10_13  and  O8_25
REMARK    8  A    between atoms: C13_17  and  O7_24
REMARK    9  A    between atoms: C15_19  and  O6_23
REMARK                            x       y       z     vdW  Elec       q    Type
REMARK                         _______ _______ _______ _____ _____    ______ ____
ROOT
ATOM      6  C   UNL     1      48.154  20.471  19.931  0.00  0.00    +0.113 A 
ATOM      7  C   UNL     1      48.178  21.330  20.989  0.00  0.00    -0.018 A 
ATOM     10  C   UNL     1      46.981  21.976  21.392  0.00  0.00    +0.404 A 
ATOM     11  C   UNL     1      45.759  21.676  20.628  0.00  0.00    -0.311 A 
ATOM     12  C   UNL     1      44.534  22.269  20.955  0.00  0.00    +0.291 A 
ATOM     15  C   UNL     1      43.409  21.967  20.209  0.00  0.00    -0.153 A 
ATOM     16  C   UNL     1      43.497  21.075  19.145  0.00  0.00    +0.268 A 
ATOM     19  C   UNL     1      44.705  20.481  18.819  0.00  0.00    -0.142 A 
ATOM     20  C   UNL     1      45.844  20.771  19.555  0.00  0.00    +0.231 A 
ATOM     21  O   UNL     1      46.964  22.749  22.336  0.00  0.00    -0.453 OA
ATOM     22  O   UNL     1      47.027  20.200  19.249  0.00  0.00    -0.199 OA
ENDROOT
BRANCH   6   5
ATOM      3  C   UNL     1      50.907  17.931  19.654  0.00  0.00    +0.117 A 
ATOM      4  C   UNL     1      49.731  18.550  20.038  0.00  0.00    -0.003 A 
ATOM      5  C   UNL     1      49.407  19.808  19.525  0.00  0.00    -0.012 A 
ATOM     23  C   UNL     1      50.269  20.435  18.621  0.00  0.00    -0.030 A 
ATOM     24  C   UNL     1      51.445  19.813  18.245  0.00  0.00    +0.064 A 
ATOM     27  C   UNL     1      51.766  18.560  18.758  0.00  0.00    +0.125 A 
BRANCH   3   2
ATOM      1  C   UNL     1      50.407  15.606  19.745  0.00  0.00    +0.242 C 
ATOM      2  O   UNL     1      51.224  16.706  20.154  0.00  0.00    -0.300 OA
ENDBRANCH   3   2
BRANCH  24  25
ATOM     25  O   UNL     1      52.287  20.424  17.369  0.00  0.00    -0.321 OA
ATOM     26  C   UNL     1      51.691  21.099  16.260  0.00  0.00    +0.253 C 
ENDBRANCH  24  25
BRANCH  27  28
ATOM     28  O   UNL     1      52.922  17.949  18.383  0.00  0.00    -0.491 OA
ATOM     29  H   UNL     1      52.888  16.972  17.878  0.00  0.00    +0.439 HD
ENDBRANCH  27  28
ENDBRANCH   6   5
BRANCH   7   8
ATOM      8  O   UNL     1      49.341  21.563  21.656  0.00  0.00    -0.480 OA
ATOM      9  H   UNL     1      50.136  20.802  21.661  0.00  0.00    +0.443 HD
ENDBRANCH   7   8
BRANCH  12  13
ATOM     13  O   UNL     1      44.451  23.139  21.994  0.00  0.00    -0.469 OA
ATOM     14  H   UNL     1      44.004  22.817  22.946  0.00  0.00    +0.442 HD
ENDBRANCH  12  13
BRANCH  16  17
ATOM     17  O   UNL     1      42.387  20.784  18.419  0.00  0.00    -0.495 OA
ATOM     18  H   UNL     1      41.615  21.552  18.261  0.00  0.00    +0.446 HD
ENDBRANCH  16  17
TORSDOF 7
ENDMDL
