MODEL 1
REMARK VINA RESULT:      -6.1      0.000      0.000
REMARK  Name = ZINC00058188
REMARK  5 active torsions:
REMARK  status: ('A' for Active; 'I' for Inactive)
REMARK    1  A    between atoms: C1_1  and  O1_2
REMARK    2  A    between atoms: O1_2  and  C2_3
REMARK    3  A    between atoms: C9_11  and  C10_12
REMARK    4  A    between atoms: C11_14  and  C12_15
REMARK    5  A    between atoms: C12_15  and  C13_16
REMARK                            x       y       z     vdW  Elec       q    Type
REMARK                         _______ _______ _______ _____ _____    ______ ____
ROOT
ATOM      3  C   UNL     1      45.374  17.711  19.857  0.00  0.00    +0.175 A 
ATOM      4  C   UNL     1      44.169  18.172  20.393  0.00  0.00    -0.170 A 
ATOM      5  C   UNL     1      43.272  17.698  21.454  0.00  0.00    -0.038 A 
ATOM      6  C   UNL     1      42.261  18.575  21.506  0.00  0.00    +0.190 A 
ATOM      7  O   UNL     1      42.438  19.542  20.588  0.00  0.00    -0.198 OA
ATOM      8  C   UNL     1      43.575  19.342  19.892  0.00  0.00    +0.060 A 
ATOM      9  C   UNL     1      44.195  20.040  18.857  0.00  0.00    -0.002 A 
ATOM     10  C   UNL     1      45.370  19.597  18.331  0.00  0.00    +0.093 A 
ATOM     11  C   UNL     1      45.982  18.433  18.822  0.00  0.00    -0.113 A 
ENDROOT
BRANCH  11  12
ATOM     12  C   UNL     1      47.254  17.969  18.247  0.00  0.00    +0.328 C 
ATOM     13  O   UNL     1      47.266  17.337  17.053  0.00  0.00    -0.606 OA
ATOM     14  C   UNL     1      48.424  18.178  18.920  0.00  0.00    -0.432 C 
BRANCH  14  15
ATOM     15  C   UNL     1      49.650  17.841  18.322  0.00  0.00    +0.404 C 
ATOM     16  O   UNL     1      50.066  16.696  18.386  0.00  0.00    -0.513 OA
BRANCH  15  17
ATOM     17  C   UNL     1      50.437  18.874  17.612  0.00  0.00    -0.115 A 
ATOM     18  C   UNL     1      50.511  20.171  18.122  0.00  0.00    +0.039 A 
ATOM     19  C   UNL     1      51.247  21.130  17.456  0.00  0.00    -0.022 A 
ATOM     20  C   UNL     1      51.911  20.808  16.287  0.00  0.00    -0.013 A 
ATOM     21  C   UNL     1      51.842  19.523  15.775  0.00  0.00    -0.021 A 
ATOM     22  C   UNL     1      51.114  18.554  16.434  0.00  0.00    +0.037 A 
ENDBRANCH  15  17
ENDBRANCH  14  15
ENDBRANCH  11  12
BRANCH   3   2
ATOM      1  C   UNL     1      45.460  15.338  19.835  0.00  0.00    +0.221 C 
ATOM      2  O   UNL     1      45.951  16.582  20.338  0.00  0.00    -0.306 OA
ENDBRANCH   3   2
TORSDOF 4
ENDMDL
MODEL 2
REMARK VINA RESULT:      -6.0      2.052      2.738
REMARK  Name = ZINC00058188
REMARK  5 active torsions:
REMARK  status: ('A' for Active; 'I' for Inactive)
REMARK    1  A    between atoms: C1_1  and  O1_2
REMARK    2  A    between atoms: O1_2  and  C2_3
REMARK    3  A    between atoms: C9_11  and  C10_12
REMARK    4  A    between atoms: C11_14  and  C12_15
REMARK    5  A    between atoms: C12_15  and  C13_16
REMARK                            x       y       z     vdW  Elec       q    Type
REMARK                         _______ _______ _______ _____ _____    ______ ____
ROOT
ATOM      3  C   UNL     1      45.330  20.037  19.174  0.00  0.00    +0.175 A 
ATOM      4  C   UNL     1      44.018  20.508  19.088  0.00  0.00    -0.170 A 
ATOM      5  C   UNL     1      42.783  19.997  18.479  0.00  0.00    -0.038 A 
ATOM      6  C   UNL     1      41.836  20.911  18.734  0.00  0.00    +0.190 A 
ATOM      7  O   UNL     1      42.356  21.933  19.437  0.00  0.00    -0.198 OA
ATOM      8  C   UNL     1      43.668  21.736  19.675  0.00  0.00    +0.060 A 
ATOM      9  C   UNL     1      44.639  22.480  20.343  0.00  0.00    -0.002 A 
ATOM     10  C   UNL     1      45.920  22.026  20.431  0.00  0.00    +0.093 A 
ATOM     11  C   UNL     1      46.286  20.800  19.855  0.00  0.00    -0.113 A 
ENDROOT
BRANCH  11  12
ATOM     12  C   UNL     1      47.673  20.319  19.963  0.00  0.00    +0.328 C 
ATOM     13  O   UNL     1      47.950  19.216  20.692  0.00  0.00    -0.606 OA
ATOM     14  C   UNL     1      48.679  20.988  19.327  0.00  0.00    -0.432 C 
BRANCH  14  15
ATOM     15  C   UNL     1      49.984  20.466  19.333  0.00  0.00    +0.404 C 
ATOM     16  O   UNL     1      50.575  20.314  20.389  0.00  0.00    -0.513 OA
BRANCH  15  17
ATOM     17  C   UNL     1      50.642  20.099  18.059  0.00  0.00    -0.115 A 
ATOM     18  C   UNL     1      51.324  21.067  17.319  0.00  0.00    +0.039 A 
ATOM     19  C   UNL     1      51.936  20.719  16.132  0.00  0.00    -0.022 A 
ATOM     20  C   UNL     1      51.875  19.415  15.676  0.00  0.00    -0.013 A 
ATOM     21  C   UNL     1      51.200  18.450  16.405  0.00  0.00    -0.021 A 
ATOM     22  C   UNL     1      50.589  18.784  17.595  0.00  0.00    +0.037 A 
ENDBRANCH  15  17
ENDBRANCH  14  15
ENDBRANCH  11  12
BRANCH   3   2
ATOM      1  C   UNL     1      45.231  17.666  19.273  0.00  0.00    +0.221 C 
ATOM      2  O   UNL     1      45.671  18.852  18.609  0.00  0.00    -0.306 OA
ENDBRANCH   3   2
TORSDOF 4
ENDMDL
MODEL 3
REMARK VINA RESULT:      -5.9      1.172      2.113
REMARK  Name = ZINC00058188
REMARK  5 active torsions:
REMARK  status: ('A' for Active; 'I' for Inactive)
REMARK    1  A    between atoms: C1_1  and  O1_2
REMARK    2  A    between atoms: O1_2  and  C2_3
REMARK    3  A    between atoms: C9_11  and  C10_12
REMARK    4  A    between atoms: C11_14  and  C12_15
REMARK    5  A    between atoms: C12_15  and  C13_16
REMARK                            x       y       z     vdW  Elec       q    Type
REMARK                         _______ _______ _______ _____ _____    ______ ____
ROOT
ATOM      3  C   UNL     1      45.505  18.604  18.931  0.00  0.00    +0.175 A 
ATOM      4  C   UNL     1      44.417  18.673  19.803  0.00  0.00    -0.170 A 
ATOM      5  C   UNL     1      43.412  19.699  20.110  0.00  0.00    -0.038 A 
ATOM      6  C   UNL     1      42.615  19.171  21.049  0.00  0.00    +0.190 A 
ATOM      7  O   UNL     1      43.022  17.926  21.355  0.00  0.00    -0.198 OA
ATOM      8  C   UNL     1      44.105  17.581  20.630  0.00  0.00    +0.060 A 
ATOM      9  C   UNL     1      44.887  16.429  20.574  0.00  0.00    -0.002 A 
ATOM     10  C   UNL     1      45.949  16.356  19.725  0.00  0.00    +0.093 A 
ATOM     11  C   UNL     1      46.274  17.435  18.888  0.00  0.00    -0.113 A 
ENDROOT
BRANCH  11  12
ATOM     12  C   UNL     1      47.420  17.338  17.971  0.00  0.00    +0.328 C 
ATOM     13  O   UNL     1      47.215  17.278  16.637  0.00  0.00    -0.606 OA
ATOM     14  C   UNL     1      48.692  17.310  18.468  0.00  0.00    -0.432 C 
BRANCH  14  15
ATOM     15  C   UNL     1      49.791  17.335  17.592  0.00  0.00    +0.404 C 
ATOM     16  O   UNL     1      50.192  16.300  17.087  0.00  0.00    -0.513 OA
BRANCH  15  17
ATOM     17  C   UNL     1      50.460  18.618  17.280  0.00  0.00    -0.115 A 
ATOM     18  C   UNL     1      50.297  19.717  18.125  0.00  0.00    +0.039 A 
ATOM     19  C   UNL     1      50.925  20.910  17.829  0.00  0.00    -0.022 A 
ATOM     20  C   UNL     1      51.715  21.017  16.699  0.00  0.00    -0.013 A 
ATOM     21  C   UNL     1      51.881  19.931  15.857  0.00  0.00    -0.021 A 
ATOM     22  C   UNL     1      51.263  18.731  16.144  0.00  0.00    +0.037 A 
ENDBRANCH  15  17
ENDBRANCH  14  15
ENDBRANCH  11  12
BRANCH   3   2
ATOM      1  C   UNL     1      46.530  20.738  18.727  0.00  0.00    +0.221 C 
ATOM      2  O   UNL     1      45.810  19.656  18.131  0.00  0.00    -0.306 OA
ENDBRANCH   3   2
TORSDOF 4
ENDMDL
MODEL 4
REMARK VINA RESULT:      -5.9      1.865      1.956
REMARK  Name = ZINC00058188
REMARK  5 active torsions:
REMARK  status: ('A' for Active; 'I' for Inactive)
REMARK    1  A    between atoms: C1_1  and  O1_2
REMARK    2  A    between atoms: O1_2  and  C2_3
REMARK    3  A    between atoms: C9_11  and  C10_12
REMARK    4  A    between atoms: C11_14  and  C12_15
REMARK    5  A    between atoms: C12_15  and  C13_16
REMARK                            x       y       z     vdW  Elec       q    Type
REMARK                         _______ _______ _______ _____ _____    ______ ____
ROOT
ATOM      3  C   UNL     1      45.315  19.379  20.967  0.00  0.00    +0.175 A 
ATOM      4  C   UNL     1      43.931  19.193  20.970  0.00  0.00    -0.170 A 
ATOM      5  C   UNL     1      42.960  18.741  21.974  0.00  0.00    -0.038 A 
ATOM      6  C   UNL     1      41.762  18.773  21.375  0.00  0.00    +0.190 A 
ATOM      7  O   UNL     1      41.890  19.198  20.105  0.00  0.00    -0.198 OA
ATOM      8  C   UNL     1      43.180  19.464  19.814  0.00  0.00    +0.060 A 
ATOM      9  C   UNL     1      43.823  19.919  18.665  0.00  0.00    -0.002 A 
ATOM     10  C   UNL     1      45.173  20.102  18.655  0.00  0.00    +0.093 A 
ATOM     11  C   UNL     1      45.940  19.842  19.802  0.00  0.00    -0.113 A 
ENDROOT
BRANCH  11  12
ATOM     12  C   UNL     1      47.396  20.051  19.779  0.00  0.00    +0.328 C 
ATOM     13  O   UNL     1      47.921  21.203  20.251  0.00  0.00    -0.606 OA
ATOM     14  C   UNL     1      48.218  19.081  19.280  0.00  0.00    -0.432 C 
BRANCH  14  15
ATOM     15  C   UNL     1      49.613  19.229  19.363  0.00  0.00    +0.404 C 
ATOM     16  O   UNL     1      50.179  19.083  20.433  0.00  0.00    -0.513 OA
BRANCH  15  17
ATOM     17  C   UNL     1      50.396  19.562  18.152  0.00  0.00    -0.115 A 
ATOM     18  C   UNL     1      50.729  20.890  17.876  0.00  0.00    +0.039 A 
ATOM     19  C   UNL     1      51.460  21.193  16.746  0.00  0.00    -0.022 A 
ATOM     20  C   UNL     1      51.863  20.186  15.888  0.00  0.00    -0.013 A 
ATOM     21  C   UNL     1      51.536  18.868  16.156  0.00  0.00    -0.021 A 
ATOM     22  C   UNL     1      50.810  18.550  17.285  0.00  0.00    +0.037 A 
ENDBRANCH  15  17
ENDBRANCH  14  15
ENDBRANCH  11  12
BRANCH   3   2
ATOM      1  C   UNL     1      46.398  17.755  22.321  0.00  0.00    +0.221 C 
ATOM      2  O   UNL     1      46.045  19.119  22.080  0.00  0.00    -0.306 OA
ENDBRANCH   3   2
TORSDOF 4
ENDMDL
MODEL 5
REMARK VINA RESULT:      -5.9      2.495      3.565
REMARK  Name = ZINC00058188
REMARK  5 active torsions:
REMARK  status: ('A' for Active; 'I' for Inactive)
REMARK    1  A    between atoms: C1_1  and  O1_2
REMARK    2  A    between atoms: O1_2  and  C2_3
REMARK    3  A    between atoms: C9_11  and  C10_12
REMARK    4  A    between atoms: C11_14  and  C12_15
REMARK    5  A    between atoms: C12_15  and  C13_16
REMARK                            x       y       z     vdW  Elec       q    Type
REMARK                         _______ _______ _______ _____ _____    ______ ____
ROOT
ATOM      3  C   UNL     1      43.684  20.196  19.701  0.00  0.00    +0.175 A 
ATOM      4  C   UNL     1      42.459  20.688  19.245  0.00  0.00    -0.170 A 
ATOM      5  C   UNL     1      41.199  20.066  18.821  0.00  0.00    -0.038 A 
ATOM      6  C   UNL     1      40.380  21.073  18.489  0.00  0.00    +0.190 A 
ATOM      7  O   UNL     1      41.001  22.253  18.663  0.00  0.00    -0.198 OA
ATOM      8  C   UNL     1      42.258  22.072  19.118  0.00  0.00    +0.060 A 
ATOM      9  C   UNL     1      43.287  22.952  19.450  0.00  0.00    -0.002 A 
ATOM     10  C   UNL     1      44.483  22.479  19.896  0.00  0.00    +0.093 A 
ATOM     11  C   UNL     1      44.702  21.099  20.034  0.00  0.00    -0.113 A 
ENDROOT
BRANCH  11  12
ATOM     12  C   UNL     1      45.998  20.603  20.522  0.00  0.00    +0.328 C 
ATOM     13  O   UNL     1      46.270  20.612  21.846  0.00  0.00    -0.606 OA
ATOM     14  C   UNL     1      46.927  20.132  19.638  0.00  0.00    -0.432 C 
BRANCH  14  15
ATOM     15  C   UNL     1      48.117  19.551  20.111  0.00  0.00    +0.404 C 
ATOM     16  O   UNL     1      48.078  18.503  20.733  0.00  0.00    -0.513 OA
BRANCH  15  17
ATOM     17  C   UNL     1      49.416  20.210  19.852  0.00  0.00    -0.115 A 
ATOM     18  C   UNL     1      49.760  20.596  18.555  0.00  0.00    +0.039 A 
ATOM     19  C   UNL     1      50.973  21.211  18.321  0.00  0.00    -0.022 A 
ATOM     20  C   UNL     1      51.847  21.446  19.367  0.00  0.00    -0.013 A 
ATOM     21  C   UNL     1      51.512  21.066  20.656  0.00  0.00    -0.021 A 
ATOM     22  C   UNL     1      50.300  20.455  20.904  0.00  0.00    +0.037 A 
ENDBRANCH  15  17
ENDBRANCH  14  15
ENDBRANCH  11  12
BRANCH   3   2
ATOM      1  C   UNL     1      43.429  18.246  21.033  0.00  0.00    +0.221 C 
ATOM      2  O   UNL     1      43.883  18.860  19.826  0.00  0.00    -0.306 OA
ENDBRANCH   3   2
TORSDOF 4
ENDMDL
MODEL 6
REMARK VINA RESULT:      -5.8      2.207      3.693
REMARK  Name = ZINC00058188
REMARK  5 active torsions:
REMARK  status: ('A' for Active; 'I' for Inactive)
REMARK    1  A    between atoms: C1_1  and  O1_2
REMARK    2  A    between atoms: O1_2  and  C2_3
REMARK    3  A    between atoms: C9_11  and  C10_12
REMARK    4  A    between atoms: C11_14  and  C12_15
REMARK    5  A    between atoms: C12_15  and  C13_16
REMARK                            x       y       z     vdW  Elec       q    Type
REMARK                         _______ _______ _______ _____ _____    ______ ____
ROOT
ATOM      3  C   UNL     1      43.966  20.993  19.528  0.00  0.00    +0.175 A 
ATOM      4  C   UNL     1      42.596  21.106  19.284  0.00  0.00    -0.170 A 
ATOM      5  C   UNL     1      41.742  22.149  18.701  0.00  0.00    -0.038 A 
ATOM      6  C   UNL     1      40.492  21.669  18.736  0.00  0.00    +0.190 A 
ATOM      7  O   UNL     1      40.483  20.439  19.279  0.00  0.00    -0.198 OA
ATOM      8  C   UNL     1      41.728  20.056  19.625  0.00  0.00    +0.060 A 
ATOM      9  C   UNL     1      42.243  18.900  20.209  0.00  0.00    -0.002 A 
ATOM     10  C   UNL     1      43.578  18.782  20.450  0.00  0.00    +0.093 A 
ATOM     11  C   UNL     1      44.461  19.820  20.111  0.00  0.00    -0.113 A 
ENDROOT
BRANCH  11  12
ATOM     12  C   UNL     1      45.902  19.676  20.372  0.00  0.00    +0.328 C 
ATOM     13  O   UNL     1      46.476  20.354  21.390  0.00  0.00    -0.606 OA
ATOM     14  C   UNL     1      46.660  18.857  19.585  0.00  0.00    -0.432 C 
BRANCH  14  15
ATOM     15  C   UNL     1      48.011  18.628  19.902  0.00  0.00    +0.404 C 
ATOM     16  O   UNL     1      48.302  17.929  20.858  0.00  0.00    -0.513 OA
BRANCH  15  17
ATOM     17  C   UNL     1      49.079  19.235  19.077  0.00  0.00    -0.115 A 
ATOM     18  C   UNL     1      49.815  18.444  18.192  0.00  0.00    +0.039 A 
ATOM     19  C   UNL     1      50.809  19.016  17.425  0.00  0.00    -0.022 A 
ATOM     20  C   UNL     1      51.076  20.369  17.530  0.00  0.00    -0.013 A 
ATOM     21  C   UNL     1      50.350  21.159  18.405  0.00  0.00    -0.021 A 
ATOM     22  C   UNL     1      49.350  20.600  19.174  0.00  0.00    +0.037 A 
ENDBRANCH  15  17
ENDBRANCH  14  15
ENDBRANCH  11  12
BRANCH   3   2
ATOM      1  C   UNL     1      44.800  23.156  20.047  0.00  0.00    +0.221 C 
ATOM      2  O   UNL     1      44.808  22.005  19.200  0.00  0.00    -0.306 OA
ENDBRANCH   3   2
TORSDOF 4
ENDMDL
MODEL 7
REMARK VINA RESULT:      -5.5     20.284     21.717
REMARK  Name = ZINC00058188
REMARK  5 active torsions:
REMARK  status: ('A' for Active; 'I' for Inactive)
REMARK    1  A    between atoms: C1_1  and  O1_2
REMARK    2  A    between atoms: O1_2  and  C2_3
REMARK    3  A    between atoms: C9_11  and  C10_12
REMARK    4  A    between atoms: C11_14  and  C12_15
REMARK    5  A    between atoms: C12_15  and  C13_16
REMARK                            x       y       z     vdW  Elec       q    Type
REMARK                         _______ _______ _______ _____ _____    ______ ____
ROOT
ATOM      3  C   UNL     1      54.030  32.827   4.820  0.00  0.00    +0.175 A 
ATOM      4  C   UNL     1      53.018  33.331   5.639  0.00  0.00    -0.170 A 
ATOM      5  C   UNL     1      51.588  33.039   5.799  0.00  0.00    -0.038 A 
ATOM      6  C   UNL     1      51.144  33.864   6.757  0.00  0.00    +0.190 A 
ATOM      7  O   UNL     1      52.149  34.636   7.206  0.00  0.00    -0.198 OA
ATOM      8  C   UNL     1      53.299  34.352   6.562  0.00  0.00    +0.060 A 
ATOM      9  C   UNL     1      54.594  34.857   6.656  0.00  0.00    -0.002 A 
ATOM     10  C   UNL     1      55.587  34.369   5.861  0.00  0.00    +0.093 A 
ATOM     11  C   UNL     1      55.326  33.346   4.936  0.00  0.00    -0.113 A 
ENDROOT
BRANCH  11  12
ATOM     12  C   UNL     1      56.409  32.825   4.087  0.00  0.00    +0.328 C 
ATOM     13  O   UNL     1      56.426  33.104   2.766  0.00  0.00    -0.606 OA
ATOM     14  C   UNL     1      57.397  32.058   4.636  0.00  0.00    -0.432 C 
BRANCH  14  15
ATOM     15  C   UNL     1      58.493  31.657   3.852  0.00  0.00    +0.404 C 
ATOM     16  O   UNL     1      59.338  32.471   3.524  0.00  0.00    -0.513 OA
BRANCH  15  17
ATOM     17  C   UNL     1      58.620  30.245   3.425  0.00  0.00    -0.115 A 
ATOM     18  C   UNL     1      58.141  29.845   2.177  0.00  0.00    +0.039 A 
ATOM     19  C   UNL     1      58.264  28.527   1.784  0.00  0.00    -0.022 A 
ATOM     20  C   UNL     1      58.861  27.605   2.624  0.00  0.00    -0.013 A 
ATOM     21  C   UNL     1      59.338  27.996   3.864  0.00  0.00    -0.021 A 
ATOM     22  C   UNL     1      59.226  29.311   4.266  0.00  0.00    +0.037 A 
ENDBRANCH  15  17
ENDBRANCH  14  15
ENDBRANCH  11  12
BRANCH   3   2
ATOM      1  C   UNL     1      53.058  32.214   2.742  0.00  0.00    +0.221 C 
ATOM      2  O   UNL     1      53.763  31.841   3.927  0.00  0.00    -0.306 OA
ENDBRANCH   3   2
TORSDOF 4
ENDMDL
MODEL 8
REMARK VINA RESULT:      -5.4      2.271      7.395
REMARK  Name = ZINC00058188
REMARK  5 active torsions:
REMARK  status: ('A' for Active; 'I' for Inactive)
REMARK    1  A    between atoms: C1_1  and  O1_2
REMARK    2  A    between atoms: O1_2  and  C2_3
REMARK    3  A    between atoms: C9_11  and  C10_12
REMARK    4  A    between atoms: C11_14  and  C12_15
REMARK    5  A    between atoms: C12_15  and  C13_16
REMARK                            x       y       z     vdW  Elec       q    Type
REMARK                         _______ _______ _______ _____ _____    ______ ____
ROOT
ATOM      3  C   UNL     1      48.748  19.665  18.940  0.00  0.00    +0.175 A 
ATOM      4  C   UNL     1      49.780  18.998  18.276  0.00  0.00    -0.170 A 
ATOM      5  C   UNL     1      51.222  19.229  18.131  0.00  0.00    -0.038 A 
ATOM      6  C   UNL     1      51.684  18.232  17.363  0.00  0.00    +0.190 A 
ATOM      7  O   UNL     1      50.678  17.408  17.020  0.00  0.00    -0.198 OA
ATOM      8  C   UNL     1      49.510  17.828  17.546  0.00  0.00    +0.060 A 
ATOM      9  C   UNL     1      48.207  17.337  17.489  0.00  0.00    -0.002 A 
ATOM     10  C   UNL     1      47.196  17.983  18.134  0.00  0.00    +0.093 A 
ATOM     11  C   UNL     1      47.447  19.150  18.873  0.00  0.00    -0.113 A 
ENDROOT
BRANCH  11  12
ATOM     12  C   UNL     1      46.346  19.833  19.570  0.00  0.00    +0.328 C 
ATOM     13  O   UNL     1      46.078  19.538  20.861  0.00  0.00    -0.606 OA
ATOM     14  C   UNL     1      45.595  20.765  18.913  0.00  0.00    -0.432 C 
BRANCH  14  15
ATOM     15  C   UNL     1      44.620  21.501  19.608  0.00  0.00    +0.404 C 
ATOM     16  O   UNL     1      44.955  22.421  20.336  0.00  0.00    -0.513 OA
BRANCH  15  17
ATOM     17  C   UNL     1      43.188  21.161  19.458  0.00  0.00    -0.115 A 
ATOM     18  C   UNL     1      42.297  22.098  18.933  0.00  0.00    +0.039 A 
ATOM     19  C   UNL     1      40.962  21.774  18.794  0.00  0.00    -0.022 A 
ATOM     20  C   UNL     1      40.508  20.524  19.173  0.00  0.00    -0.013 A 
ATOM     21  C   UNL     1      41.386  19.590  19.695  0.00  0.00    -0.021 A 
ATOM     22  C   UNL     1      42.724  19.900  19.834  0.00  0.00    +0.037 A 
ENDBRANCH  15  17
ENDBRANCH  14  15
ENDBRANCH  11  12
BRANCH   3   2
ATOM      1  C   UNL     1      49.518  20.630  20.969  0.00  0.00    +0.221 C 
ATOM      2  O   UNL     1      49.004  20.794  19.646  0.00  0.00    -0.306 OA
ENDBRANCH   3   2
TORSDOF 4
ENDMDL
MODEL 9
REMARK VINA RESULT:      -5.4      3.291      5.296
REMARK  Name = ZINC00058188
REMARK  5 active torsions:
REMARK  status: ('A' for Active; 'I' for Inactive)
REMARK    1  A    between atoms: C1_1  and  O1_2
REMARK    2  A    between atoms: O1_2  and  C2_3
REMARK    3  A    between atoms: C9_11  and  C10_12
REMARK    4  A    between atoms: C11_14  and  C12_15
REMARK    5  A    between atoms: C12_15  and  C13_16
REMARK                            x       y       z     vdW  Elec       q    Type
REMARK                         _______ _______ _______ _____ _____    ______ ____
ROOT
ATOM      3  C   UNL     1      47.167  14.301  17.184  0.00  0.00    +0.175 A 
ATOM      4  C   UNL     1      46.962  12.969  16.818  0.00  0.00    -0.170 A 
ATOM      5  C   UNL     1      45.822  12.047  16.902  0.00  0.00    -0.038 A 
ATOM      6  C   UNL     1      46.243  10.886  16.381  0.00  0.00    +0.190 A 
ATOM      7  O   UNL     1      47.524  10.994  15.984  0.00  0.00    -0.198 OA
ATOM      8  C   UNL     1      48.000  12.231  16.227  0.00  0.00    +0.060 A 
ATOM      9  C   UNL     1      49.236  12.837  16.007  0.00  0.00    -0.002 A 
ATOM     10  C   UNL     1      49.442  14.136  16.360  0.00  0.00    +0.093 A 
ATOM     11  C   UNL     1      48.415  14.890  16.949  0.00  0.00    -0.113 A 
ENDROOT
BRANCH  11  12
ATOM     12  C   UNL     1      48.650  16.294  17.320  0.00  0.00    +0.328 C 
ATOM     13  O   UNL     1      47.816  17.259  16.876  0.00  0.00    -0.606 OA
ATOM     14  C   UNL     1      49.712  16.622  18.114  0.00  0.00    -0.432 C 
BRANCH  14  15
ATOM     15  C   UNL     1      49.872  17.944  18.564  0.00  0.00    +0.404 C 
ATOM     16  O   UNL     1      49.400  18.284  19.635  0.00  0.00    -0.513 OA
BRANCH  15  17
ATOM     17  C   UNL     1      50.614  18.923  17.739  0.00  0.00    -0.115 A 
ATOM     18  C   UNL     1      50.588  20.279  18.068  0.00  0.00    +0.039 A 
ATOM     19  C   UNL     1      51.284  21.187  17.295  0.00  0.00    -0.022 A 
ATOM     20  C   UNL     1      52.005  20.756  16.197  0.00  0.00    -0.013 A 
ATOM     21  C   UNL     1      52.035  19.412  15.865  0.00  0.00    -0.021 A 
ATOM     22  C   UNL     1      51.349  18.494  16.632  0.00  0.00    +0.037 A 
ENDBRANCH  15  17
ENDBRANCH  14  15
ENDBRANCH  11  12
BRANCH   3   2
ATOM      1  C   UNL     1      45.927  14.800  19.148  0.00  0.00    +0.221 C 
ATOM      2  O   UNL     1      46.166  15.017  17.756  0.00  0.00    -0.306 OA
ENDBRANCH   3   2
TORSDOF 4
ENDMDL
