MODEL 1
REMARK VINA RESULT:      -6.1      0.000      0.000
REMARK  Name = ZINC95486309
REMARK  13 active torsions:
REMARK  status: ('A' for Active; 'I' for Inactive)
REMARK    1  A    between atoms: C2_2  and  C7_10
REMARK    2  A    between atoms: C4_4  and  O3_9
REMARK    3  A    between atoms: C5_5  and  O2_8
REMARK    4  A    between atoms: C6_6  and  O1_7
REMARK    5  A    between atoms: C7_10  and  O5_12
REMARK    6  A    between atoms: O5_12  and  C8_13
REMARK    7  A    between atoms: C8_13  and  C9_14
REMARK    8  A    between atoms: C10_16  and  O10_31
REMARK    9  A    between atoms: C11_18  and  O9_30
REMARK   10  A    between atoms: C12_20  and  O8_29
REMARK   11  A    between atoms: C13_22  and  O7_25
REMARK   12  A    between atoms: O7_25  and  C14_26
REMARK   13  A    between atoms: C14_26  and  C15_27
REMARK                            x       y       z     vdW  Elec       q    Type
REMARK                         _______ _______ _______ _____ _____    ______ ____
ROOT
ATOM      5  C   UNL     1      48.295  21.141  21.459  0.00  0.00    +0.268 C 
ENDROOT
BRANCH   5   6
ATOM      6  C   UNL     1      47.041  21.673  20.763  0.00  0.00    +0.205 C 
ATOM      7  C   UNL     1      46.174  22.424  21.777  0.00  0.00    +0.174 C 
ATOM     10  C   UNL     1      44.892  22.901  21.087  0.00  0.00    +0.167 C 
ATOM     13  C   UNL     1      44.169  21.692  20.485  0.00  0.00    +0.145 C 
ATOM     16  C   UNL     1      45.114  20.970  19.520  0.00  0.00    +0.309 C 
ATOM     21  O   UNL     1      46.299  20.581  20.219  0.00  0.00    -0.382 OA
BRANCH   7   8
ATOM      8  O   UNL     1      46.894  23.550  22.281  0.00  0.00    -0.549 OA
ATOM      9  H   UNL     1      46.651  24.389  21.868  0.00  0.00    +0.398 HD
ENDBRANCH   7   8
BRANCH  10  11
ATOM     11  O   UNL     1      44.045  23.540  22.043  0.00  0.00    -0.554 OA
ATOM     12  H   UNL     1      43.896  24.480  21.871  0.00  0.00    +0.397 HD
ENDBRANCH  10  11
BRANCH  13  14
ATOM     14  O   UNL     1      43.009  22.133  19.777  0.00  0.00    -0.554 OA
ATOM     15  H   UNL     1      42.217  22.207  20.326  0.00  0.00    +0.397 HD
ENDBRANCH  13  14
BRANCH  16  17
ATOM     17  O   UNL     1      44.466  19.810  18.997  0.00  0.00    -0.358 OA
BRANCH  17  18
ATOM     18  C   UNL     1      44.162  18.820  19.981  0.00  0.00    +0.378 C 
BRANCH  18  19
ATOM     19  C   UNL     1      44.844  17.560  19.638  0.00  0.00    +0.205 C 
ATOM     20  N   UNL     1      45.370  16.590  19.372  0.00  0.00    -0.396 NA
ENDBRANCH  18  19
ENDBRANCH  17  18
ENDBRANCH  16  17
ENDBRANCH   5   6
BRANCH   5   4
ATOM      4  O   UNL     1      48.988  20.251  20.580  0.00  0.00    -0.341 OA
BRANCH   4   3
ATOM      3  C   UNL     1      50.292  20.504  20.357  0.00  0.00    +0.515 C 
ATOM     22  O   UNL     1      50.967  21.023  21.224  0.00  0.00    -0.493 OA
BRANCH   3   2
ATOM      1  C   UNL     1      51.021  21.114  18.057  0.00  0.00    +0.081 A 
ATOM      2  C   UNL     1      50.900  20.149  19.062  0.00  0.00    -0.103 A 
ATOM     23  C   UNL     1      51.357  18.848  18.836  0.00  0.00    +0.075 A 
ATOM     24  C   UNL     1      51.927  18.518  17.621  0.00  0.00    +0.084 A 
ATOM     27  C   UNL     1      52.047  19.481  16.622  0.00  0.00    +0.095 A 
ATOM     30  C   UNL     1      51.593  20.778  16.844  0.00  0.00    +0.089 A 
BRANCH  24  25
ATOM     25  O   UNL     1      52.372  17.252  17.400  0.00  0.00    -0.480 OA
ATOM     26  H   UNL     1      52.081  16.610  18.063  0.00  0.00    +0.393 HD
ENDBRANCH  24  25
BRANCH  27  28
ATOM     28  O   UNL     1      52.608  19.153  15.428  0.00  0.00    -0.478 OA
ATOM     29  H   UNL     1      53.569  19.048  15.462  0.00  0.00    +0.397 HD
ENDBRANCH  27  28
BRANCH  30  31
ATOM     31  O   UNL     1      51.711  21.716  15.867  0.00  0.00    -0.484 OA
ATOM     32  H   UNL     1      50.897  22.206  15.691  0.00  0.00    +0.400 HD
ENDBRANCH  30  31
ENDBRANCH   3   2
ENDBRANCH   4   3
ENDBRANCH   5   4
TORSDOF 13
ENDMDL
MODEL 2
REMARK VINA RESULT:      -6.0      1.248      2.105
REMARK  Name = ZINC95486309
REMARK  13 active torsions:
REMARK  status: ('A' for Active; 'I' for Inactive)
REMARK    1  A    between atoms: C2_2  and  C7_10
REMARK    2  A    between atoms: C4_4  and  O3_9
REMARK    3  A    between atoms: C5_5  and  O2_8
REMARK    4  A    between atoms: C6_6  and  O1_7
REMARK    5  A    between atoms: C7_10  and  O5_12
REMARK    6  A    between atoms: O5_12  and  C8_13
REMARK    7  A    between atoms: C8_13  and  C9_14
REMARK    8  A    between atoms: C10_16  and  O10_31
REMARK    9  A    between atoms: C11_18  and  O9_30
REMARK   10  A    between atoms: C12_20  and  O8_29
REMARK   11  A    between atoms: C13_22  and  O7_25
REMARK   12  A    between atoms: O7_25  and  C14_26
REMARK   13  A    between atoms: C14_26  and  C15_27
REMARK                            x       y       z     vdW  Elec       q    Type
REMARK                         _______ _______ _______ _____ _____    ______ ____
ROOT
ATOM      5  C   UNL     1      47.933  20.427  20.630  0.00  0.00    +0.268 C 
ENDROOT
BRANCH   5   6
ATOM      6  C   UNL     1      46.742  21.256  20.146  0.00  0.00    +0.205 C 
ATOM      7  C   UNL     1      46.244  22.149  21.285  0.00  0.00    +0.174 C 
ATOM     10  C   UNL     1      45.015  22.931  20.811  0.00  0.00    +0.167 C 
ATOM     13  C   UNL     1      43.946  21.941  20.337  0.00  0.00    +0.145 C 
ATOM     16  C   UNL     1      44.533  21.056  19.234  0.00  0.00    +0.309 C 
ATOM     21  O   UNL     1      45.690  20.382  19.732  0.00  0.00    -0.382 OA
BRANCH   7   8
ATOM      8  O   UNL     1      47.276  23.062  21.662  0.00  0.00    -0.549 OA
ATOM      9  H   UNL     1      48.088  22.634  21.966  0.00  0.00    +0.398 HD
ENDBRANCH   7   8
BRANCH  10  11
ATOM     11  O   UNL     1      44.500  23.712  21.890  0.00  0.00    -0.554 OA
ATOM     12  H   UNL     1      45.179  24.179  22.396  0.00  0.00    +0.397 HD
ENDBRANCH  10  11
BRANCH  13  14
ATOM     14  O   UNL     1      42.822  22.660  19.826  0.00  0.00    -0.554 OA
ATOM     15  H   UNL     1      42.131  22.097  19.449  0.00  0.00    +0.397 HD
ENDBRANCH  13  14
BRANCH  16  17
ATOM     17  O   UNL     1      43.559  20.094  18.826  0.00  0.00    -0.358 OA
BRANCH  17  18
ATOM     18  C   UNL     1      43.395  19.009  19.740  0.00  0.00    +0.378 C 
BRANCH  18  19
ATOM     19  C   UNL     1      42.061  19.086  20.361  0.00  0.00    +0.205 C 
ATOM     20  N   UNL     1      41.033  19.146  20.840  0.00  0.00    -0.396 NA
ENDBRANCH  18  19
ENDBRANCH  17  18
ENDBRANCH  16  17
ENDBRANCH   5   6
BRANCH   5   4
ATOM      4  O   UNL     1      49.140  21.171  20.442  0.00  0.00    -0.341 OA
BRANCH   4   3
ATOM      3  C   UNL     1      50.289  20.470  20.390  0.00  0.00    +0.515 C 
ATOM     22  O   UNL     1      50.822  20.101  21.418  0.00  0.00    -0.493 OA
BRANCH   3   2
ATOM      1  C   UNL     1      51.332  18.846  18.820  0.00  0.00    +0.081 A 
ATOM      2  C   UNL     1      50.897  20.147  19.087  0.00  0.00    -0.103 A 
ATOM     23  C   UNL     1      51.041  21.142  18.116  0.00  0.00    +0.075 A 
ATOM     24  C   UNL     1      51.611  20.837  16.895  0.00  0.00    +0.084 A 
ATOM     27  C   UNL     1      52.044  19.539  16.631  0.00  0.00    +0.095 A 
ATOM     30  C   UNL     1      51.902  18.546  17.597  0.00  0.00    +0.089 A 
BRANCH  24  25
ATOM     25  O   UNL     1      51.751  21.804  15.949  0.00  0.00    -0.480 OA
ATOM     26  H   UNL     1      52.333  21.558  15.217  0.00  0.00    +0.393 HD
ENDBRANCH  24  25
BRANCH  27  28
ATOM     28  O   UNL     1      52.604  19.242  15.429  0.00  0.00    -0.478 OA
ATOM     29  H   UNL     1      52.727  20.008  14.853  0.00  0.00    +0.397 HD
ENDBRANCH  27  28
BRANCH  30  31
ATOM     31  O   UNL     1      52.324  17.280  17.336  0.00  0.00    -0.484 OA
ATOM     32  H   UNL     1      51.653  16.718  16.926  0.00  0.00    +0.400 HD
ENDBRANCH  30  31
ENDBRANCH   3   2
ENDBRANCH   4   3
ENDBRANCH   5   4
TORSDOF 13
ENDMDL
MODEL 3
REMARK VINA RESULT:      -6.0      1.748      6.917
REMARK  Name = ZINC95486309
REMARK  13 active torsions:
REMARK  status: ('A' for Active; 'I' for Inactive)
REMARK    1  A    between atoms: C2_2  and  C7_10
REMARK    2  A    between atoms: C4_4  and  O3_9
REMARK    3  A    between atoms: C5_5  and  O2_8
REMARK    4  A    between atoms: C6_6  and  O1_7
REMARK    5  A    between atoms: C7_10  and  O5_12
REMARK    6  A    between atoms: O5_12  and  C8_13
REMARK    7  A    between atoms: C8_13  and  C9_14
REMARK    8  A    between atoms: C10_16  and  O10_31
REMARK    9  A    between atoms: C11_18  and  O9_30
REMARK   10  A    between atoms: C12_20  and  O8_29
REMARK   11  A    between atoms: C13_22  and  O7_25
REMARK   12  A    between atoms: O7_25  and  C14_26
REMARK   13  A    between atoms: C14_26  and  C15_27
REMARK                            x       y       z     vdW  Elec       q    Type
REMARK                         _______ _______ _______ _____ _____    ______ ____
ROOT
ATOM      5  C   UNL     1      50.280  20.193  20.460  0.00  0.00    +0.268 C 
ENDROOT
BRANCH   5   6
ATOM      6  C   UNL     1      51.122  19.652  19.303  0.00  0.00    +0.205 C 
ATOM      7  C   UNL     1      51.384  20.772  18.294  0.00  0.00    +0.174 C 
ATOM     10  C   UNL     1      52.176  20.208  17.110  0.00  0.00    +0.167 C 
ATOM     13  C   UNL     1      51.393  19.043  16.496  0.00  0.00    +0.145 C 
ATOM     16  C   UNL     1      51.130  17.989  17.574  0.00  0.00    +0.309 C 
ATOM     21  O   UNL     1      50.418  18.587  18.659  0.00  0.00    -0.382 OA
BRANCH   7   8
ATOM      8  O   UNL     1      52.137  21.813  18.921  0.00  0.00    -0.549 OA
ATOM      9  H   UNL     1      52.886  21.496  19.443  0.00  0.00    +0.398 HD
ENDBRANCH   7   8
BRANCH  10  11
ATOM     11  O   UNL     1      52.363  21.231  16.130  0.00  0.00    -0.554 OA
ATOM     12  H   UNL     1      52.401  20.902  15.222  0.00  0.00    +0.397 HD
ENDBRANCH  10  11
BRANCH  13  14
ATOM     14  O   UNL     1      52.154  18.463  15.435  0.00  0.00    -0.554 OA
ATOM     15  H   UNL     1      52.815  17.822  15.729  0.00  0.00    +0.397 HD
ENDBRANCH  13  14
BRANCH  16  17
ATOM     17  O   UNL     1      50.353  16.926  17.022  0.00  0.00    -0.358 OA
BRANCH  17  18
ATOM     18  C   UNL     1      49.228  16.552  17.820  0.00  0.00    +0.378 C 
BRANCH  18  19
ATOM     19  C   UNL     1      47.988  16.986  17.155  0.00  0.00    +0.205 C 
ATOM     20  N   UNL     1      47.031  17.319  16.642  0.00  0.00    -0.396 NA
ENDBRANCH  18  19
ENDBRANCH  17  18
ENDBRANCH  16  17
ENDBRANCH   5   6
BRANCH   5   4
ATOM      4  O   UNL     1      49.235  21.021  19.942  0.00  0.00    -0.341 OA
BRANCH   4   3
ATOM      3  C   UNL     1      48.187  21.263  20.754  0.00  0.00    +0.515 C 
ATOM     22  O   UNL     1      48.376  21.547  21.921  0.00  0.00    -0.493 OA
BRANCH   3   2
ATOM      1  C   UNL     1      46.470  20.189  19.309  0.00  0.00    +0.081 A 
ATOM      2  C   UNL     1      46.813  21.186  20.226  0.00  0.00    -0.103 A 
ATOM     23  C   UNL     1      45.851  22.110  20.642  0.00  0.00    +0.075 A 
ATOM     24  C   UNL     1      44.563  22.035  20.146  0.00  0.00    +0.084 A 
ATOM     27  C   UNL     1      44.224  21.041  19.232  0.00  0.00    +0.095 A 
ATOM     30  C   UNL     1      45.181  20.119  18.816  0.00  0.00    +0.089 A 
BRANCH  24  25
ATOM     25  O   UNL     1      43.625  22.934  20.550  0.00  0.00    -0.480 OA
ATOM     26  H   UNL     1      43.939  23.557  21.220  0.00  0.00    +0.393 HD
ENDBRANCH  24  25
BRANCH  27  28
ATOM     28  O   UNL     1      42.957  20.969  18.746  0.00  0.00    -0.478 OA
ATOM     29  H   UNL     1      42.484  20.165  18.999  0.00  0.00    +0.397 HD
ENDBRANCH  27  28
BRANCH  30  31
ATOM     31  O   UNL     1      44.847  19.148  17.924  0.00  0.00    -0.484 OA
ATOM     32  H   UNL     1      45.556  18.514  17.748  0.00  0.00    +0.400 HD
ENDBRANCH  30  31
ENDBRANCH   3   2
ENDBRANCH   4   3
ENDBRANCH   5   4
TORSDOF 13
ENDMDL
MODEL 4
REMARK VINA RESULT:      -6.0      2.377      3.416
REMARK  Name = ZINC95486309
REMARK  13 active torsions:
REMARK  status: ('A' for Active; 'I' for Inactive)
REMARK    1  A    between atoms: C2_2  and  C7_10
REMARK    2  A    between atoms: C4_4  and  O3_9
REMARK    3  A    between atoms: C5_5  and  O2_8
REMARK    4  A    between atoms: C6_6  and  O1_7
REMARK    5  A    between atoms: C7_10  and  O5_12
REMARK    6  A    between atoms: O5_12  and  C8_13
REMARK    7  A    between atoms: C8_13  and  C9_14
REMARK    8  A    between atoms: C10_16  and  O10_31
REMARK    9  A    between atoms: C11_18  and  O9_30
REMARK   10  A    between atoms: C12_20  and  O8_29
REMARK   11  A    between atoms: C13_22  and  O7_25
REMARK   12  A    between atoms: O7_25  and  C14_26
REMARK   13  A    between atoms: C14_26  and  C15_27
REMARK                            x       y       z     vdW  Elec       q    Type
REMARK                         _______ _______ _______ _____ _____    ______ ____
ROOT
ATOM      5  C   UNL     1      47.118  20.335  18.963  0.00  0.00    +0.268 C 
ENDROOT
BRANCH   5   6
ATOM      6  C   UNL     1      45.855  20.478  19.814  0.00  0.00    +0.205 C 
ATOM      7  C   UNL     1      45.760  19.300  20.788  0.00  0.00    +0.174 C 
ATOM     10  C   UNL     1      44.463  19.418  21.594  0.00  0.00    +0.167 C 
ATOM     13  C   UNL     1      43.276  19.470  20.626  0.00  0.00    +0.145 C 
ATOM     16  C   UNL     1      43.467  20.641  19.658  0.00  0.00    +0.309 C 
ATOM     21  O   UNL     1      44.706  20.485  18.963  0.00  0.00    -0.382 OA
BRANCH   7   8
ATOM      8  O   UNL     1      46.879  19.324  21.676  0.00  0.00    -0.549 OA
ATOM      9  H   UNL     1      47.258  18.453  21.853  0.00  0.00    +0.398 HD
ENDBRANCH   7   8
BRANCH  10  11
ATOM     11  O   UNL     1      44.331  18.286  22.455  0.00  0.00    -0.554 OA
ATOM     12  H   UNL     1      43.486  18.245  22.924  0.00  0.00    +0.397 HD
ENDBRANCH  10  11
BRANCH  13  14
ATOM     14  O   UNL     1      42.066  19.651  21.363  0.00  0.00    -0.554 OA
ATOM     15  H   UNL     1      41.908  20.564  21.644  0.00  0.00    +0.397 HD
ENDBRANCH  13  14
BRANCH  16  17
ATOM     17  O   UNL     1      42.392  20.662  18.717  0.00  0.00    -0.358 OA
BRANCH  17  18
ATOM     18  C   UNL     1      41.610  21.856  18.756  0.00  0.00    +0.378 C 
BRANCH  18  19
ATOM     19  C   UNL     1      40.191  21.522  18.544  0.00  0.00    +0.205 C 
ATOM     20  N   UNL     1      39.097  21.264  18.380  0.00  0.00    -0.396 NA
ENDBRANCH  18  19
ENDBRANCH  17  18
ENDBRANCH  16  17
ENDBRANCH   5   6
BRANCH   5   4
ATOM      4  O   UNL     1      48.158  21.147  19.513  0.00  0.00    -0.341 OA
BRANCH   4   3
ATOM      3  C   UNL     1      49.349  20.554  19.728  0.00  0.00    +0.515 C 
ATOM     22  O   UNL     1      49.719  20.329  20.864  0.00  0.00    -0.493 OA
BRANCH   3   2
ATOM      1  C   UNL     1      50.534  18.834  18.376  0.00  0.00    +0.081 A 
ATOM      2  C   UNL     1      50.200  20.175  18.586  0.00  0.00    -0.103 A 
ATOM     23  C   UNL     1      50.675  21.156  17.712  0.00  0.00    +0.075 A 
ATOM     24  C   UNL     1      51.473  20.798  16.641  0.00  0.00    +0.084 A 
ATOM     27  C   UNL     1      51.804  19.461  16.434  0.00  0.00    +0.095 A 
ATOM     30  C   UNL     1      51.332  18.482  17.304  0.00  0.00    +0.089 A 
BRANCH  24  25
ATOM     25  O   UNL     1      51.936  21.752  15.789  0.00  0.00    -0.480 OA
ATOM     26  H   UNL     1      52.031  22.627  16.191  0.00  0.00    +0.393 HD
ENDBRANCH  24  25
BRANCH  27  28
ATOM     28  O   UNL     1      52.589  19.113  15.380  0.00  0.00    -0.478 OA
ATOM     29  H   UNL     1      53.376  19.664  15.277  0.00  0.00    +0.397 HD
ENDBRANCH  27  28
BRANCH  30  31
ATOM     31  O   UNL     1      51.656  17.177  17.098  0.00  0.00    -0.484 OA
ATOM     32  H   UNL     1      50.963  16.663  16.663  0.00  0.00    +0.400 HD
ENDBRANCH  30  31
ENDBRANCH   3   2
ENDBRANCH   4   3
ENDBRANCH   5   4
TORSDOF 13
ENDMDL
MODEL 5
REMARK VINA RESULT:      -5.9      1.701      7.068
REMARK  Name = ZINC95486309
REMARK  13 active torsions:
REMARK  status: ('A' for Active; 'I' for Inactive)
REMARK    1  A    between atoms: C2_2  and  C7_10
REMARK    2  A    between atoms: C4_4  and  O3_9
REMARK    3  A    between atoms: C5_5  and  O2_8
REMARK    4  A    between atoms: C6_6  and  O1_7
REMARK    5  A    between atoms: C7_10  and  O5_12
REMARK    6  A    between atoms: O5_12  and  C8_13
REMARK    7  A    between atoms: C8_13  and  C9_14
REMARK    8  A    between atoms: C10_16  and  O10_31
REMARK    9  A    between atoms: C11_18  and  O9_30
REMARK   10  A    between atoms: C12_20  and  O8_29
REMARK   11  A    between atoms: C13_22  and  O7_25
REMARK   12  A    between atoms: O7_25  and  C14_26
REMARK   13  A    between atoms: C14_26  and  C15_27
REMARK                            x       y       z     vdW  Elec       q    Type
REMARK                         _______ _______ _______ _____ _____    ______ ____
ROOT
ATOM      5  C   UNL     1      50.167  20.337  20.366  0.00  0.00    +0.268 C 
ENDROOT
BRANCH   5   6
ATOM      6  C   UNL     1      51.026  19.735  19.252  0.00  0.00    +0.205 C 
ATOM      7  C   UNL     1      51.379  20.823  18.235  0.00  0.00    +0.174 C 
ATOM     10  C   UNL     1      52.188  20.200  17.093  0.00  0.00    +0.167 C 
ATOM     13  C   UNL     1      51.375  19.061  16.469  0.00  0.00    +0.145 C 
ATOM     16  C   UNL     1      51.022  18.041  17.554  0.00  0.00    +0.309 C 
ATOM     21  O   UNL     1      50.298  18.692  18.600  0.00  0.00    -0.382 OA
BRANCH   7   8
ATOM      8  O   UNL     1      52.155  21.839  18.873  0.00  0.00    -0.549 OA
ATOM      9  H   UNL     1      52.901  22.153  18.345  0.00  0.00    +0.398 HD
ENDBRANCH   7   8
BRANCH  10  11
ATOM     11  O   UNL     1      52.460  21.194  16.103  0.00  0.00    -0.554 OA
ATOM     12  H   UNL     1      52.017  21.038  15.258  0.00  0.00    +0.397 HD
ENDBRANCH  10  11
BRANCH  13  14
ATOM     14  O   UNL     1      52.149  18.426  15.449  0.00  0.00    -0.554 OA
ATOM     15  H   UNL     1      52.766  19.017  14.997  0.00  0.00    +0.397 HD
ENDBRANCH  13  14
BRANCH  16  17
ATOM     17  O   UNL     1      50.218  17.004  16.991  0.00  0.00    -0.358 OA
BRANCH  17  18
ATOM     18  C   UNL     1      49.154  16.569  17.838  0.00  0.00    +0.378 C 
BRANCH  18  19
ATOM     19  C   UNL     1      47.865  16.775  17.155  0.00  0.00    +0.205 C 
ATOM     20  N   UNL     1      46.872  16.935  16.629  0.00  0.00    -0.396 NA
ENDBRANCH  18  19
ENDBRANCH  17  18
ENDBRANCH  16  17
ENDBRANCH   5   6
BRANCH   5   4
ATOM      4  O   UNL     1      48.871  20.654  19.850  0.00  0.00    -0.341 OA
BRANCH   4   3
ATOM      3  C   UNL     1      47.817  20.412  20.653  0.00  0.00    +0.515 C 
ATOM     22  O   UNL     1      47.900  19.573  21.528  0.00  0.00    -0.493 OA
BRANCH   3   2
ATOM      1  C   UNL     1      46.398  22.408  21.092  0.00  0.00    +0.081 A 
ATOM      2  C   UNL     1      46.564  21.166  20.471  0.00  0.00    -0.103 A 
ATOM     23  C   UNL     1      45.539  20.642  19.679  0.00  0.00    +0.075 A 
ATOM     24  C   UNL     1      44.366  21.352  19.509  0.00  0.00    +0.084 A 
ATOM     27  C   UNL     1      44.203  22.588  20.129  0.00  0.00    +0.095 A 
ATOM     30  C   UNL     1      45.222  23.113  20.919  0.00  0.00    +0.089 A 
BRANCH  24  25
ATOM     25  O   UNL     1      43.368  20.842  18.738  0.00  0.00    -0.480 OA
ATOM     26  H   UNL     1      42.850  20.149  19.170  0.00  0.00    +0.393 HD
ENDBRANCH  24  25
BRANCH  27  28
ATOM     28  O   UNL     1      43.047  23.284  19.961  0.00  0.00    -0.478 OA
ATOM     29  H   UNL     1      43.036  23.842  19.171  0.00  0.00    +0.397 HD
ENDBRANCH  27  28
BRANCH  30  31
ATOM     31  O   UNL     1      45.060  24.321  21.523  0.00  0.00    -0.484 OA
ATOM     32  H   UNL     1      45.206  25.076  20.937  0.00  0.00    +0.400 HD
ENDBRANCH  30  31
ENDBRANCH   3   2
ENDBRANCH   4   3
ENDBRANCH   5   4
TORSDOF 13
ENDMDL
MODEL 6
REMARK VINA RESULT:      -5.8      4.509      8.297
REMARK  Name = ZINC95486309
REMARK  13 active torsions:
REMARK  status: ('A' for Active; 'I' for Inactive)
REMARK    1  A    between atoms: C2_2  and  C7_10
REMARK    2  A    between atoms: C4_4  and  O3_9
REMARK    3  A    between atoms: C5_5  and  O2_8
REMARK    4  A    between atoms: C6_6  and  O1_7
REMARK    5  A    between atoms: C7_10  and  O5_12
REMARK    6  A    between atoms: O5_12  and  C8_13
REMARK    7  A    between atoms: C8_13  and  C9_14
REMARK    8  A    between atoms: C10_16  and  O10_31
REMARK    9  A    between atoms: C11_18  and  O9_30
REMARK   10  A    between atoms: C12_20  and  O8_29
REMARK   11  A    between atoms: C13_22  and  O7_25
REMARK   12  A    between atoms: O7_25  and  C14_26
REMARK   13  A    between atoms: C14_26  and  C15_27
REMARK                            x       y       z     vdW  Elec       q    Type
REMARK                         _______ _______ _______ _____ _____    ______ ____
ROOT
ATOM      5  C   UNL     1      45.176  16.903  20.555  0.00  0.00    +0.268 C 
ENDROOT
BRANCH   5   6
ATOM      6  C   UNL     1      46.234  16.428  19.557  0.00  0.00    +0.205 C 
ATOM      7  C   UNL     1      46.073  17.192  18.240  0.00  0.00    +0.174 C 
ATOM     10  C   UNL     1      47.097  16.670  17.227  0.00  0.00    +0.167 C 
ATOM     13  C   UNL     1      46.901  15.160  17.053  0.00  0.00    +0.145 C 
ATOM     16  C   UNL     1      47.030  14.475  18.416  0.00  0.00    +0.309 C 
ATOM     21  O   UNL     1      46.071  15.029  19.319  0.00  0.00    -0.382 OA
BRANCH   7   8
ATOM      8  O   UNL     1      46.292  18.586  18.466  0.00  0.00    -0.549 OA
ATOM      9  H   UNL     1      45.766  18.954  19.188  0.00  0.00    +0.398 HD
ENDBRANCH   7   8
BRANCH  10  11
ATOM     11  O   UNL     1      46.906  17.326  15.973  0.00  0.00    -0.554 OA
ATOM     12  H   UNL     1      46.758  16.723  15.232  0.00  0.00    +0.397 HD
ENDBRANCH  10  11
BRANCH  13  14
ATOM     14  O   UNL     1      47.896  14.649  16.164  0.00  0.00    -0.554 OA
ATOM     15  H   UNL     1      47.715  13.755  15.841  0.00  0.00    +0.397 HD
ENDBRANCH  13  14
BRANCH  16  17
ATOM     17  O   UNL     1      46.794  13.074  18.269  0.00  0.00    -0.358 OA
BRANCH  17  18
ATOM     18  C   UNL     1      45.463  12.748  17.866  0.00  0.00    +0.378 C 
BRANCH  18  19
ATOM     19  C   UNL     1      45.508  11.756  16.778  0.00  0.00    +0.205 C 
ATOM     20  N   UNL     1      45.543  10.991  15.940  0.00  0.00    -0.396 NA
ENDBRANCH  18  19
ENDBRANCH  17  18
ENDBRANCH  16  17
ENDBRANCH   5   6
BRANCH   5   4
ATOM      4  O   UNL     1      44.155  17.624  19.860  0.00  0.00    -0.341 OA
BRANCH   4   3
ATOM      3  C   UNL     1      43.437  18.511  20.576  0.00  0.00    +0.515 C 
ATOM     22  O   UNL     1      43.291  18.350  21.772  0.00  0.00    -0.493 OA
BRANCH   3   2
ATOM      1  C   UNL     1      43.448  20.929  19.990  0.00  0.00    +0.081 A 
ATOM      2  C   UNL     1      42.830  19.677  19.909  0.00  0.00    -0.103 A 
ATOM     23  C   UNL     1      41.638  19.534  19.196  0.00  0.00    +0.075 A 
ATOM     24  C   UNL     1      41.071  20.629  18.572  0.00  0.00    +0.084 A 
ATOM     27  C   UNL     1      41.689  21.876  18.654  0.00  0.00    +0.095 A 
ATOM     30  C   UNL     1      42.877  22.021  19.364  0.00  0.00    +0.089 A 
BRANCH  24  25
ATOM     25  O   UNL     1      39.911  20.491  17.877  0.00  0.00    -0.480 OA
ATOM     26  H   UNL     1      39.426  21.319  17.750  0.00  0.00    +0.393 HD
ENDBRANCH  24  25
BRANCH  27  28
ATOM     28  O   UNL     1      41.129  22.951  18.039  0.00  0.00    -0.478 OA
ATOM     29  H   UNL     1      41.144  23.759  18.569  0.00  0.00    +0.397 HD
ENDBRANCH  27  28
BRANCH  30  31
ATOM     31  O   UNL     1      43.478  23.239  19.442  0.00  0.00    -0.484 OA
ATOM     32  H   UNL     1      43.288  23.819  18.692  0.00  0.00    +0.400 HD
ENDBRANCH  30  31
ENDBRANCH   3   2
ENDBRANCH   4   3
ENDBRANCH   5   4
TORSDOF 13
ENDMDL
MODEL 7
REMARK VINA RESULT:      -5.7      4.454      5.543
REMARK  Name = ZINC95486309
REMARK  13 active torsions:
REMARK  status: ('A' for Active; 'I' for Inactive)
REMARK    1  A    between atoms: C2_2  and  C7_10
REMARK    2  A    between atoms: C4_4  and  O3_9
REMARK    3  A    between atoms: C5_5  and  O2_8
REMARK    4  A    between atoms: C6_6  and  O1_7
REMARK    5  A    between atoms: C7_10  and  O5_12
REMARK    6  A    between atoms: O5_12  and  C8_13
REMARK    7  A    between atoms: C8_13  and  C9_14
REMARK    8  A    between atoms: C10_16  and  O10_31
REMARK    9  A    between atoms: C11_18  and  O9_30
REMARK   10  A    between atoms: C12_20  and  O8_29
REMARK   11  A    between atoms: C13_22  and  O7_25
REMARK   12  A    between atoms: O7_25  and  C14_26
REMARK   13  A    between atoms: C14_26  and  C15_27
REMARK                            x       y       z     vdW  Elec       q    Type
REMARK                         _______ _______ _______ _____ _____    ______ ____
ROOT
ATOM      5  C   UNL     1      45.422  18.567  21.409  0.00  0.00    +0.268 C 
ENDROOT
BRANCH   5   6
ATOM      6  C   UNL     1      45.135  19.882  20.683  0.00  0.00    +0.205 C 
ATOM      7  C   UNL     1      44.941  21.001  21.710  0.00  0.00    +0.174 C 
ATOM     10  C   UNL     1      44.595  22.301  20.978  0.00  0.00    +0.167 C 
ATOM     13  C   UNL     1      43.345  22.074  20.121  0.00  0.00    +0.145 C 
ATOM     16  C   UNL     1      43.600  20.914  19.155  0.00  0.00    +0.309 C 
ATOM     21  O   UNL     1      43.948  19.744  19.900  0.00  0.00    -0.382 OA
BRANCH   7   8
ATOM      8  O   UNL     1      46.147  21.178  22.456  0.00  0.00    -0.549 OA
ATOM      9  H   UNL     1      46.945  20.910  21.982  0.00  0.00    +0.398 HD
ENDBRANCH   7   8
BRANCH  10  11
ATOM     11  O   UNL     1      44.342  23.333  21.932  0.00  0.00    -0.554 OA
ATOM     12  H   UNL     1      45.005  23.391  22.634  0.00  0.00    +0.397 HD
ENDBRANCH  10  11
BRANCH  13  14
ATOM     14  O   UNL     1      43.054  23.259  19.378  0.00  0.00    -0.554 OA
ATOM     15  H   UNL     1      43.115  24.074  19.896  0.00  0.00    +0.397 HD
ENDBRANCH  13  14
BRANCH  16  17
ATOM     17  O   UNL     1      42.420  20.661  18.392  0.00  0.00    -0.358 OA
BRANCH  17  18
ATOM     18  C   UNL     1      41.324  20.167  19.164  0.00  0.00    +0.378 C 
BRANCH  18  19
ATOM     19  C   UNL     1      40.117  20.955  18.862  0.00  0.00    +0.205 C 
ATOM     20  N   UNL     1      39.186  21.562  18.629  0.00  0.00    -0.396 NA
ENDBRANCH  18  19
ENDBRANCH  17  18
ENDBRANCH  16  17
ENDBRANCH   5   6
BRANCH   5   4
ATOM      4  O   UNL     1      44.689  17.508  20.787  0.00  0.00    -0.341 OA
BRANCH   4   3
ATOM      3  C   UNL     1      45.309  16.317  20.678  0.00  0.00    +0.515 C 
ATOM     22  O   UNL     1      45.513  15.646  21.670  0.00  0.00    -0.493 OA
BRANCH   3   2
ATOM      1  C   UNL     1      45.754  14.454  19.089  0.00  0.00    +0.081 A 
ATOM      2  C   UNL     1      45.736  15.827  19.355  0.00  0.00    -0.103 A 
ATOM     23  C   UNL     1      46.124  16.732  18.365  0.00  0.00    +0.075 A 
ATOM     24  C   UNL     1      46.524  16.270  17.125  0.00  0.00    +0.084 A 
ATOM     27  C   UNL     1      46.541  14.902  16.863  0.00  0.00    +0.095 A 
ATOM     30  C   UNL     1      46.155  13.997  17.848  0.00  0.00    +0.089 A 
BRANCH  24  25
ATOM     25  O   UNL     1      46.902  17.151  16.160  0.00  0.00    -0.480 OA
ATOM     26  H   UNL     1      47.540  17.814  16.459  0.00  0.00    +0.393 HD
ENDBRANCH  24  25
BRANCH  27  28
ATOM     28  O   UNL     1      46.934  14.451  15.643  0.00  0.00    -0.478 OA
ATOM     29  H   UNL     1      46.908  15.122  14.948  0.00  0.00    +0.397 HD
ENDBRANCH  27  28
BRANCH  30  31
ATOM     31  O   UNL     1      46.171  12.662  17.588  0.00  0.00    -0.484 OA
ATOM     32  H   UNL     1      45.868  12.115  18.325  0.00  0.00    +0.400 HD
ENDBRANCH  30  31
ENDBRANCH   3   2
ENDBRANCH   4   3
ENDBRANCH   5   4
TORSDOF 13
ENDMDL
MODEL 8
REMARK VINA RESULT:      -5.6      3.511      5.901
REMARK  Name = ZINC95486309
REMARK  13 active torsions:
REMARK  status: ('A' for Active; 'I' for Inactive)
REMARK    1  A    between atoms: C2_2  and  C7_10
REMARK    2  A    between atoms: C4_4  and  O3_9
REMARK    3  A    between atoms: C5_5  and  O2_8
REMARK    4  A    between atoms: C6_6  and  O1_7
REMARK    5  A    between atoms: C7_10  and  O5_12
REMARK    6  A    between atoms: O5_12  and  C8_13
REMARK    7  A    between atoms: C8_13  and  C9_14
REMARK    8  A    between atoms: C10_16  and  O10_31
REMARK    9  A    between atoms: C11_18  and  O9_30
REMARK   10  A    between atoms: C12_20  and  O8_29
REMARK   11  A    between atoms: C13_22  and  O7_25
REMARK   12  A    between atoms: O7_25  and  C14_26
REMARK   13  A    between atoms: C14_26  and  C15_27
REMARK                            x       y       z     vdW  Elec       q    Type
REMARK                         _______ _______ _______ _____ _____    ______ ____
ROOT
ATOM      5  C   UNL     1      44.450  17.730  21.835  0.00  0.00    +0.268 C 
ENDROOT
BRANCH   5   6
ATOM      6  C   UNL     1      44.395  19.174  21.331  0.00  0.00    +0.205 C 
ATOM      7  C   UNL     1      43.436  19.262  20.141  0.00  0.00    +0.174 C 
ATOM     10  C   UNL     1      43.432  20.697  19.604  0.00  0.00    +0.167 C 
ATOM     13  C   UNL     1      44.864  21.094  19.229  0.00  0.00    +0.145 C 
ATOM     16  C   UNL     1      45.768  20.934  20.454  0.00  0.00    +0.309 C 
ATOM     21  O   UNL     1      45.700  19.585  20.921  0.00  0.00    -0.382 OA
BRANCH   7   8
ATOM      8  O   UNL     1      42.118  18.905  20.562  0.00  0.00    -0.549 OA
ATOM      9  H   UNL     1      41.427  19.132  19.925  0.00  0.00    +0.398 HD
ENDBRANCH   7   8
BRANCH  10  11
ATOM     11  O   UNL     1      42.595  20.773  18.449  0.00  0.00    -0.554 OA
ATOM     12  H   UNL     1      42.241  19.919  18.164  0.00  0.00    +0.397 HD
ENDBRANCH  10  11
BRANCH  13  14
ATOM     14  O   UNL     1      44.884  22.454  18.793  0.00  0.00    -0.554 OA
ATOM     15  H   UNL     1      44.008  22.861  18.729  0.00  0.00    +0.397 HD
ENDBRANCH  13  14
BRANCH  16  17
ATOM     17  O   UNL     1      47.114  21.249  20.097  0.00  0.00    -0.358 OA
BRANCH  17  18
ATOM     18  C   UNL     1      47.709  20.317  19.193  0.00  0.00    +0.378 C 
BRANCH  18  19
ATOM     19  C   UNL     1      49.123  20.669  18.984  0.00  0.00    +0.205 C 
ATOM     20  N   UNL     1      50.214  20.941  18.821  0.00  0.00    -0.396 NA
ENDBRANCH  18  19
ENDBRANCH  17  18
ENDBRANCH  16  17
ENDBRANCH   5   6
BRANCH   5   4
ATOM      4  O   UNL     1      44.341  16.834  20.727  0.00  0.00    -0.341 OA
BRANCH   4   3
ATOM      3  C   UNL     1      45.319  15.919  20.581  0.00  0.00    +0.515 C 
ATOM     22  O   UNL     1      45.830  15.415  21.562  0.00  0.00    -0.493 OA
BRANCH   3   2
ATOM      1  C   UNL     1      45.840  14.176  18.884  0.00  0.00    +0.081 A 
ATOM      2  C   UNL     1      45.768  15.528  19.233  0.00  0.00    -0.103 A 
ATOM     23  C   UNL     1      46.122  16.507  18.301  0.00  0.00    +0.075 A 
ATOM     24  C   UNL     1      46.542  16.138  17.037  0.00  0.00    +0.084 A 
ATOM     27  C   UNL     1      46.613  14.790  16.692  0.00  0.00    +0.095 A 
ATOM     30  C   UNL     1      46.261  13.812  17.618  0.00  0.00    +0.089 A 
BRANCH  24  25
ATOM     25  O   UNL     1      46.886  17.090  16.130  0.00  0.00    -0.480 OA
ATOM     26  H   UNL     1      46.256  17.822  16.068  0.00  0.00    +0.393 HD
ENDBRANCH  24  25
BRANCH  27  28
ATOM     28  O   UNL     1      47.026  14.430  15.448  0.00  0.00    -0.478 OA
ATOM     29  H   UNL     1      47.751  13.790  15.445  0.00  0.00    +0.397 HD
ENDBRANCH  27  28
BRANCH  30  31
ATOM     31  O   UNL     1      46.331  12.497  17.278  0.00  0.00    -0.484 OA
ATOM     32  H   UNL     1      45.474  12.050  17.257  0.00  0.00    +0.400 HD
ENDBRANCH  30  31
ENDBRANCH   3   2
ENDBRANCH   4   3
ENDBRANCH   5   4
TORSDOF 13
ENDMDL
MODEL 9
REMARK VINA RESULT:      -5.3      3.200      8.184
REMARK  Name = ZINC95486309
REMARK  13 active torsions:
REMARK  status: ('A' for Active; 'I' for Inactive)
REMARK    1  A    between atoms: C2_2  and  C7_10
REMARK    2  A    between atoms: C4_4  and  O3_9
REMARK    3  A    between atoms: C5_5  and  O2_8
REMARK    4  A    between atoms: C6_6  and  O1_7
REMARK    5  A    between atoms: C7_10  and  O5_12
REMARK    6  A    between atoms: O5_12  and  C8_13
REMARK    7  A    between atoms: C8_13  and  C9_14
REMARK    8  A    between atoms: C10_16  and  O10_31
REMARK    9  A    between atoms: C11_18  and  O9_30
REMARK   10  A    between atoms: C12_20  and  O8_29
REMARK   11  A    between atoms: C13_22  and  O7_25
REMARK   12  A    between atoms: O7_25  and  C14_26
REMARK   13  A    between atoms: C14_26  and  C15_27
REMARK                            x       y       z     vdW  Elec       q    Type
REMARK                         _______ _______ _______ _____ _____    ______ ____
ROOT
ATOM      5  C   UNL     1      46.525  18.056  20.907  0.00  0.00    +0.268 C 
ENDROOT
BRANCH   5   6
ATOM      6  C   UNL     1      46.779  17.482  19.512  0.00  0.00    +0.205 C 
ATOM      7  C   UNL     1      46.238  16.052  19.442  0.00  0.00    +0.174 C 
ATOM     10  C   UNL     1      46.549  15.463  18.062  0.00  0.00    +0.167 C 
ATOM     13  C   UNL     1      48.061  15.526  17.822  0.00  0.00    +0.145 C 
ATOM     16  C   UNL     1      48.532  16.977  17.955  0.00  0.00    +0.309 C 
ATOM     21  O   UNL     1      48.183  17.472  19.249  0.00  0.00    -0.382 OA
BRANCH   7   8
ATOM      8  O   UNL     1      44.824  16.065  19.649  0.00  0.00    -0.549 OA
ATOM      9  H   UNL     1      44.558  16.366  20.528  0.00  0.00    +0.398 HD
ENDBRANCH   7   8
BRANCH  10  11
ATOM     11  O   UNL     1      46.111  14.104  18.013  0.00  0.00    -0.554 OA
ATOM     12  H   UNL     1      46.791  13.483  17.717  0.00  0.00    +0.397 HD
ENDBRANCH  10  11
BRANCH  13  14
ATOM     14  O   UNL     1      48.356  15.045  16.509  0.00  0.00    -0.554 OA
ATOM     15  H   UNL     1      47.755  14.355  16.198  0.00  0.00    +0.397 HD
ENDBRANCH  13  14
BRANCH  16  17
ATOM     17  O   UNL     1      49.949  17.035  17.787  0.00  0.00    -0.358 OA
BRANCH  17  18
ATOM     18  C   UNL     1      50.387  18.072  16.907  0.00  0.00    +0.378 C 
BRANCH  18  19
ATOM     19  C   UNL     1      51.604  18.698  17.453  0.00  0.00    +0.205 C 
ATOM     20  N   UNL     1      52.541  19.181  17.874  0.00  0.00    -0.396 NA
ENDBRANCH  18  19
ENDBRANCH  17  18
ENDBRANCH  16  17
ENDBRANCH   5   6
BRANCH   5   4
ATOM      4  O   UNL     1      45.768  19.264  20.795  0.00  0.00    -0.341 OA
BRANCH   4   3
ATOM      3  C   UNL     1      44.427  19.154  20.860  0.00  0.00    +0.515 C 
ATOM     22  O   UNL     1      43.922  18.256  21.504  0.00  0.00    -0.493 OA
BRANCH   3   2
ATOM      1  C   UNL     1      42.449  19.683  19.446  0.00  0.00    +0.081 A 
ATOM      2  C   UNL     1      43.573  20.124  20.151  0.00  0.00    -0.103 A 
ATOM     23  C   UNL     1      43.885  21.485  20.183  0.00  0.00    +0.075 A 
ATOM     24  C   UNL     1      43.082  22.393  19.518  0.00  0.00    +0.084 A 
ATOM     27  C   UNL     1      41.963  21.951  18.816  0.00  0.00    +0.095 A 
ATOM     30  C   UNL     1      41.650  20.595  18.783  0.00  0.00    +0.089 A 
BRANCH  24  25
ATOM     25  O   UNL     1      43.384  23.719  19.548  0.00  0.00    -0.480 OA
ATOM     26  H   UNL     1      42.721  24.264  19.992  0.00  0.00    +0.393 HD
ENDBRANCH  24  25
BRANCH  27  28
ATOM     28  O   UNL     1      41.175  22.846  18.163  0.00  0.00    -0.478 OA
ATOM     29  H   UNL     1      40.230  22.728  18.325  0.00  0.00    +0.397 HD
ENDBRANCH  27  28
BRANCH  30  31
ATOM     31  O   UNL     1      40.556  20.167  18.097  0.00  0.00    -0.484 OA
ATOM     32  H   UNL     1      40.560  20.408  17.161  0.00  0.00    +0.400 HD
ENDBRANCH  30  31
ENDBRANCH   3   2
ENDBRANCH   4   3
ENDBRANCH   5   4
TORSDOF 13
ENDMDL
