MODEL 1
REMARK VINA RESULT:      -5.9      0.000      0.000
REMARK  Name = ZINC14618437
REMARK  9 active torsions:
REMARK  status: ('A' for Active; 'I' for Inactive)
REMARK    1  A    between atoms: C1_1  and  C2_2
REMARK    2  A    between atoms: C3_3  and  O7_30
REMARK    3  A    between atoms: C6_7  and  C7_9
REMARK    4  A    between atoms: C8_10  and  O6_28
REMARK    5  A    between atoms: C12_14  and  O3_15
REMARK    6  A    between atoms: O3_15  and  C13_16
REMARK    7  A    between atoms: C16_20  and  C17_22
REMARK    8  A    between atoms: O6_28  and  C23_29
REMARK    9  A    between atoms: O7_30  and  C24_31
REMARK                            x       y       z     vdW  Elec       q    Type
REMARK                         _______ _______ _______ _____ _____    ______ ____
ROOT
ATOM      9  C   UNL     1      48.754  15.336  17.248  0.00  0.00    -0.161 A 
ATOM     10  C   UNL     1      47.405  15.132  16.905  0.00  0.00    +0.244 A 
ATOM     13  C   UNL     1      46.457  16.099  17.186  0.00  0.00    -0.085 A 
ATOM     14  C   UNL     1      46.826  17.282  17.812  0.00  0.00    +0.229 A 
ATOM     15  C   UNL     1      48.173  17.496  18.159  0.00  0.00    -0.287 A 
ATOM     16  C   UNL     1      48.535  18.760  18.821  0.00  0.00    +0.426 A 
ATOM     17  C   UNL     1      47.494  19.688  19.067  0.00  0.00    -0.136 A 
ATOM     18  C   UNL     1      46.223  19.384  18.692  0.00  0.00    +0.203 A 
ATOM     25  O   UNL     1      49.687  19.000  19.144  0.00  0.00    -0.447 OA
ATOM     26  O   UNL     1      45.906  18.228  18.089  0.00  0.00    -0.216 OA
ATOM     27  C   UNL     1      49.139  16.524  17.879  0.00  0.00    +0.269 A 
ENDROOT
BRANCH   9   8
ATOM      1  C   UNL     1      51.836  13.388  14.000  0.00  0.00    +0.184 C 
ATOM      2  C   UNL     1      51.244  13.359  15.385  0.00  0.00    +0.111 A 
ATOM      3  C   UNL     1      51.645  12.414  16.262  0.00  0.00    -0.089 A 
ATOM      6  C   UNL     1      51.054  12.405  17.606  0.00  0.00    +0.392 A 
ATOM      7  C   UNL     1      50.092  13.392  17.907  0.00  0.00    -0.117 A 
ATOM      8  C   UNL     1      49.757  14.301  16.946  0.00  0.00    +0.208 A 
ATOM     30  O   UNL     1      51.384  11.570  18.436  0.00  0.00    -0.474 OA
ATOM     31  O   UNL     1      50.320  14.268  15.728  0.00  0.00    -0.195 OA
BRANCH   3   4
ATOM      4  O   UNL     1      52.580  11.489  15.907  0.00  0.00    -0.302 OA
ATOM      5  C   UNL     1      52.103  10.277  15.322  0.00  0.00    +0.223 C 
ENDBRANCH   3   4
ENDBRANCH   9   8
BRANCH  18  19
ATOM     19  C   UNL     1      45.151  20.364  18.957  0.00  0.00    -0.075 A 
ATOM     20  C   UNL     1      43.812  19.980  18.869  0.00  0.00    +0.057 A 
ATOM     21  C   UNL     1      42.815  20.899  19.123  0.00  0.00    +0.015 A 
ATOM     22  C   UNL     1      43.141  22.203  19.455  0.00  0.00    +0.039 A 
ATOM     23  C   UNL     1      44.466  22.592  19.540  0.00  0.00    +0.010 A 
ATOM     24  C   UNL     1      45.473  21.682  19.293  0.00  0.00    +0.055 A 
ENDBRANCH  18  19
BRANCH  10  11
ATOM     11  O   UNL     1      47.032  13.981  16.295  0.00  0.00    -0.292 OA
ATOM     12  C   UNL     1      46.206  13.087  17.045  0.00  0.00    +0.266 C 
ENDBRANCH  10  11
BRANCH  27  28
ATOM     28  O   UNL     1      50.436  16.731  18.213  0.00  0.00    -0.312 OA
ATOM     29  C   UNL     1      51.308  17.181  17.173  0.00  0.00    +0.258 C 
ENDBRANCH  27  28
TORSDOF 5
ENDMDL
MODEL 2
REMARK VINA RESULT:      -5.6      1.211      2.024
REMARK  Name = ZINC14618437
REMARK  9 active torsions:
REMARK  status: ('A' for Active; 'I' for Inactive)
REMARK    1  A    between atoms: C1_1  and  C2_2
REMARK    2  A    between atoms: C3_3  and  O7_30
REMARK    3  A    between atoms: C6_7  and  C7_9
REMARK    4  A    between atoms: C8_10  and  O6_28
REMARK    5  A    between atoms: C12_14  and  O3_15
REMARK    6  A    between atoms: O3_15  and  C13_16
REMARK    7  A    between atoms: C16_20  and  C17_22
REMARK    8  A    between atoms: O6_28  and  C23_29
REMARK    9  A    between atoms: O7_30  and  C24_31
REMARK                            x       y       z     vdW  Elec       q    Type
REMARK                         _______ _______ _______ _____ _____    ______ ____
ROOT
ATOM      9  C   UNL     1      48.616  14.523  16.862  0.00  0.00    -0.161 A 
ATOM     10  C   UNL     1      47.221  14.340  16.860  0.00  0.00    +0.244 A 
ATOM     13  C   UNL     1      46.379  15.367  17.244  0.00  0.00    -0.085 A 
ATOM     14  C   UNL     1      46.902  16.592  17.635  0.00  0.00    +0.229 A 
ATOM     15  C   UNL     1      48.295  16.787  17.641  0.00  0.00    -0.287 A 
ATOM     16  C   UNL     1      48.820  18.096  18.061  0.00  0.00    +0.426 A 
ATOM     17  C   UNL     1      47.879  19.086  18.435  0.00  0.00    -0.136 A 
ATOM     18  C   UNL     1      46.552  18.797  18.396  0.00  0.00    +0.203 A 
ATOM     25  O   UNL     1      50.019  18.322  18.083  0.00  0.00    -0.447 OA
ATOM     26  O   UNL     1      46.085  17.599  18.010  0.00  0.00    -0.216 OA
ATOM     27  C   UNL     1      49.155  15.753  17.254  0.00  0.00    +0.269 A 
ENDROOT
BRANCH   9   8
ATOM      1  C   UNL     1      51.117  10.530  18.146  0.00  0.00    +0.184 C 
ATOM      2  C   UNL     1      50.710  11.498  17.065  0.00  0.00    +0.111 A 
ATOM      3  C   UNL     1      51.165  11.321  15.806  0.00  0.00    -0.089 A 
ATOM      6  C   UNL     1      50.757  12.277  14.770  0.00  0.00    +0.392 A 
ATOM      7  C   UNL     1      49.906  13.336  15.151  0.00  0.00    -0.117 A 
ATOM      8  C   UNL     1      49.505  13.423  16.452  0.00  0.00    +0.208 A 
ATOM     30  O   UNL     1      51.143  12.160  13.615  0.00  0.00    -0.474 OA
ATOM     31  O   UNL     1      49.907  12.528  17.368  0.00  0.00    -0.195 OA
BRANCH   3   4
ATOM      4  O   UNL     1      51.986  10.277  15.505  0.00  0.00    -0.302 OA
ATOM      5  C   UNL     1      53.378  10.565  15.364  0.00  0.00    +0.223 C 
ENDBRANCH   3   4
ENDBRANCH   9   8
BRANCH  18  19
ATOM     19  C   UNL     1      45.586  19.841  18.791  0.00  0.00    -0.075 A 
ATOM     20  C   UNL     1      46.018  21.151  19.008  0.00  0.00    +0.057 A 
ATOM     21  C   UNL     1      45.110  22.123  19.372  0.00  0.00    +0.015 A 
ATOM     22  C   UNL     1      43.773  21.800  19.531  0.00  0.00    +0.039 A 
ATOM     23  C   UNL     1      43.338  20.503  19.322  0.00  0.00    +0.010 A 
ATOM     24  C   UNL     1      44.235  19.523  18.954  0.00  0.00    +0.055 A 
ENDBRANCH  18  19
BRANCH  10  11
ATOM     11  O   UNL     1      46.699  13.148  16.480  0.00  0.00    -0.292 OA
ATOM     12  C   UNL     1      46.064  12.365  17.494  0.00  0.00    +0.266 C 
ENDBRANCH  10  11
BRANCH  27  28
ATOM     28  O   UNL     1      50.497  15.941  17.258  0.00  0.00    -0.312 OA
ATOM     29  C   UNL     1      51.220  15.421  18.376  0.00  0.00    +0.258 C 
ENDBRANCH  27  28
TORSDOF 5
ENDMDL
MODEL 3
REMARK VINA RESULT:      -5.5      1.469      3.186
REMARK  Name = ZINC14618437
REMARK  9 active torsions:
REMARK  status: ('A' for Active; 'I' for Inactive)
REMARK    1  A    between atoms: C1_1  and  C2_2
REMARK    2  A    between atoms: C3_3  and  O7_30
REMARK    3  A    between atoms: C6_7  and  C7_9
REMARK    4  A    between atoms: C8_10  and  O6_28
REMARK    5  A    between atoms: C12_14  and  O3_15
REMARK    6  A    between atoms: O3_15  and  C13_16
REMARK    7  A    between atoms: C16_20  and  C17_22
REMARK    8  A    between atoms: O6_28  and  C23_29
REMARK    9  A    between atoms: O7_30  and  C24_31
REMARK                            x       y       z     vdW  Elec       q    Type
REMARK                         _______ _______ _______ _____ _____    ______ ____
ROOT
ATOM      9  C   UNL     1      49.585  14.915  17.167  0.00  0.00    -0.161 A 
ATOM     10  C   UNL     1      50.137  16.194  16.969  0.00  0.00    +0.244 A 
ATOM     13  C   UNL     1      49.410  17.327  17.285  0.00  0.00    -0.085 A 
ATOM     14  C   UNL     1      48.127  17.215  17.802  0.00  0.00    +0.229 A 
ATOM     15  C   UNL     1      47.565  15.941  18.004  0.00  0.00    -0.287 A 
ATOM     16  C   UNL     1      46.202  15.854  18.553  0.00  0.00    +0.426 A 
ATOM     17  C   UNL     1      45.538  17.070  18.845  0.00  0.00    -0.136 A 
ATOM     18  C   UNL     1      46.169  18.251  18.612  0.00  0.00    +0.203 A 
ATOM     25  O   UNL     1      45.665  14.776  18.750  0.00  0.00    -0.447 OA
ATOM     26  O   UNL     1      47.413  18.318  18.111  0.00  0.00    -0.216 OA
ATOM     27  C   UNL     1      48.292  14.789  17.687  0.00  0.00    +0.269 A 
ENDROOT
BRANCH   9   8
ATOM      1  C   UNL     1      53.094  11.767  18.439  0.00  0.00    +0.184 C 
ATOM      2  C   UNL     1      52.054  12.193  17.435  0.00  0.00    +0.111 A 
ATOM      3  C   UNL     1      51.889  11.478  16.302  0.00  0.00    -0.089 A 
ATOM      6  C   UNL     1      50.870  11.914  15.339  0.00  0.00    +0.392 A 
ATOM      7  C   UNL     1      50.117  13.064  15.654  0.00  0.00    -0.117 A 
ATOM      8  C   UNL     1      50.366  13.714  16.828  0.00  0.00    +0.208 A 
ATOM     30  O   UNL     1      50.682  11.300  14.298  0.00  0.00    -0.474 OA
ATOM     31  O   UNL     1      51.311  13.283  17.677  0.00  0.00    -0.195 OA
BRANCH   3   4
ATOM      4  O   UNL     1      52.650  10.376  16.059  0.00  0.00    -0.302 OA
ATOM      5  C   UNL     1      53.670  10.498  15.066  0.00  0.00    +0.223 C 
ENDBRANCH   3   4
ENDBRANCH   9   8
BRANCH  18  19
ATOM     19  C   UNL     1      45.461  19.509  18.923  0.00  0.00    -0.075 A 
ATOM     20  C   UNL     1      46.133  20.730  18.844  0.00  0.00    +0.057 A 
ATOM     21  C   UNL     1      45.464  21.902  19.130  0.00  0.00    +0.015 A 
ATOM     22  C   UNL     1      44.132  21.867  19.506  0.00  0.00    +0.039 A 
ATOM     23  C   UNL     1      43.461  20.660  19.590  0.00  0.00    +0.010 A 
ATOM     24  C   UNL     1      44.117  19.481  19.302  0.00  0.00    +0.055 A 
ENDBRANCH  18  19
BRANCH  10  11
ATOM     11  O   UNL     1      51.389  16.315  16.465  0.00  0.00    -0.292 OA
ATOM     12  C   UNL     1      51.838  17.637  16.155  0.00  0.00    +0.266 C 
ENDBRANCH  10  11
BRANCH  27  28
ATOM     28  O   UNL     1      47.751  13.563  17.884  0.00  0.00    -0.312 OA
ATOM     29  C   UNL     1      48.141  12.865  19.070  0.00  0.00    +0.258 C 
ENDBRANCH  27  28
TORSDOF 5
ENDMDL
MODEL 4
REMARK VINA RESULT:      -5.4      1.381      2.826
REMARK  Name = ZINC14618437
REMARK  9 active torsions:
REMARK  status: ('A' for Active; 'I' for Inactive)
REMARK    1  A    between atoms: C1_1  and  C2_2
REMARK    2  A    between atoms: C3_3  and  O7_30
REMARK    3  A    between atoms: C6_7  and  C7_9
REMARK    4  A    between atoms: C8_10  and  O6_28
REMARK    5  A    between atoms: C12_14  and  O3_15
REMARK    6  A    between atoms: O3_15  and  C13_16
REMARK    7  A    between atoms: C16_20  and  C17_22
REMARK    8  A    between atoms: O6_28  and  C23_29
REMARK    9  A    between atoms: O7_30  and  C24_31
REMARK                            x       y       z     vdW  Elec       q    Type
REMARK                         _______ _______ _______ _____ _____    ______ ____
ROOT
ATOM      9  C   UNL     1      49.316  15.754  17.485  0.00  0.00    -0.161 A 
ATOM     10  C   UNL     1      50.069  16.933  17.329  0.00  0.00    +0.244 A 
ATOM     13  C   UNL     1      49.570  18.145  17.768  0.00  0.00    -0.085 A 
ATOM     14  C   UNL     1      48.320  18.214  18.367  0.00  0.00    +0.229 A 
ATOM     15  C   UNL     1      47.559  17.041  18.529  0.00  0.00    -0.287 A 
ATOM     16  C   UNL     1      46.237  17.145  19.168  0.00  0.00    +0.426 A 
ATOM     17  C   UNL     1      45.813  18.430  19.584  0.00  0.00    -0.136 A 
ATOM     18  C   UNL     1      46.625  19.501  19.381  0.00  0.00    +0.203 A 
ATOM     25  O   UNL     1      45.534  16.161  19.335  0.00  0.00    -0.447 OA
ATOM     26  O   UNL     1      47.829  19.395  18.797  0.00  0.00    -0.216 OA
ATOM     27  C   UNL     1      48.055  15.810  18.088  0.00  0.00    +0.269 A 
ENDROOT
BRANCH   9   8
ATOM      1  C   UNL     1      49.696  12.507  13.857  0.00  0.00    +0.184 C 
ATOM      2  C   UNL     1      50.042  12.900  15.271  0.00  0.00    +0.111 A 
ATOM      3  C   UNL     1      50.808  12.080  16.022  0.00  0.00    -0.089 A 
ATOM      6  C   UNL     1      51.132  12.483  17.396  0.00  0.00    +0.392 A 
ATOM      7  C   UNL     1      50.620  13.714  17.857  0.00  0.00    -0.117 A 
ATOM      8  C   UNL     1      49.855  14.467  17.015  0.00  0.00    +0.208 A 
ATOM     30  O   UNL     1      51.821  11.775  18.116  0.00  0.00    -0.474 OA
ATOM     31  O   UNL     1      49.580  14.057  15.767  0.00  0.00    -0.195 OA
BRANCH   3   4
ATOM      4  O   UNL     1      51.270  10.904  15.514  0.00  0.00    -0.302 OA
ATOM      5  C   UNL     1      52.606  10.896  15.008  0.00  0.00    +0.223 C 
ENDBRANCH   3   4
ENDBRANCH   9   8
BRANCH  18  19
ATOM     19  C   UNL     1      46.165  20.834  19.821  0.00  0.00    -0.075 A 
ATOM     20  C   UNL     1      45.142  21.486  19.130  0.00  0.00    +0.057 A 
ATOM     21  C   UNL     1      44.714  22.729  19.550  0.00  0.00    +0.015 A 
ATOM     22  C   UNL     1      45.303  23.333  20.646  0.00  0.00    +0.039 A 
ATOM     23  C   UNL     1      46.321  22.695  21.333  0.00  0.00    +0.010 A 
ATOM     24  C   UNL     1      46.756  21.450  20.927  0.00  0.00    +0.055 A 
ENDBRANCH  18  19
BRANCH  10  11
ATOM     11  O   UNL     1      51.290  16.878  16.745  0.00  0.00    -0.292 OA
ATOM     12  C   UNL     1      51.770  18.077  16.130  0.00  0.00    +0.266 C 
ENDBRANCH  10  11
BRANCH  27  28
ATOM     28  O   UNL     1      47.322  14.681  18.245  0.00  0.00    -0.312 OA
ATOM     29  C   UNL     1      46.587  14.223  17.108  0.00  0.00    +0.258 C 
ENDBRANCH  27  28
TORSDOF 5
ENDMDL
MODEL 5
REMARK VINA RESULT:      -5.3      1.900      9.152
REMARK  Name = ZINC14618437
REMARK  9 active torsions:
REMARK  status: ('A' for Active; 'I' for Inactive)
REMARK    1  A    between atoms: C1_1  and  C2_2
REMARK    2  A    between atoms: C3_3  and  O7_30
REMARK    3  A    between atoms: C6_7  and  C7_9
REMARK    4  A    between atoms: C8_10  and  O6_28
REMARK    5  A    between atoms: C12_14  and  O3_15
REMARK    6  A    between atoms: O3_15  and  C13_16
REMARK    7  A    between atoms: C16_20  and  C17_22
REMARK    8  A    between atoms: O6_28  and  C23_29
REMARK    9  A    between atoms: O7_30  and  C24_31
REMARK                            x       y       z     vdW  Elec       q    Type
REMARK                         _______ _______ _______ _____ _____    ______ ____
ROOT
ATOM      9  C   UNL     1      47.512  17.149  18.405  0.00  0.00    -0.161 A 
ATOM     10  C   UNL     1      48.813  17.479  17.983  0.00  0.00    +0.244 A 
ATOM     13  C   UNL     1      49.600  16.542  17.340  0.00  0.00    -0.085 A 
ATOM     14  C   UNL     1      49.115  15.263  17.104  0.00  0.00    +0.229 A 
ATOM     15  C   UNL     1      47.815  14.922  17.521  0.00  0.00    -0.287 A 
ATOM     16  C   UNL     1      47.328  13.559  17.257  0.00  0.00    +0.426 A 
ATOM     17  C   UNL     1      48.207  12.670  16.592  0.00  0.00    -0.136 A 
ATOM     18  C   UNL     1      49.445  13.098  16.230  0.00  0.00    +0.203 A 
ATOM     25  O   UNL     1      46.209  13.208  17.595  0.00  0.00    -0.447 OA
ATOM     26  O   UNL     1      49.879  14.345  16.476  0.00  0.00    -0.216 OA
ATOM     27  C   UNL     1      47.012  15.864  18.173  0.00  0.00    +0.269 A 
ENDROOT
BRANCH   9   8
ATOM      1  C   UNL     1      46.616  19.698  22.473  0.00  0.00    +0.184 C 
ATOM      2  C   UNL     1      46.246  19.385  21.046  0.00  0.00    +0.111 A 
ATOM      3  C   UNL     1      45.200  20.019  20.475  0.00  0.00    -0.089 A 
ATOM      6  C   UNL     1      44.857  19.698  19.084  0.00  0.00    +0.392 A 
ATOM      7  C   UNL     1      45.647  18.736  18.419  0.00  0.00    -0.117 A 
ATOM      8  C   UNL     1      46.682  18.154  19.090  0.00  0.00    +0.208 A 
ATOM     30  O   UNL     1      43.919  20.244  18.522  0.00  0.00    -0.474 OA
ATOM     31  O   UNL     1      46.956  18.475  20.364  0.00  0.00    -0.195 OA
BRANCH   3   4
ATOM      4  O   UNL     1      44.479  20.939  21.174  0.00  0.00    -0.302 OA
ATOM      5  C   UNL     1      44.764  22.315  20.922  0.00  0.00    +0.223 C 
ENDBRANCH   3   4
ENDBRANCH   9   8
BRANCH  18  19
ATOM     19  C   UNL     1      50.348  12.157  15.538  0.00  0.00    -0.075 A 
ATOM     20  C   UNL     1      51.707  12.124  15.858  0.00  0.00    +0.057 A 
ATOM     21  C   UNL     1      52.544  11.239  15.212  0.00  0.00    +0.015 A 
ATOM     22  C   UNL     1      52.042  10.391  14.240  0.00  0.00    +0.039 A 
ATOM     23  C   UNL     1      50.697  10.421  13.914  0.00  0.00    +0.010 A 
ATOM     24  C   UNL     1      49.848  11.298  14.556  0.00  0.00    +0.055 A 
ENDBRANCH  18  19
BRANCH  10  11
ATOM     11  O   UNL     1      49.298  18.725  18.210  0.00  0.00    -0.292 OA
ATOM     12  C   UNL     1      50.600  19.018  17.696  0.00  0.00    +0.266 C 
ENDBRANCH  10  11
BRANCH  27  28
ATOM     28  O   UNL     1      45.760  15.535  18.573  0.00  0.00    -0.312 OA
ATOM     29  C   UNL     1      45.576  15.259  19.964  0.00  0.00    +0.258 C 
ENDBRANCH  27  28
TORSDOF 5
ENDMDL
MODEL 6
REMARK VINA RESULT:      -5.0      1.971      8.849
REMARK  Name = ZINC14618437
REMARK  9 active torsions:
REMARK  status: ('A' for Active; 'I' for Inactive)
REMARK    1  A    between atoms: C1_1  and  C2_2
REMARK    2  A    between atoms: C3_3  and  O7_30
REMARK    3  A    between atoms: C6_7  and  C7_9
REMARK    4  A    between atoms: C8_10  and  O6_28
REMARK    5  A    between atoms: C12_14  and  O3_15
REMARK    6  A    between atoms: O3_15  and  C13_16
REMARK    7  A    between atoms: C16_20  and  C17_22
REMARK    8  A    between atoms: O6_28  and  C23_29
REMARK    9  A    between atoms: O7_30  and  C24_31
REMARK                            x       y       z     vdW  Elec       q    Type
REMARK                         _______ _______ _______ _____ _____    ______ ____
ROOT
ATOM      9  C   UNL     1      47.311  16.957  18.979  0.00  0.00    -0.161 A 
ATOM     10  C   UNL     1      46.927  15.631  19.250  0.00  0.00    +0.244 A 
ATOM     13  C   UNL     1      47.725  14.575  18.853  0.00  0.00    -0.085 A 
ATOM     14  C   UNL     1      48.917  14.811  18.181  0.00  0.00    +0.229 A 
ATOM     15  C   UNL     1      49.311  16.133  17.904  0.00  0.00    -0.287 A 
ATOM     16  C   UNL     1      50.580  16.352  17.191  0.00  0.00    +0.426 A 
ATOM     17  C   UNL     1      51.329  15.207  16.825  0.00  0.00    -0.136 A 
ATOM     18  C   UNL     1      50.858  13.971  17.139  0.00  0.00    +0.203 A 
ATOM     25  O   UNL     1      50.973  17.477  16.925  0.00  0.00    -0.447 OA
ATOM     26  O   UNL     1      49.700  13.784  17.791  0.00  0.00    -0.216 OA
ATOM     27  C   UNL     1      48.510  17.208  18.302  0.00  0.00    +0.269 A 
ENDROOT
BRANCH   9   8
ATOM      1  C   UNL     1      46.239  20.277  22.396  0.00  0.00    +0.184 C 
ATOM      2  C   UNL     1      45.934  19.678  21.047  0.00  0.00    +0.111 A 
ATOM      3  C   UNL     1      44.919  20.178  20.310  0.00  0.00    -0.089 A 
ATOM      6  C   UNL     1      44.640  19.578  19.000  0.00  0.00    +0.392 A 
ATOM      7  C   UNL     1      45.455  18.505  18.581  0.00  0.00    -0.117 A 
ATOM      8  C   UNL     1      46.454  18.076  19.405  0.00  0.00    +0.208 A 
ATOM     30  O   UNL     1      43.732  19.995  18.295  0.00  0.00    -0.474 OA
ATOM     31  O   UNL     1      46.671  18.652  20.598  0.00  0.00    -0.195 OA
BRANCH   3   4
ATOM      4  O   UNL     1      44.171  21.217  20.773  0.00  0.00    -0.302 OA
ATOM      5  C   UNL     1      44.484  22.517  20.270  0.00  0.00    +0.223 C 
ENDBRANCH   3   4
ENDBRANCH   9   8
BRANCH  18  19
ATOM     19  C   UNL     1      51.652  12.789  16.749  0.00  0.00    -0.075 A 
ATOM     20  C   UNL     1      52.332  12.050  17.719  0.00  0.00    +0.057 A 
ATOM     21  C   UNL     1      53.068  10.944  17.349  0.00  0.00    +0.015 A 
ATOM     22  C   UNL     1      53.142  10.572  16.018  0.00  0.00    +0.039 A 
ATOM     23  C   UNL     1      52.474  11.302  15.050  0.00  0.00    +0.010 A 
ATOM     24  C   UNL     1      51.731  12.408  15.408  0.00  0.00    +0.055 A 
ENDBRANCH  18  19
BRANCH  10  11
ATOM     11  O   UNL     1      45.765  15.389  19.905  0.00  0.00    -0.292 OA
ATOM     12  C   UNL     1      45.337  14.027  19.985  0.00  0.00    +0.266 C 
ENDBRANCH  10  11
BRANCH  27  28
ATOM     28  O   UNL     1      48.892  18.481  18.037  0.00  0.00    -0.312 OA
ATOM     29  C   UNL     1      49.572  19.184  19.080  0.00  0.00    +0.258 C 
ENDBRANCH  27  28
TORSDOF 5
ENDMDL
MODEL 7
REMARK VINA RESULT:      -5.0      2.910      4.539
REMARK  Name = ZINC14618437
REMARK  9 active torsions:
REMARK  status: ('A' for Active; 'I' for Inactive)
REMARK    1  A    between atoms: C1_1  and  C2_2
REMARK    2  A    between atoms: C3_3  and  O7_30
REMARK    3  A    between atoms: C6_7  and  C7_9
REMARK    4  A    between atoms: C8_10  and  O6_28
REMARK    5  A    between atoms: C12_14  and  O3_15
REMARK    6  A    between atoms: O3_15  and  C13_16
REMARK    7  A    between atoms: C16_20  and  C17_22
REMARK    8  A    between atoms: O6_28  and  C23_29
REMARK    9  A    between atoms: O7_30  and  C24_31
REMARK                            x       y       z     vdW  Elec       q    Type
REMARK                         _______ _______ _______ _____ _____    ______ ____
ROOT
ATOM      9  C   UNL     1      48.768  17.837  19.596  0.00  0.00    -0.161 A 
ATOM     10  C   UNL     1      48.791  19.085  18.947  0.00  0.00    +0.244 A 
ATOM     13  C   UNL     1      47.619  19.786  18.734  0.00  0.00    -0.085 A 
ATOM     14  C   UNL     1      46.404  19.264  19.157  0.00  0.00    +0.229 A 
ATOM     15  C   UNL     1      46.369  18.017  19.807  0.00  0.00    -0.287 A 
ATOM     16  C   UNL     1      45.066  17.489  20.245  0.00  0.00    +0.426 A 
ATOM     17  C   UNL     1      43.921  18.280  19.982  0.00  0.00    -0.136 A 
ATOM     18  C   UNL     1      44.063  19.473  19.346  0.00  0.00    +0.203 A 
ATOM     25  O   UNL     1      44.976  16.414  20.814  0.00  0.00    -0.447 OA
ATOM     26  O   UNL     1      45.257  19.944  18.951  0.00  0.00    -0.216 OA
ATOM     27  C   UNL     1      47.550  17.301  20.027  0.00  0.00    +0.269 A 
ENDROOT
BRANCH   9   8
ATOM      1  C   UNL     1      51.744  14.225  18.200  0.00  0.00    +0.184 C 
ATOM      2  C   UNL     1      51.460  15.360  19.150  0.00  0.00    +0.111 A 
ATOM      3  C   UNL     1      52.340  15.641  20.134  0.00  0.00    -0.089 A 
ATOM      6  C   UNL     1      52.041  16.750  21.048  0.00  0.00    +0.392 A 
ATOM      7  C   UNL     1      50.843  17.465  20.844  0.00  0.00    -0.117 A 
ATOM      8  C   UNL     1      50.022  17.097  19.818  0.00  0.00    +0.208 A 
ATOM     30  O   UNL     1      52.807  17.044  21.956  0.00  0.00    -0.474 OA
ATOM     31  O   UNL     1      50.332  16.072  19.009  0.00  0.00    -0.195 OA
BRANCH   3   4
ATOM      4  O   UNL     1      53.480  14.910  20.276  0.00  0.00    -0.302 OA
ATOM      5  C   UNL     1      54.675  15.459  19.718  0.00  0.00    +0.223 C 
ENDBRANCH   3   4
ENDBRANCH   9   8
BRANCH  18  19
ATOM     19  C   UNL     1      42.858  20.283  19.079  0.00  0.00    -0.075 A 
ATOM     20  C   UNL     1      41.658  19.662  18.727  0.00  0.00    +0.057 A 
ATOM     21  C   UNL     1      40.535  20.424  18.484  0.00  0.00    +0.015 A 
ATOM     22  C   UNL     1      40.597  21.803  18.580  0.00  0.00    +0.039 A 
ATOM     23  C   UNL     1      41.783  22.427  18.924  0.00  0.00    +0.010 A 
ATOM     24  C   UNL     1      42.913  21.676  19.174  0.00  0.00    +0.055 A 
ENDBRANCH  18  19
BRANCH  10  11
ATOM     11  O   UNL     1      49.972  19.603  18.529  0.00  0.00    -0.292 OA
ATOM     12  C   UNL     1      50.353  20.870  19.071  0.00  0.00    +0.266 C 
ENDBRANCH  10  11
BRANCH  27  28
ATOM     28  O   UNL     1      47.516  16.100  20.655  0.00  0.00    -0.312 OA
ATOM     29  C   UNL     1      47.797  16.093  22.057  0.00  0.00    +0.258 C 
ENDBRANCH  27  28
TORSDOF 5
ENDMDL
MODEL 8
REMARK VINA RESULT:      -5.0      1.536      3.433
REMARK  Name = ZINC14618437
REMARK  9 active torsions:
REMARK  status: ('A' for Active; 'I' for Inactive)
REMARK    1  A    between atoms: C1_1  and  C2_2
REMARK    2  A    between atoms: C3_3  and  O7_30
REMARK    3  A    between atoms: C6_7  and  C7_9
REMARK    4  A    between atoms: C8_10  and  O6_28
REMARK    5  A    between atoms: C12_14  and  O3_15
REMARK    6  A    between atoms: O3_15  and  C13_16
REMARK    7  A    between atoms: C16_20  and  C17_22
REMARK    8  A    between atoms: O6_28  and  C23_29
REMARK    9  A    between atoms: O7_30  and  C24_31
REMARK                            x       y       z     vdW  Elec       q    Type
REMARK                         _______ _______ _______ _____ _____    ______ ____
ROOT
ATOM      9  C   UNL     1      49.744  15.785  18.412  0.00  0.00    -0.161 A 
ATOM     10  C   UNL     1      50.495  16.637  19.242  0.00  0.00    +0.244 A 
ATOM     13  C   UNL     1      49.962  17.834  19.685  0.00  0.00    -0.085 A 
ATOM     14  C   UNL     1      48.678  18.208  19.315  0.00  0.00    +0.229 A 
ATOM     15  C   UNL     1      47.917  17.364  18.485  0.00  0.00    -0.287 A 
ATOM     16  C   UNL     1      46.558  17.787  18.110  0.00  0.00    +0.426 A 
ATOM     17  C   UNL     1      46.100  19.029  18.613  0.00  0.00    -0.136 A 
ATOM     18  C   UNL     1      46.915  19.772  19.407  0.00  0.00    +0.203 A 
ATOM     25  O   UNL     1      45.852  17.095  17.394  0.00  0.00    -0.447 OA
ATOM     26  O   UNL     1      48.153  19.375  19.743  0.00  0.00    -0.216 OA
ATOM     27  C   UNL     1      48.448  16.152  18.033  0.00  0.00    +0.269 A 
ENDROOT
BRANCH   9   8
ATOM      1  C   UNL     1      50.750  11.103  19.367  0.00  0.00    +0.184 C 
ATOM      2  C   UNL     1      50.806  12.257  18.399  0.00  0.00    +0.111 A 
ATOM      3  C   UNL     1      51.365  12.080  17.183  0.00  0.00    -0.089 A 
ATOM      6  C   UNL     1      51.409  13.219  16.257  0.00  0.00    +0.392 A 
ATOM      7  C   UNL     1      50.860  14.443  16.694  0.00  0.00    -0.117 A 
ATOM      8  C   UNL     1      50.320  14.513  17.945  0.00  0.00    +0.208 A 
ATOM     30  O   UNL     1      51.905  13.110  15.145  0.00  0.00    -0.474 OA
ATOM     31  O   UNL     1      50.306  13.447  18.761  0.00  0.00    -0.195 OA
BRANCH   3   4
ATOM      4  O   UNL     1      51.877  10.871  16.823  0.00  0.00    -0.302 OA
ATOM      5  C   UNL     1      53.278  10.675  17.020  0.00  0.00    +0.223 C 
ENDBRANCH   3   4
ENDBRANCH   9   8
BRANCH  18  19
ATOM     19  C   UNL     1      46.420  21.064  19.922  0.00  0.00    -0.075 A 
ATOM     20  C   UNL     1      47.010  21.643  21.047  0.00  0.00    +0.057 A 
ATOM     21  C   UNL     1      46.546  22.853  21.520  0.00  0.00    +0.015 A 
ATOM     22  C   UNL     1      45.492  23.488  20.886  0.00  0.00    +0.039 A 
ATOM     23  C   UNL     1      44.899  22.918  19.773  0.00  0.00    +0.010 A 
ATOM     24  C   UNL     1      45.356  21.711  19.288  0.00  0.00    +0.055 A 
ENDBRANCH  18  19
BRANCH  10  11
ATOM     11  O   UNL     1      51.751  16.282  19.609  0.00  0.00    -0.292 OA
ATOM     12  C   UNL     1      52.824  17.089  19.116  0.00  0.00    +0.266 C 
ENDBRANCH  10  11
BRANCH  27  28
ATOM     28  O   UNL     1      47.714  15.338  17.235  0.00  0.00    -0.312 OA
ATOM     29  C   UNL     1      47.116  14.195  17.852  0.00  0.00    +0.258 C 
ENDBRANCH  27  28
TORSDOF 5
ENDMDL
MODEL 9
REMARK VINA RESULT:      -4.9      2.598      3.413
REMARK  Name = ZINC14618437
REMARK  9 active torsions:
REMARK  status: ('A' for Active; 'I' for Inactive)
REMARK    1  A    between atoms: C1_1  and  C2_2
REMARK    2  A    between atoms: C3_3  and  O7_30
REMARK    3  A    between atoms: C6_7  and  C7_9
REMARK    4  A    between atoms: C8_10  and  O6_28
REMARK    5  A    between atoms: C12_14  and  O3_15
REMARK    6  A    between atoms: O3_15  and  C13_16
REMARK    7  A    between atoms: C16_20  and  C17_22
REMARK    8  A    between atoms: O6_28  and  C23_29
REMARK    9  A    between atoms: O7_30  and  C24_31
REMARK                            x       y       z     vdW  Elec       q    Type
REMARK                         _______ _______ _______ _____ _____    ______ ____
ROOT
ATOM      9  C   UNL     1      48.035  16.850  19.238  0.00  0.00    -0.161 A 
ATOM     10  C   UNL     1      47.352  16.678  18.020  0.00  0.00    +0.244 A 
ATOM     13  C   UNL     1      46.177  17.363  17.772  0.00  0.00    -0.085 A 
ATOM     14  C   UNL     1      45.656  18.228  18.724  0.00  0.00    +0.229 A 
ATOM     15  C   UNL     1      46.330  18.408  19.946  0.00  0.00    -0.287 A 
ATOM     16  C   UNL     1      45.754  19.333  20.936  0.00  0.00    +0.426 A 
ATOM     17  C   UNL     1      44.546  19.988  20.591  0.00  0.00    -0.136 A 
ATOM     18  C   UNL     1      43.974  19.744  19.383  0.00  0.00    +0.203 A 
ATOM     25  O   UNL     1      46.295  19.529  22.012  0.00  0.00    -0.447 OA
ATOM     26  O   UNL     1      44.509  18.899  18.487  0.00  0.00    -0.216 OA
ATOM     27  C   UNL     1      47.520  17.720  20.206  0.00  0.00    +0.269 A 
ENDROOT
BRANCH   9   8
ATOM      1  C   UNL     1      52.894  16.676  18.784  0.00  0.00    +0.184 C 
ATOM      2  C   UNL     1      51.626  16.028  19.279  0.00  0.00    +0.111 A 
ATOM      3  C   UNL     1      51.690  14.839  19.915  0.00  0.00    -0.089 A 
ATOM      6  C   UNL     1      50.442  14.226  20.388  0.00  0.00    +0.392 A 
ATOM      7  C   UNL     1      49.238  14.920  20.148  0.00  0.00    -0.117 A 
ATOM      8  C   UNL     1      49.285  16.117  19.494  0.00  0.00    +0.208 A 
ATOM     30  O   UNL     1      50.448  13.151  20.969  0.00  0.00    -0.474 OA
ATOM     31  O   UNL     1      50.449  16.637  19.074  0.00  0.00    -0.195 OA
BRANCH   3   4
ATOM      4  O   UNL     1      52.887  14.221  20.115  0.00  0.00    -0.302 OA
ATOM      5  C   UNL     1      53.239  13.178  19.205  0.00  0.00    +0.223 C 
ENDBRANCH   3   4
ENDBRANCH   9   8
BRANCH  18  19
ATOM     19  C   UNL     1      42.715  20.436  19.041  0.00  0.00    -0.075 A 
ATOM     20  C   UNL     1      41.595  19.701  18.648  0.00  0.00    +0.057 A 
ATOM     21  C   UNL     1      40.421  20.353  18.335  0.00  0.00    +0.015 A 
ATOM     22  C   UNL     1      40.355  21.734  18.400  0.00  0.00    +0.039 A 
ATOM     23  C   UNL     1      41.462  22.470  18.784  0.00  0.00    +0.010 A 
ATOM     24  C   UNL     1      42.641  21.830  19.104  0.00  0.00    +0.055 A 
ENDBRANCH  18  19
BRANCH  10  11
ATOM     11  O   UNL     1      47.852  15.835  17.083  0.00  0.00    -0.292 OA
ATOM     12  C   UNL     1      46.958  14.852  16.553  0.00  0.00    +0.266 C 
ENDBRANCH  10  11
BRANCH  27  28
ATOM     28  O   UNL     1      48.169  17.895  21.382  0.00  0.00    -0.312 OA
ATOM     29  C   UNL     1      49.264  18.815  21.387  0.00  0.00    +0.258 C 
ENDBRANCH  27  28
TORSDOF 5
ENDMDL
