MODEL 1
REMARK VINA RESULT:      -6.5      0.000      0.000
REMARK  Name = ZINC13359332
REMARK  11 active torsions:
REMARK  status: ('A' for Active; 'I' for Inactive)
REMARK    1  A    between atoms: C1_1  and  C2_2
REMARK    2  A    between atoms: C8_8  and  O4_30
REMARK    3  A    between atoms: C10_10  and  O3_29
REMARK    4  A    between atoms: C11_11  and  C12_12
REMARK    5  A    between atoms: C13_13  and  O2_27
REMARK    6  A    between atoms: C15_15  and  O1_25
REMARK    7  A    between atoms: C19_19  and  C22_24
REMARK    8  A    between atoms: C20_22  and  C21_23
REMARK    9  A    between atoms: O1_25  and  C23_26
REMARK   10  A    between atoms: O2_27  and  C24_28
REMARK   11  A    between atoms: O4_30  and  C25_31
REMARK                            x       y       z     vdW  Elec       q    Type
REMARK                         _______ _______ _______ _____ _____    ______ ____
ROOT
ATOM     16  C   UNL     1      47.504  19.347  19.729  0.00  0.00    -0.100 A 
ATOM     17  C   UNL     1      48.149  20.528  20.129  0.00  0.00    +0.197 A 
ATOM     20  C   UNL     1      49.384  20.863  19.599  0.00  0.00    -0.168 A 
ATOM     21  C   UNL     1      49.988  20.040  18.661  0.00  0.00    +0.208 A 
ATOM     24  C   UNL     1      49.348  18.863  18.253  0.00  0.00    -0.185 A 
ATOM     25  C   UNL     1      49.956  17.964  17.260  0.00  0.00    +0.229 C 
ATOM     26  C   UNL     1      51.048  18.469  16.352  0.00  0.00    +0.137 C 
ATOM     27  N   UNL     1      49.551  16.740  17.169  0.00  0.00    -0.523 NA
ATOM     28  C   UNL     1      48.510  16.198  18.036  0.00  0.00    +0.153 C 
ATOM     29  C   UNL     1      47.854  15.001  17.344  0.00  0.00    +0.052 C 
ATOM     30  C   UNL     1      47.441  17.248  18.336  0.00  0.00    +0.077 C 
ATOM     31  C   UNL     1      48.103  18.522  18.793  0.00  0.00    +0.035 A 
ENDROOT
BRANCH  16  15
ATOM      1  C   UNL     1      47.386  17.596  22.015  0.00  0.00    +0.094 C 
ATOM      2  C   UNL     1      46.115  18.139  21.414  0.00  0.00    -0.033 A 
ATOM      3  C   UNL     1      44.918  17.797  21.959  0.00  0.00    +0.001 A 
ATOM      4  C   UNL     1      43.723  18.297  21.408  0.00  0.00    +0.005 A 
ATOM      5  C   UNL     1      42.475  17.955  21.956  0.00  0.00    -0.025 A 
ATOM      6  C   UNL     1      41.333  18.451  21.406  0.00  0.00    +0.059 A 
ATOM      7  C   UNL     1      41.374  19.298  20.303  0.00  0.00    -0.105 A 
ATOM      8  C   UNL     1      42.578  19.656  19.736  0.00  0.00    +0.158 A 
ATOM     11  C   UNL     1      43.778  19.163  20.286  0.00  0.00    -0.101 A 
ATOM     12  C   UNL     1      45.025  19.501  19.733  0.00  0.00    +0.163 A 
ATOM     15  C   UNL     1      46.185  18.990  20.302  0.00  0.00    -0.068 A 
BRANCH   8   9
ATOM      9  O   UNL     1      42.607  20.483  18.659  0.00  0.00    -0.296 OA
ATOM     10  C   UNL     1      41.701  21.588  18.664  0.00  0.00    +0.239 C 
ENDBRANCH   8   9
BRANCH  12  13
ATOM     13  O   UNL     1      45.096  20.326  18.656  0.00  0.00    -0.473 OA
ATOM     14  H   UNL     1      45.903  20.857  18.621  0.00  0.00    +0.389 HD
ENDBRANCH  12  13
ENDBRANCH  16  15
BRANCH  17  18
ATOM     18  O   UNL     1      47.563  21.343  21.042  0.00  0.00    -0.303 OA
ATOM     19  C   UNL     1      48.210  21.467  22.311  0.00  0.00    +0.243 C 
ENDBRANCH  17  18
BRANCH  21  22
ATOM     22  O   UNL     1      51.196  20.372  18.140  0.00  0.00    -0.299 OA
ATOM     23  C   UNL     1      52.147  20.962  19.029  0.00  0.00    +0.240 C 
ENDBRANCH  21  22
TORSDOF 5
ENDMDL
MODEL 2
REMARK VINA RESULT:      -6.1      1.568      3.361
REMARK  Name = ZINC13359332
REMARK  11 active torsions:
REMARK  status: ('A' for Active; 'I' for Inactive)
REMARK    1  A    between atoms: C1_1  and  C2_2
REMARK    2  A    between atoms: C8_8  and  O4_30
REMARK    3  A    between atoms: C10_10  and  O3_29
REMARK    4  A    between atoms: C11_11  and  C12_12
REMARK    5  A    between atoms: C13_13  and  O2_27
REMARK    6  A    between atoms: C15_15  and  O1_25
REMARK    7  A    between atoms: C19_19  and  C22_24
REMARK    8  A    between atoms: C20_22  and  C21_23
REMARK    9  A    between atoms: O1_25  and  C23_26
REMARK   10  A    between atoms: O2_27  and  C24_28
REMARK   11  A    between atoms: O4_30  and  C25_31
REMARK                            x       y       z     vdW  Elec       q    Type
REMARK                         _______ _______ _______ _____ _____    ______ ____
ROOT
ATOM     16  C   UNL     1      47.086  18.082  19.072  0.00  0.00    -0.100 A 
ATOM     17  C   UNL     1      47.308  17.335  17.905  0.00  0.00    +0.197 A 
ATOM     20  C   UNL     1      48.529  17.402  17.256  0.00  0.00    -0.168 A 
ATOM     21  C   UNL     1      49.545  18.199  17.759  0.00  0.00    +0.208 A 
ATOM     24  C   UNL     1      49.332  18.942  18.926  0.00  0.00    -0.185 A 
ATOM     25  C   UNL     1      50.386  19.799  19.492  0.00  0.00    +0.229 C 
ATOM     26  C   UNL     1      51.826  19.586  19.100  0.00  0.00    +0.137 C 
ATOM     27  N   UNL     1      50.074  20.736  20.327  0.00  0.00    -0.523 NA
ATOM     28  C   UNL     1      48.693  20.993  20.725  0.00  0.00    +0.153 C 
ATOM     29  C   UNL     1      48.688  21.696  22.084  0.00  0.00    +0.052 C 
ATOM     30  C   UNL     1      47.898  19.694  20.832  0.00  0.00    +0.077 C 
ATOM     31  C   UNL     1      48.097  18.880  19.579  0.00  0.00    +0.035 A 
ENDROOT
BRANCH  16  15
ATOM      1  C   UNL     1      46.688  16.122  21.147  0.00  0.00    +0.094 C 
ATOM      2  C   UNL     1      45.570  17.062  20.773  0.00  0.00    -0.033 A 
ATOM      3  C   UNL     1      44.379  16.976  21.422  0.00  0.00    +0.001 A 
ATOM      4  C   UNL     1      43.328  17.848  21.084  0.00  0.00    +0.005 A 
ATOM      5  C   UNL     1      42.089  17.777  21.742  0.00  0.00    -0.025 A 
ATOM      6  C   UNL     1      41.086  18.630  21.397  0.00  0.00    +0.059 A 
ATOM      7  C   UNL     1      41.263  19.583  20.398  0.00  0.00    -0.105 A 
ATOM      8  C   UNL     1      42.463  19.685  19.729  0.00  0.00    +0.158 A 
ATOM     11  C   UNL     1      43.521  18.817  20.067  0.00  0.00    -0.101 A 
ATOM     12  C   UNL     1      44.758  18.887  19.403  0.00  0.00    +0.163 A 
ATOM     15  C   UNL     1      45.775  18.012  19.762  0.00  0.00    -0.068 A 
BRANCH   8   9
ATOM      9  O   UNL     1      42.626  20.617  18.755  0.00  0.00    -0.296 OA
ATOM     10  C   UNL     1      41.718  21.721  18.755  0.00  0.00    +0.239 C 
ENDBRANCH   8   9
BRANCH  12  13
ATOM     13  O   UNL     1      44.960  19.806  18.424  0.00  0.00    -0.473 OA
ATOM     14  H   UNL     1      45.887  19.909  18.166  0.00  0.00    +0.389 HD
ENDBRANCH  12  13
ENDBRANCH  16  15
BRANCH  17  18
ATOM     18  O   UNL     1      46.320  16.548  17.408  0.00  0.00    -0.303 OA
ATOM     19  C   UNL     1      46.588  15.146  17.325  0.00  0.00    +0.243 C 
ENDBRANCH  17  18
BRANCH  21  22
ATOM     22  O   UNL     1      50.743  18.260  17.123  0.00  0.00    -0.299 OA
ATOM     23  C   UNL     1      51.349  17.017  16.761  0.00  0.00    +0.240 C 
ENDBRANCH  21  22
TORSDOF 5
ENDMDL
MODEL 3
REMARK VINA RESULT:      -5.8      2.065      6.916
REMARK  Name = ZINC13359332
REMARK  11 active torsions:
REMARK  status: ('A' for Active; 'I' for Inactive)
REMARK    1  A    between atoms: C1_1  and  C2_2
REMARK    2  A    between atoms: C8_8  and  O4_30
REMARK    3  A    between atoms: C10_10  and  O3_29
REMARK    4  A    between atoms: C11_11  and  C12_12
REMARK    5  A    between atoms: C13_13  and  O2_27
REMARK    6  A    between atoms: C15_15  and  O1_25
REMARK    7  A    between atoms: C19_19  and  C22_24
REMARK    8  A    between atoms: C20_22  and  C21_23
REMARK    9  A    between atoms: O1_25  and  C23_26
REMARK   10  A    between atoms: O2_27  and  C24_28
REMARK   11  A    between atoms: O4_30  and  C25_31
REMARK                            x       y       z     vdW  Elec       q    Type
REMARK                         _______ _______ _______ _____ _____    ______ ____
ROOT
ATOM     16  C   UNL     1      46.412  18.482  19.307  0.00  0.00    -0.100 A 
ATOM     17  C   UNL     1      45.489  19.500  19.021  0.00  0.00    +0.197 A 
ATOM     20  C   UNL     1      44.214  19.459  19.560  0.00  0.00    -0.168 A 
ATOM     21  C   UNL     1      43.843  18.415  20.394  0.00  0.00    +0.208 A 
ATOM     24  C   UNL     1      44.760  17.400  20.688  0.00  0.00    -0.185 A 
ATOM     25  C   UNL     1      44.403  16.277  21.570  0.00  0.00    +0.229 C 
ATOM     26  C   UNL     1      43.227  16.394  22.505  0.00  0.00    +0.137 C 
ATOM     27  N   UNL     1      45.103  15.189  21.540  0.00  0.00    -0.523 NA
ATOM     28  C   UNL     1      46.240  15.021  20.641  0.00  0.00    +0.153 C 
ATOM     29  C   UNL     1      47.179  13.958  21.215  0.00  0.00    +0.052 C 
ATOM     30  C   UNL     1      47.010  16.329  20.473  0.00  0.00    +0.077 C 
ATOM     31  C   UNL     1      46.046  17.439  20.139  0.00  0.00    +0.035 A 
ENDROOT
BRANCH  16  15
ATOM      1  C   UNL     1      46.977  16.974  16.917  0.00  0.00    +0.094 C 
ATOM      2  C   UNL     1      48.061  17.799  17.562  0.00  0.00    -0.033 A 
ATOM      3  C   UNL     1      49.302  17.825  17.008  0.00  0.00    +0.001 A 
ATOM      4  C   UNL     1      50.323  18.591  17.600  0.00  0.00    +0.005 A 
ATOM      5  C   UNL     1      51.612  18.632  17.043  0.00  0.00    -0.025 A 
ATOM      6  C   UNL     1      52.584  19.380  17.633  0.00  0.00    +0.059 A 
ATOM      7  C   UNL     1      52.327  20.114  18.787  0.00  0.00    -0.105 A 
ATOM      8  C   UNL     1      51.076  20.100  19.364  0.00  0.00    +0.158 A 
ATOM     11  C   UNL     1      50.048  19.338  18.773  0.00  0.00    -0.101 A 
ATOM     12  C   UNL     1      48.760  19.295  19.335  0.00  0.00    +0.163 A 
ATOM     15  C   UNL     1      47.775  18.529  18.725  0.00  0.00    -0.068 A 
BRANCH   8   9
ATOM      9  O   UNL     1      50.834  20.819  20.490  0.00  0.00    -0.296 OA
ATOM     10  C   UNL     1      51.949  21.484  21.088  0.00  0.00    +0.239 C 
ENDBRANCH   8   9
BRANCH  12  13
ATOM     13  O   UNL     1      48.479  20.001  20.461  0.00  0.00    -0.473 OA
ATOM     14  H   UNL     1      48.783  20.918  20.436  0.00  0.00    +0.389 HD
ENDBRANCH  12  13
ENDBRANCH  16  15
BRANCH  17  18
ATOM     18  O   UNL     1      45.847  20.528  18.210  0.00  0.00    -0.303 OA
ATOM     19  C   UNL     1      45.817  21.841  18.775  0.00  0.00    +0.243 C 
ENDBRANCH  17  18
BRANCH  21  22
ATOM     22  O   UNL     1      42.594  18.379  20.925  0.00  0.00    -0.299 OA
ATOM     23  C   UNL     1      41.571  19.093  20.227  0.00  0.00    +0.240 C 
ENDBRANCH  21  22
TORSDOF 5
ENDMDL
MODEL 4
REMARK VINA RESULT:      -5.8      2.335      4.212
REMARK  Name = ZINC13359332
REMARK  11 active torsions:
REMARK  status: ('A' for Active; 'I' for Inactive)
REMARK    1  A    between atoms: C1_1  and  C2_2
REMARK    2  A    between atoms: C8_8  and  O4_30
REMARK    3  A    between atoms: C10_10  and  O3_29
REMARK    4  A    between atoms: C11_11  and  C12_12
REMARK    5  A    between atoms: C13_13  and  O2_27
REMARK    6  A    between atoms: C15_15  and  O1_25
REMARK    7  A    between atoms: C19_19  and  C22_24
REMARK    8  A    between atoms: C20_22  and  C21_23
REMARK    9  A    between atoms: O1_25  and  C23_26
REMARK   10  A    between atoms: O2_27  and  C24_28
REMARK   11  A    between atoms: O4_30  and  C25_31
REMARK                            x       y       z     vdW  Elec       q    Type
REMARK                         _______ _______ _______ _____ _____    ______ ____
ROOT
ATOM     16  C   UNL     1      47.100  15.883  18.791  0.00  0.00    -0.100 A 
ATOM     17  C   UNL     1      46.867  14.744  18.005  0.00  0.00    +0.197 A 
ATOM     20  C   UNL     1      47.828  14.305  17.109  0.00  0.00    -0.168 A 
ATOM     21  C   UNL     1      49.032  14.983  16.990  0.00  0.00    +0.208 A 
ATOM     24  C   UNL     1      49.273  16.116  17.776  0.00  0.00    -0.185 A 
ATOM     25  C   UNL     1      50.539  16.861  17.678  0.00  0.00    +0.229 C 
ATOM     26  C   UNL     1      51.754  16.210  17.069  0.00  0.00    +0.137 C 
ATOM     27  N   UNL     1      50.605  18.075  18.117  0.00  0.00    -0.523 NA
ATOM     28  C   UNL     1      49.452  18.755  18.700  0.00  0.00    +0.153 C 
ATOM     29  C   UNL     1      49.944  19.873  19.621  0.00  0.00    +0.052 C 
ATOM     30  C   UNL     1      48.589  17.786  19.506  0.00  0.00    +0.077 C 
ATOM     31  C   UNL     1      48.300  16.562  18.676  0.00  0.00    +0.035 A 
ENDROOT
BRANCH  16  15
ATOM      1  C   UNL     1      46.911  14.642  21.385  0.00  0.00    +0.094 C 
ATOM      2  C   UNL     1      45.966  15.755  21.011  0.00  0.00    -0.033 A 
ATOM      3  C   UNL     1      45.028  16.166  21.905  0.00  0.00    +0.001 A 
ATOM      4  C   UNL     1      44.140  17.204  21.569  0.00  0.00    +0.005 A 
ATOM      5  C   UNL     1      43.164  17.644  22.478  0.00  0.00    -0.025 A 
ATOM      6  C   UNL     1      42.315  18.650  22.131  0.00  0.00    +0.059 A 
ATOM      7  C   UNL     1      42.395  19.259  20.882  0.00  0.00    -0.105 A 
ATOM      8  C   UNL     1      43.338  18.857  19.962  0.00  0.00    +0.158 A 
ATOM     11  C   UNL     1      44.233  17.820  20.295  0.00  0.00    -0.101 A 
ATOM     12  C   UNL     1      45.206  17.379  19.382  0.00  0.00    +0.163 A 
ATOM     15  C   UNL     1      46.067  16.351  19.746  0.00  0.00    -0.068 A 
BRANCH   8   9
ATOM      9  O   UNL     1      43.407  19.457  18.746  0.00  0.00    -0.296 OA
ATOM     10  C   UNL     1      42.308  20.288  18.369  0.00  0.00    +0.239 C 
ENDBRANCH   8   9
BRANCH  12  13
ATOM     13  O   UNL     1      45.307  17.954  18.156  0.00  0.00    -0.473 OA
ATOM     14  H   UNL     1      45.597  18.877  18.177  0.00  0.00    +0.389 HD
ENDBRANCH  12  13
ENDBRANCH  16  15
BRANCH  17  18
ATOM     18  O   UNL     1      45.694  14.072  18.119  0.00  0.00    -0.303 OA
ATOM     19  C   UNL     1      45.757  12.644  18.077  0.00  0.00    +0.243 C 
ENDBRANCH  17  18
BRANCH  21  22
ATOM     22  O   UNL     1      49.974  14.549  16.114  0.00  0.00    -0.299 OA
ATOM     23  C   UNL     1      49.832  13.217  15.615  0.00  0.00    +0.240 C 
ENDBRANCH  21  22
TORSDOF 5
ENDMDL
MODEL 5
REMARK VINA RESULT:      -5.8      3.028      4.584
REMARK  Name = ZINC13359332
REMARK  11 active torsions:
REMARK  status: ('A' for Active; 'I' for Inactive)
REMARK    1  A    between atoms: C1_1  and  C2_2
REMARK    2  A    between atoms: C8_8  and  O4_30
REMARK    3  A    between atoms: C10_10  and  O3_29
REMARK    4  A    between atoms: C11_11  and  C12_12
REMARK    5  A    between atoms: C13_13  and  O2_27
REMARK    6  A    between atoms: C15_15  and  O1_25
REMARK    7  A    between atoms: C19_19  and  C22_24
REMARK    8  A    between atoms: C20_22  and  C21_23
REMARK    9  A    between atoms: O1_25  and  C23_26
REMARK   10  A    between atoms: O2_27  and  C24_28
REMARK   11  A    between atoms: O4_30  and  C25_31
REMARK                            x       y       z     vdW  Elec       q    Type
REMARK                         _______ _______ _______ _____ _____    ______ ____
ROOT
ATOM     16  C   UNL     1      47.568  14.969  18.654  0.00  0.00    -0.100 A 
ATOM     17  C   UNL     1      48.876  15.461  18.778  0.00  0.00    +0.197 A 
ATOM     20  C   UNL     1      49.861  15.059  17.890  0.00  0.00    -0.168 A 
ATOM     21  C   UNL     1      49.558  14.175  16.866  0.00  0.00    +0.208 A 
ATOM     24  C   UNL     1      48.254  13.685  16.733  0.00  0.00    -0.185 A 
ATOM     25  C   UNL     1      47.894  12.746  15.659  0.00  0.00    +0.229 C 
ATOM     26  C   UNL     1      48.774  12.616  14.442  0.00  0.00    +0.137 C 
ATOM     27  N   UNL     1      46.819  12.034  15.761  0.00  0.00    -0.523 NA
ATOM     28  C   UNL     1      45.943  12.112  16.925  0.00  0.00    +0.153 C 
ATOM     29  C   UNL     1      44.539  11.653  16.527  0.00  0.00    +0.052 C 
ATOM     30  C   UNL     1      45.867  13.539  17.465  0.00  0.00    +0.077 C 
ATOM     31  C   UNL     1      47.261  14.087  17.633  0.00  0.00    +0.035 A 
ENDROOT
BRANCH  16  15
ATOM      1  C   UNL     1      47.033  13.356  20.982  0.00  0.00    +0.094 C 
ATOM      2  C   UNL     1      46.249  14.622  20.745  0.00  0.00    -0.033 A 
ATOM      3  C   UNL     1      45.293  14.994  21.636  0.00  0.00    +0.001 A 
ATOM      4  C   UNL     1      44.555  16.173  21.427  0.00  0.00    +0.005 A 
ATOM      5  C   UNL     1      43.561  16.575  22.336  0.00  0.00    -0.025 A 
ATOM      6  C   UNL     1      42.860  17.720  22.113  0.00  0.00    +0.059 A 
ATOM      7  C   UNL     1      43.107  18.509  20.994  0.00  0.00    -0.105 A 
ATOM      8  C   UNL     1      44.072  18.149  20.079  0.00  0.00    +0.158 A 
ATOM     11  C   UNL     1      44.818  16.972  20.286  0.00  0.00    -0.101 A 
ATOM     12  C   UNL     1      45.808  16.569  19.372  0.00  0.00    +0.163 A 
ATOM     15  C   UNL     1      46.518  15.398  19.609  0.00  0.00    -0.068 A 
BRANCH   8   9
ATOM      9  O   UNL     1      44.305  18.926  18.990  0.00  0.00    -0.296 OA
ATOM     10  C   UNL     1      43.455  20.060  18.807  0.00  0.00    +0.239 C 
ENDBRANCH   8   9
BRANCH  12  13
ATOM     13  O   UNL     1      46.071  17.318  18.271  0.00  0.00    -0.473 OA
ATOM     14  H   UNL     1      46.719  18.021  18.419  0.00  0.00    +0.389 HD
ENDBRANCH  12  13
ENDBRANCH  16  15
BRANCH  17  18
ATOM     18  O   UNL     1      49.180  16.331  19.775  0.00  0.00    -0.303 OA
ATOM     19  C   UNL     1      49.588  17.645  19.387  0.00  0.00    +0.243 C 
ENDBRANCH  17  18
BRANCH  21  22
ATOM     22  O   UNL     1      50.523  13.786  15.995  0.00  0.00    -0.299 OA
ATOM     23  C   UNL     1      51.628  13.056  16.533  0.00  0.00    +0.240 C 
ENDBRANCH  21  22
TORSDOF 5
ENDMDL
MODEL 6
REMARK VINA RESULT:      -5.4      4.028      8.408
REMARK  Name = ZINC13359332
REMARK  11 active torsions:
REMARK  status: ('A' for Active; 'I' for Inactive)
REMARK    1  A    between atoms: C1_1  and  C2_2
REMARK    2  A    between atoms: C8_8  and  O4_30
REMARK    3  A    between atoms: C10_10  and  O3_29
REMARK    4  A    between atoms: C11_11  and  C12_12
REMARK    5  A    between atoms: C13_13  and  O2_27
REMARK    6  A    between atoms: C15_15  and  O1_25
REMARK    7  A    between atoms: C19_19  and  C22_24
REMARK    8  A    between atoms: C20_22  and  C21_23
REMARK    9  A    between atoms: O1_25  and  C23_26
REMARK   10  A    between atoms: O2_27  and  C24_28
REMARK   11  A    between atoms: O4_30  and  C25_31
REMARK                            x       y       z     vdW  Elec       q    Type
REMARK                         _______ _______ _______ _____ _____    ______ ____
ROOT
ATOM     16  C   UNL     1      47.964  14.795  18.088  0.00  0.00    -0.100 A 
ATOM     17  C   UNL     1      46.802  14.183  18.582  0.00  0.00    +0.197 A 
ATOM     20  C   UNL     1      45.771  14.954  19.095  0.00  0.00    -0.168 A 
ATOM     21  C   UNL     1      45.877  16.336  19.116  0.00  0.00    +0.208 A 
ATOM     24  C   UNL     1      47.031  16.953  18.619  0.00  0.00    -0.185 A 
ATOM     25  C   UNL     1      47.179  18.417  18.622  0.00  0.00    +0.229 C 
ATOM     26  C   UNL     1      45.965  19.300  18.754  0.00  0.00    +0.137 C 
ATOM     27  N   UNL     1      48.355  18.943  18.512  0.00  0.00    -0.523 NA
ATOM     28  C   UNL     1      49.563  18.132  18.399  0.00  0.00    +0.153 C 
ATOM     29  C   UNL     1      50.656  18.955  17.714  0.00  0.00    +0.052 C 
ATOM     30  C   UNL     1      49.304  16.868  17.581  0.00  0.00    +0.077 C 
ATOM     31  C   UNL     1      48.074  16.174  18.106  0.00  0.00    +0.035 A 
ENDROOT
BRANCH  16  15
ATOM      1  C   UNL     1      50.070  13.915  19.847  0.00  0.00    +0.094 C 
ATOM      2  C   UNL     1      50.096  13.532  18.390  0.00  0.00    -0.033 A 
ATOM      3  C   UNL     1      51.118  12.772  17.915  0.00  0.00    +0.001 A 
ATOM      4  C   UNL     1      51.154  12.407  16.557  0.00  0.00    +0.005 A 
ATOM      5  C   UNL     1      52.201  11.621  16.046  0.00  0.00    -0.025 A 
ATOM      6  C   UNL     1      52.215  11.280  14.728  0.00  0.00    +0.059 A 
ATOM      7  C   UNL     1      51.205  11.697  13.867  0.00  0.00    -0.105 A 
ATOM      8  C   UNL     1      50.161  12.469  14.328  0.00  0.00    +0.158 A 
ATOM     11  C   UNL     1      50.117  12.834  15.689  0.00  0.00    -0.101 A 
ATOM     12  C   UNL     1      49.071  13.624  16.196  0.00  0.00    +0.163 A 
ATOM     15  C   UNL     1      49.066  13.966  17.543  0.00  0.00    -0.068 A 
BRANCH   8   9
ATOM      9  O   UNL     1      49.180  12.871  13.479  0.00  0.00    -0.296 OA
ATOM     10  C   UNL     1      49.581  13.269  12.167  0.00  0.00    +0.239 C 
ENDBRANCH   8   9
BRANCH  12  13
ATOM     13  O   UNL     1      48.072  14.046  15.379  0.00  0.00    -0.473 OA
ATOM     14  H   UNL     1      47.521  14.744  15.760  0.00  0.00    +0.389 HD
ENDBRANCH  12  13
ENDBRANCH  16  15
BRANCH  17  18
ATOM     18  O   UNL     1      46.688  12.831  18.561  0.00  0.00    -0.303 OA
ATOM     19  C   UNL     1      45.763  12.272  17.625  0.00  0.00    +0.243 C 
ENDBRANCH  17  18
BRANCH  21  22
ATOM     22  O   UNL     1      44.864  17.089  19.615  0.00  0.00    -0.299 OA
ATOM     23  C   UNL     1      44.434  16.797  20.947  0.00  0.00    +0.240 C 
ENDBRANCH  21  22
TORSDOF 5
ENDMDL
MODEL 7
REMARK VINA RESULT:      -5.4      4.748      7.856
REMARK  Name = ZINC13359332
REMARK  11 active torsions:
REMARK  status: ('A' for Active; 'I' for Inactive)
REMARK    1  A    between atoms: C1_1  and  C2_2
REMARK    2  A    between atoms: C8_8  and  O4_30
REMARK    3  A    between atoms: C10_10  and  O3_29
REMARK    4  A    between atoms: C11_11  and  C12_12
REMARK    5  A    between atoms: C13_13  and  O2_27
REMARK    6  A    between atoms: C15_15  and  O1_25
REMARK    7  A    between atoms: C19_19  and  C22_24
REMARK    8  A    between atoms: C20_22  and  C21_23
REMARK    9  A    between atoms: O1_25  and  C23_26
REMARK   10  A    between atoms: O2_27  and  C24_28
REMARK   11  A    between atoms: O4_30  and  C25_31
REMARK                            x       y       z     vdW  Elec       q    Type
REMARK                         _______ _______ _______ _____ _____    ______ ____
ROOT
ATOM     16  C   UNL     1      51.123  14.577  18.043  0.00  0.00    -0.100 A 
ATOM     17  C   UNL     1      50.555  13.856  16.981  0.00  0.00    +0.197 A 
ATOM     20  C   UNL     1      51.058  12.614  16.632  0.00  0.00    -0.168 A 
ATOM     21  C   UNL     1      52.120  12.068  17.336  0.00  0.00    +0.208 A 
ATOM     24  C   UNL     1      52.687  12.778  18.401  0.00  0.00    -0.185 A 
ATOM     25  C   UNL     1      53.815  12.231  19.172  0.00  0.00    +0.229 C 
ATOM     26  C   UNL     1      54.113  10.754  19.132  0.00  0.00    +0.137 C 
ATOM     27  N   UNL     1      54.549  13.022  19.885  0.00  0.00    -0.523 NA
ATOM     28  C   UNL     1      54.311  14.461  19.944  0.00  0.00    +0.153 C 
ATOM     29  C   UNL     1      54.899  15.012  21.245  0.00  0.00    +0.052 C 
ATOM     30  C   UNL     1      52.817  14.776  19.899  0.00  0.00    +0.077 C 
ATOM     31  C   UNL     1      52.183  14.036  18.750  0.00  0.00    +0.035 A 
ENDROOT
BRANCH  16  15
ATOM      1  C   UNL     1      48.882  14.742  19.847  0.00  0.00    +0.094 C 
ATOM      2  C   UNL     1      49.494  16.001  19.288  0.00  0.00    -0.033 A 
ATOM      3  C   UNL     1      48.982  17.209  19.641  0.00  0.00    +0.001 A 
ATOM      4  C   UNL     1      49.545  18.391  19.128  0.00  0.00    +0.005 A 
ATOM      5  C   UNL     1      49.031  19.651  19.480  0.00  0.00    -0.025 A 
ATOM      6  C   UNL     1      49.592  20.781  18.971  0.00  0.00    +0.059 A 
ATOM      7  C   UNL     1      50.675  20.717  18.099  0.00  0.00    -0.105 A 
ATOM      8  C   UNL     1      51.208  19.502  17.729  0.00  0.00    +0.158 A 
ATOM     11  C   UNL     1      50.651  18.314  18.244  0.00  0.00    -0.101 A 
ATOM     12  C   UNL     1      51.164  17.056  17.885  0.00  0.00    +0.163 A 
ATOM     15  C   UNL     1      50.585  15.908  18.411  0.00  0.00    -0.068 A 
BRANCH   8   9
ATOM      9  O   UNL     1      52.265  19.450  16.877  0.00  0.00    -0.296 OA
ATOM     10  C   UNL     1      52.190  20.256  15.700  0.00  0.00    +0.239 C 
ENDBRANCH   8   9
BRANCH  12  13
ATOM     13  O   UNL     1      52.221  16.962  17.037  0.00  0.00    -0.473 OA
ATOM     14  H   UNL     1      52.014  17.205  16.124  0.00  0.00    +0.389 HD
ENDBRANCH  12  13
ENDBRANCH  16  15
BRANCH  17  18
ATOM     18  O   UNL     1      49.512  14.382  16.290  0.00  0.00    -0.303 OA
ATOM     19  C   UNL     1      48.300  13.623  16.269  0.00  0.00    +0.243 C 
ENDBRANCH  17  18
BRANCH  21  22
ATOM     22  O   UNL     1      52.609  10.848  16.995  0.00  0.00    -0.299 OA
ATOM     23  C   UNL     1      52.828  10.603  15.604  0.00  0.00    +0.240 C 
ENDBRANCH  21  22
TORSDOF 5
ENDMDL
MODEL 8
REMARK VINA RESULT:      -5.2      3.116      7.041
REMARK  Name = ZINC13359332
REMARK  11 active torsions:
REMARK  status: ('A' for Active; 'I' for Inactive)
REMARK    1  A    between atoms: C1_1  and  C2_2
REMARK    2  A    between atoms: C8_8  and  O4_30
REMARK    3  A    between atoms: C10_10  and  O3_29
REMARK    4  A    between atoms: C11_11  and  C12_12
REMARK    5  A    between atoms: C13_13  and  O2_27
REMARK    6  A    between atoms: C15_15  and  O1_25
REMARK    7  A    between atoms: C19_19  and  C22_24
REMARK    8  A    between atoms: C20_22  and  C21_23
REMARK    9  A    between atoms: O1_25  and  C23_26
REMARK   10  A    between atoms: O2_27  and  C24_28
REMARK   11  A    between atoms: O4_30  and  C25_31
REMARK                            x       y       z     vdW  Elec       q    Type
REMARK                         _______ _______ _______ _____ _____    ______ ____
ROOT
ATOM     16  C   UNL     1      46.867  16.491  19.175  0.00  0.00    -0.100 A 
ATOM     17  C   UNL     1      45.580  16.226  19.668  0.00  0.00    +0.197 A 
ATOM     20  C   UNL     1      44.705  17.267  19.929  0.00  0.00    -0.168 A 
ATOM     21  C   UNL     1      45.089  18.578  19.695  0.00  0.00    +0.208 A 
ATOM     24  C   UNL     1      46.369  18.849  19.197  0.00  0.00    -0.185 A 
ATOM     25  C   UNL     1      46.814  20.227  18.936  0.00  0.00    +0.229 C 
ATOM     26  C   UNL     1      45.801  21.333  18.785  0.00  0.00    +0.137 C 
ATOM     27  N   UNL     1      48.077  20.486  18.834  0.00  0.00    -0.523 NA
ATOM     28  C   UNL     1      49.097  19.455  18.988  0.00  0.00    +0.153 C 
ATOM     29  C   UNL     1      50.370  19.897  18.263  0.00  0.00    +0.052 C 
ATOM     30  C   UNL     1      48.628  18.122  18.406  0.00  0.00    +0.077 C 
ATOM     31  C   UNL     1      47.256  17.798  18.939  0.00  0.00    +0.035 A 
ENDROOT
BRANCH  16  15
ATOM      1  C   UNL     1      48.751  15.698  21.206  0.00  0.00    +0.094 C 
ATOM      2  C   UNL     1      48.724  14.979  19.882  0.00  0.00    -0.033 A 
ATOM      3  C   UNL     1      49.592  13.959  19.656  0.00  0.00    +0.001 A 
ATOM      4  C   UNL     1      49.577  13.279  18.424  0.00  0.00    +0.005 A 
ATOM      5  C   UNL     1      50.466  12.221  18.170  0.00  0.00    -0.025 A 
ATOM      6  C   UNL     1      50.433  11.578  16.971  0.00  0.00    +0.059 A 
ATOM      7  C   UNL     1      49.528  11.949  15.980  0.00  0.00    -0.105 A 
ATOM      8  C   UNL     1      48.641  12.982  16.190  0.00  0.00    +0.158 A 
ATOM     11  C   UNL     1      48.648  13.663  17.424  0.00  0.00    -0.101 A 
ATOM     12  C   UNL     1      47.761  14.724  17.673  0.00  0.00    +0.163 A 
ATOM     15  C   UNL     1      47.803  15.374  18.901  0.00  0.00    -0.068 A 
BRANCH   8   9
ATOM      9  O   UNL     1      47.762  13.336  15.217  0.00  0.00    -0.296 OA
ATOM     10  C   UNL     1      47.989  12.801  13.912  0.00  0.00    +0.239 C 
ENDBRANCH   8   9
BRANCH  12  13
ATOM     13  O   UNL     1      46.868  15.109  16.726  0.00  0.00    -0.473 OA
ATOM     14  H   UNL     1      46.582  16.029  16.805  0.00  0.00    +0.389 HD
ENDBRANCH  12  13
ENDBRANCH  16  15
BRANCH  17  18
ATOM     18  O   UNL     1      45.194  14.945  19.895  0.00  0.00    -0.303 OA
ATOM     19  C   UNL     1      45.130  14.518  21.258  0.00  0.00    +0.243 C 
ENDBRANCH  17  18
BRANCH  21  22
ATOM     22  O   UNL     1      44.228  19.596  19.948  0.00  0.00    -0.299 OA
ATOM     23  C   UNL     1      42.833  19.290  19.911  0.00  0.00    +0.240 C 
ENDBRANCH  21  22
TORSDOF 5
ENDMDL
MODEL 9
REMARK VINA RESULT:      -5.2      5.904      8.490
REMARK  Name = ZINC13359332
REMARK  11 active torsions:
REMARK  status: ('A' for Active; 'I' for Inactive)
REMARK    1  A    between atoms: C1_1  and  C2_2
REMARK    2  A    between atoms: C8_8  and  O4_30
REMARK    3  A    between atoms: C10_10  and  O3_29
REMARK    4  A    between atoms: C11_11  and  C12_12
REMARK    5  A    between atoms: C13_13  and  O2_27
REMARK    6  A    between atoms: C15_15  and  O1_25
REMARK    7  A    between atoms: C19_19  and  C22_24
REMARK    8  A    between atoms: C20_22  and  C21_23
REMARK    9  A    between atoms: O1_25  and  C23_26
REMARK   10  A    between atoms: O2_27  and  C24_28
REMARK   11  A    between atoms: O4_30  and  C25_31
REMARK                            x       y       z     vdW  Elec       q    Type
REMARK                         _______ _______ _______ _____ _____    ______ ____
ROOT
ATOM     16  C   UNL     1      52.685  14.933  19.514  0.00  0.00    -0.100 A 
ATOM     17  C   UNL     1      51.801  13.946  19.051  0.00  0.00    +0.197 A 
ATOM     20  C   UNL     1      52.249  12.653  18.839  0.00  0.00    -0.168 A 
ATOM     21  C   UNL     1      53.571  12.321  19.093  0.00  0.00    +0.208 A 
ATOM     24  C   UNL     1      54.456  13.299  19.562  0.00  0.00    -0.185 A 
ATOM     25  C   UNL     1      55.865  12.986  19.843  0.00  0.00    +0.229 C 
ATOM     26  C   UNL     1      56.296  11.555  20.048  0.00  0.00    +0.137 C 
ATOM     27  N   UNL     1      56.734  13.941  19.915  0.00  0.00    -0.523 NA
ATOM     28  C   UNL     1      56.371  15.339  19.709  0.00  0.00    +0.153 C 
ATOM     29  C   UNL     1      57.398  16.232  20.409  0.00  0.00    +0.052 C 
ATOM     30  C   UNL     1      54.983  15.638  20.272  0.00  0.00    +0.077 C 
ATOM     31  C   UNL     1      54.005  14.607  19.770  0.00  0.00    +0.035 A 
ENDROOT
BRANCH  16  15
ATOM      1  C   UNL     1      51.640  15.667  22.098  0.00  0.00    +0.094 C 
ATOM      2  C   UNL     1      51.692  16.686  20.989  0.00  0.00    -0.033 A 
ATOM      3  C   UNL     1      51.245  17.949  21.218  0.00  0.00    +0.001 A 
ATOM      4  C   UNL     1      51.289  18.910  20.191  0.00  0.00    +0.005 A 
ATOM      5  C   UNL     1      50.831  20.221  20.407  0.00  0.00    -0.025 A 
ATOM      6  C   UNL     1      50.883  21.134  19.399  0.00  0.00    +0.059 A 
ATOM      7  C   UNL     1      51.385  20.794  18.146  0.00  0.00    -0.105 A 
ATOM      8  C   UNL     1      51.843  19.520  17.894  0.00  0.00    +0.158 A 
ATOM     11  C   UNL     1      51.807  18.554  18.920  0.00  0.00    -0.101 A 
ATOM     12  C   UNL     1      52.260  17.242  18.700  0.00  0.00    +0.163 A 
ATOM     15  C   UNL     1      52.203  16.318  19.736  0.00  0.00    -0.068 A 
BRANCH   8   9
ATOM      9  O   UNL     1      52.331  19.199  16.668  0.00  0.00    -0.296 OA
ATOM     10  C   UNL     1      51.932  20.026  15.574  0.00  0.00    +0.239 C 
ENDBRANCH   8   9
BRANCH  12  13
ATOM     13  O   UNL     1      52.755  16.882  17.488  0.00  0.00    -0.473 OA
ATOM     14  H   UNL     1      53.113  17.619  16.975  0.00  0.00    +0.389 HD
ENDBRANCH  12  13
ENDBRANCH  16  15
BRANCH  17  18
ATOM     18  O   UNL     1      50.504  14.261  18.805  0.00  0.00    -0.303 OA
ATOM     19  C   UNL     1      49.570  13.180  18.768  0.00  0.00    +0.243 C 
ENDBRANCH  17  18
BRANCH  21  22
ATOM     22  O   UNL     1      54.006  11.052  18.889  0.00  0.00    -0.299 OA
ATOM     23  C   UNL     1      53.488  10.363  17.749  0.00  0.00    +0.240 C 
ENDBRANCH  21  22
TORSDOF 5
ENDMDL
