MODEL 1
REMARK VINA RESULT:      -7.0      0.000      0.000
REMARK  Name = ZINC05854599
REMARK  7 active torsions:
REMARK  status: ('A' for Active; 'I' for Inactive)
REMARK    1  A    between atoms: C1_1  and  C2_2
REMARK    2  A    between atoms: C2_2  and  C25_31
REMARK    3  A    between atoms: C3_3  and  C4_4
REMARK    4  A    between atoms: C4_4  and  C5_5
REMARK    5  A    between atoms: C6_6  and  O4_30
REMARK    6  A    between atoms: C20_25  and  C23_28
REMARK    7  A    between atoms: C20_25  and  C24_29
REMARK                            x       y       z     vdW  Elec       q    Type
REMARK                         _______ _______ _______ _____ _____    ______ ____
ROOT
ATOM      6  C   UNL     1      43.357  18.935  20.599  0.00  0.00    -0.127 A 
ATOM      7  C   UNL     1      42.845  18.523  21.819  0.00  0.00    +0.150 A 
ATOM     10  C   UNL     1      43.191  17.286  22.344  0.00  0.00    -0.033 A 
ATOM     11  C   UNL     1      44.062  16.464  21.648  0.00  0.00    +0.087 A 
ATOM     12  C   UNL     1      44.570  16.873  20.445  0.00  0.00    -0.166 A 
ATOM     13  C   UNL     1      45.530  16.079  19.624  0.00  0.00    +0.225 C 
ATOM     14  O   UNL     1      46.363  15.124  20.270  0.00  0.00    -0.275 OA
ATOM     15  C   UNL     1      47.500  15.046  19.520  0.00  0.00    +0.137 A 
ATOM     16  C   UNL     1      47.704  16.239  18.789  0.00  0.00    -0.183 A 
ATOM     17  C   UNL     1      48.770  16.394  17.937  0.00  0.00    +0.127 A 
ATOM     18  C   UNL     1      49.650  15.314  17.810  0.00  0.00    -0.159 A 
ATOM     19  C   UNL     1      49.462  14.132  18.540  0.00  0.00    +0.172 A 
ATOM     20  O   UNL     1      50.380  13.135  18.420  0.00  0.00    -0.302 OA
ATOM     21  C   UNL     1      50.997  12.962  17.146  0.00  0.00    +0.147 C 
ATOM     22  C   UNL     1      49.985  12.351  16.175  0.00  0.00    +0.034 C 
ATOM     23  C   UNL     1      52.192  12.019  17.287  0.00  0.00    +0.083 C 
ATOM     24  C   UNL     1      51.470  14.285  16.603  0.00  0.00    -0.055 C 
ATOM     25  C   UNL     1      50.818  15.403  16.908  0.00  0.00    +0.044 C 
ATOM     26  C   UNL     1      48.389  13.983  19.407  0.00  0.00    -0.005 A 
ATOM     27  C   UNL     1      46.592  17.136  19.185  0.00  0.00    -0.014 C 
ATOM     28  C   UNL     1      45.931  18.019  18.157  0.00  0.00    +0.275 C 
ATOM     29  O   UNL     1      44.677  18.484  18.671  0.00  0.00    -0.316 OA
ATOM     30  C   UNL     1      44.214  18.112  19.888  0.00  0.00    +0.160 A 
ENDROOT
BRANCH   7   8
ATOM      8  O   UNL     1      41.999  19.334  22.505  0.00  0.00    -0.490 OA
ATOM      9  H   UNL     1      41.617  20.046  21.973  0.00  0.00    +0.393 HD
ENDBRANCH   7   8
BRANCH   6   5
ATOM      5  C   UNL     1      42.974  20.282  20.040  0.00  0.00    +0.127 C 
BRANCH   5   4
ATOM      1  C   UNL     1      41.839  22.552  18.811  0.00  0.00    +0.075 C 
ATOM      2  C   UNL     1      41.076  21.252  18.849  0.00  0.00    -0.132 C 
ATOM      3  C   UNL     1      39.679  21.183  18.290  0.00  0.00    +0.072 C 
ATOM      4  C   UNL     1      41.629  20.184  19.369  0.00  0.00    -0.050 C 
ENDBRANCH   5   4
ENDBRANCH   6   5
TORSDOF 3
ENDMDL
MODEL 2
REMARK VINA RESULT:      -6.6      2.736      8.723
REMARK  Name = ZINC05854599
REMARK  7 active torsions:
REMARK  status: ('A' for Active; 'I' for Inactive)
REMARK    1  A    between atoms: C1_1  and  C2_2
REMARK    2  A    between atoms: C2_2  and  C25_31
REMARK    3  A    between atoms: C3_3  and  C4_4
REMARK    4  A    between atoms: C4_4  and  C5_5
REMARK    5  A    between atoms: C6_6  and  O4_30
REMARK    6  A    between atoms: C20_25  and  C23_28
REMARK    7  A    between atoms: C20_25  and  C24_29
REMARK                            x       y       z     vdW  Elec       q    Type
REMARK                         _______ _______ _______ _____ _____    ______ ____
ROOT
ATOM      6  C   UNL     1      47.059  13.026  16.125  0.00  0.00    -0.127 A 
ATOM      7  C   UNL     1      46.240  11.971  16.495  0.00  0.00    +0.150 A 
ATOM     10  C   UNL     1      45.437  12.067  17.623  0.00  0.00    -0.033 A 
ATOM     11  C   UNL     1      45.448  13.229  18.377  0.00  0.00    +0.087 A 
ATOM     12  C   UNL     1      46.255  14.272  18.009  0.00  0.00    -0.166 A 
ATOM     13  C   UNL     1      46.329  15.574  18.734  0.00  0.00    +0.225 C 
ATOM     14  O   UNL     1      45.213  15.997  19.507  0.00  0.00    -0.275 OA
ATOM     15  C   UNL     1      45.240  17.360  19.495  0.00  0.00    +0.137 A 
ATOM     16  C   UNL     1      45.921  17.840  18.354  0.00  0.00    -0.183 A 
ATOM     17  C   UNL     1      46.105  19.184  18.131  0.00  0.00    +0.127 A 
ATOM     18  C   UNL     1      45.595  20.067  19.089  0.00  0.00    -0.159 A 
ATOM     19  C   UNL     1      44.907  19.600  20.217  0.00  0.00    +0.172 A 
ATOM     20  O   UNL     1      44.384  20.505  21.087  0.00  0.00    -0.302 OA
ATOM     21  C   UNL     1      45.109  21.718  21.284  0.00  0.00    +0.147 C 
ATOM     22  C   UNL     1      46.364  21.426  22.109  0.00  0.00    +0.034 C 
ATOM     23  C   UNL     1      44.230  22.714  22.041  0.00  0.00    +0.083 C 
ATOM     24  C   UNL     1      45.511  22.316  19.962  0.00  0.00    -0.055 C 
ATOM     25  C   UNL     1      45.758  21.527  18.921  0.00  0.00    +0.044 C 
ATOM     26  C   UNL     1      44.716  18.243  20.433  0.00  0.00    -0.005 A 
ATOM     27  C   UNL     1      46.299  16.630  17.585  0.00  0.00    -0.014 C 
ATOM     28  C   UNL     1      47.636  16.562  16.893  0.00  0.00    +0.275 C 
ATOM     29  O   UNL     1      47.926  15.199  16.559  0.00  0.00    -0.316 OA
ATOM     30  C   UNL     1      47.090  14.184  16.883  0.00  0.00    +0.160 A 
ENDROOT
BRANCH   7   8
ATOM      8  O   UNL     1      46.221  10.836  15.749  0.00  0.00    -0.490 OA
ATOM      9  H   UNL     1      47.097  10.533  15.471  0.00  0.00    +0.393 HD
ENDBRANCH   7   8
BRANCH   6   5
ATOM      5  C   UNL     1      47.924  12.909  14.897  0.00  0.00    +0.127 C 
BRANCH   5   4
ATOM      1  C   UNL     1      50.030  12.930  13.022  0.00  0.00    +0.075 C 
ATOM      2  C   UNL     1      50.251  12.361  14.400  0.00  0.00    -0.132 C 
ATOM      3  C   UNL     1      51.578  11.741  14.756  0.00  0.00    +0.072 C 
ATOM      4  C   UNL     1      49.289  12.406  15.289  0.00  0.00    -0.050 C 
ENDBRANCH   5   4
ENDBRANCH   6   5
TORSDOF 3
ENDMDL
MODEL 3
REMARK VINA RESULT:      -6.5      1.843      2.881
REMARK  Name = ZINC05854599
REMARK  7 active torsions:
REMARK  status: ('A' for Active; 'I' for Inactive)
REMARK    1  A    between atoms: C1_1  and  C2_2
REMARK    2  A    between atoms: C2_2  and  C25_31
REMARK    3  A    between atoms: C3_3  and  C4_4
REMARK    4  A    between atoms: C4_4  and  C5_5
REMARK    5  A    between atoms: C6_6  and  O4_30
REMARK    6  A    between atoms: C20_25  and  C23_28
REMARK    7  A    between atoms: C20_25  and  C24_29
REMARK                            x       y       z     vdW  Elec       q    Type
REMARK                         _______ _______ _______ _____ _____    ______ ____
ROOT
ATOM      6  C   UNL     1      44.176  20.316  19.688  0.00  0.00    -0.127 A 
ATOM      7  C   UNL     1      44.610  21.580  19.322  0.00  0.00    +0.150 A 
ATOM     10  C   UNL     1      45.904  21.773  18.860  0.00  0.00    -0.033 A 
ATOM     11  C   UNL     1      46.763  20.692  18.754  0.00  0.00    +0.087 A 
ATOM     12  C   UNL     1      46.333  19.442  19.113  0.00  0.00    -0.166 A 
ATOM     13  C   UNL     1      47.167  18.208  19.018  0.00  0.00    +0.225 C 
ATOM     14  O   UNL     1      48.235  18.168  18.080  0.00  0.00    -0.275 OA
ATOM     15  C   UNL     1      48.378  16.858  17.727  0.00  0.00    +0.137 A 
ATOM     16  C   UNL     1      47.169  16.151  17.916  0.00  0.00    -0.183 A 
ATOM     17  C   UNL     1      47.067  14.806  17.655  0.00  0.00    +0.127 A 
ATOM     18  C   UNL     1      48.218  14.153  17.200  0.00  0.00    -0.159 A 
ATOM     19  C   UNL     1      49.418  14.850  16.998  0.00  0.00    +0.172 A 
ATOM     20  O   UNL     1      50.490  14.176  16.502  0.00  0.00    -0.302 OA
ATOM     21  C   UNL     1      50.645  12.812  16.890  0.00  0.00    +0.147 C 
ATOM     22  C   UNL     1      51.095  12.753  18.351  0.00  0.00    +0.034 C 
ATOM     23  C   UNL     1      51.707  12.153  16.009  0.00  0.00    +0.083 C 
ATOM     24  C   UNL     1      49.344  12.068  16.740  0.00  0.00    -0.055 C 
ATOM     25  C   UNL     1      48.189  12.705  16.904  0.00  0.00    +0.044 C 
ATOM     26  C   UNL     1      49.513  16.209  17.254  0.00  0.00    -0.005 A 
ATOM     27  C   UNL     1      46.193  17.162  18.389  0.00  0.00    -0.014 C 
ATOM     28  C   UNL     1      45.190  16.802  19.455  0.00  0.00    +0.275 C 
ATOM     29  O   UNL     1      44.637  18.003  20.007  0.00  0.00    -0.316 OA
ATOM     30  C   UNL     1      45.035  19.232  19.602  0.00  0.00    +0.160 A 
ENDROOT
BRANCH   7   8
ATOM      8  O   UNL     1      43.763  22.638  19.417  0.00  0.00    -0.490 OA
ATOM      9  H   UNL     1      43.430  22.954  18.565  0.00  0.00    +0.393 HD
ENDBRANCH   7   8
BRANCH   6   5
ATOM      5  C   UNL     1      42.768  20.120  20.187  0.00  0.00    +0.127 C 
BRANCH   5   4
ATOM      1  C   UNL     1      40.748  21.533  18.818  0.00  0.00    +0.075 C 
ATOM      2  C   UNL     1      40.973  20.070  18.533  0.00  0.00    -0.132 C 
ATOM      3  C   UNL     1      40.074  19.345  17.564  0.00  0.00    +0.072 C 
ATOM      4  C   UNL     1      41.950  19.430  19.127  0.00  0.00    -0.050 C 
ENDBRANCH   5   4
ENDBRANCH   6   5
TORSDOF 3
ENDMDL
MODEL 4
REMARK VINA RESULT:      -6.4      1.044      1.590
REMARK  Name = ZINC05854599
REMARK  7 active torsions:
REMARK  status: ('A' for Active; 'I' for Inactive)
REMARK    1  A    between atoms: C1_1  and  C2_2
REMARK    2  A    between atoms: C2_2  and  C25_31
REMARK    3  A    between atoms: C3_3  and  C4_4
REMARK    4  A    between atoms: C4_4  and  C5_5
REMARK    5  A    between atoms: C6_6  and  O4_30
REMARK    6  A    between atoms: C20_25  and  C23_28
REMARK    7  A    between atoms: C20_25  and  C24_29
REMARK                            x       y       z     vdW  Elec       q    Type
REMARK                         _______ _______ _______ _____ _____    ______ ____
ROOT
ATOM      6  C   UNL     1      43.543  18.952  20.608  0.00  0.00    -0.127 A 
ATOM      7  C   UNL     1      42.970  18.477  21.777  0.00  0.00    +0.150 A 
ATOM     10  C   UNL     1      43.224  17.184  22.210  0.00  0.00    -0.033 A 
ATOM     11  C   UNL     1      44.064  16.366  21.472  0.00  0.00    +0.087 A 
ATOM     12  C   UNL     1      44.632  16.836  20.319  0.00  0.00    -0.166 A 
ATOM     13  C   UNL     1      45.567  16.050  19.462  0.00  0.00    +0.225 C 
ATOM     14  O   UNL     1      46.321  14.997  20.049  0.00  0.00    -0.275 OA
ATOM     15  C   UNL     1      47.473  14.907  19.324  0.00  0.00    +0.137 A 
ATOM     16  C   UNL     1      47.771  16.139  18.698  0.00  0.00    -0.183 A 
ATOM     17  C   UNL     1      48.870  16.293  17.888  0.00  0.00    +0.127 A 
ATOM     18  C   UNL     1      49.686  15.173  17.697  0.00  0.00    -0.159 A 
ATOM     19  C   UNL     1      49.405  13.951  18.325  0.00  0.00    +0.172 A 
ATOM     20  O   UNL     1      50.264  12.912  18.148  0.00  0.00    -0.302 OA
ATOM     21  C   UNL     1      50.908  12.802  16.880  0.00  0.00    +0.147 C 
ATOM     22  C   UNL     1      49.891  12.334  15.838  0.00  0.00    +0.034 C 
ATOM     23  C   UNL     1      52.039  11.776  16.975  0.00  0.00    +0.083 C 
ATOM     24  C   UNL     1      51.477  14.130  16.458  0.00  0.00    -0.055 C 
ATOM     25  C   UNL     1      50.885  15.260  16.835  0.00  0.00    +0.044 C 
ATOM     26  C   UNL     1      48.300  13.803  19.149  0.00  0.00    -0.005 A 
ATOM     27  C   UNL     1      46.704  17.070  19.137  0.00  0.00    -0.014 C 
ATOM     28  C   UNL     1      46.130  18.071  18.166  0.00  0.00    +0.275 C 
ATOM     29  O   UNL     1      44.891  18.572  18.684  0.00  0.00    -0.316 OA
ATOM     30  C   UNL     1      44.369  18.135  19.855  0.00  0.00    +0.160 A 
ENDROOT
BRANCH   7   8
ATOM      8  O   UNL     1      42.154  19.284  22.505  0.00  0.00    -0.490 OA
ATOM      9  H   UNL     1      41.234  18.986  22.538  0.00  0.00    +0.393 HD
ENDBRANCH   7   8
BRANCH   6   5
ATOM      5  C   UNL     1      43.259  20.360  20.150  0.00  0.00    +0.127 C 
BRANCH   5   4
ATOM      1  C   UNL     1      43.211  23.099  19.484  0.00  0.00    +0.075 C 
ATOM      2  C   UNL     1      44.324  22.548  20.337  0.00  0.00    -0.132 C 
ATOM      3  C   UNL     1      45.450  23.448  20.780  0.00  0.00    +0.072 C 
ATOM      4  C   UNL     1      44.314  21.287  20.694  0.00  0.00    -0.050 C 
ENDBRANCH   5   4
ENDBRANCH   6   5
TORSDOF 3
ENDMDL
MODEL 5
REMARK VINA RESULT:      -6.4      2.187      3.321
REMARK  Name = ZINC05854599
REMARK  7 active torsions:
REMARK  status: ('A' for Active; 'I' for Inactive)
REMARK    1  A    between atoms: C1_1  and  C2_2
REMARK    2  A    between atoms: C2_2  and  C25_31
REMARK    3  A    between atoms: C3_3  and  C4_4
REMARK    4  A    between atoms: C4_4  and  C5_5
REMARK    5  A    between atoms: C6_6  and  O4_30
REMARK    6  A    between atoms: C20_25  and  C23_28
REMARK    7  A    between atoms: C20_25  and  C24_29
REMARK                            x       y       z     vdW  Elec       q    Type
REMARK                         _______ _______ _______ _____ _____    ______ ____
ROOT
ATOM      6  C   UNL     1      45.488  19.723  20.082  0.00  0.00    -0.127 A 
ATOM      7  C   UNL     1      46.282  20.852  19.958  0.00  0.00    +0.150 A 
ATOM     10  C   UNL     1      47.587  20.747  19.499  0.00  0.00    -0.033 A 
ATOM     11  C   UNL     1      48.095  19.505  19.154  0.00  0.00    +0.087 A 
ATOM     12  C   UNL     1      47.309  18.390  19.274  0.00  0.00    -0.166 A 
ATOM     13  C   UNL     1      47.747  17.011  18.910  0.00  0.00    +0.225 C 
ATOM     14  O   UNL     1      48.781  16.846  17.948  0.00  0.00    -0.275 OA
ATOM     15  C   UNL     1      48.543  15.649  17.339  0.00  0.00    +0.137 A 
ATOM     16  C   UNL     1      47.176  15.303  17.425  0.00  0.00    -0.183 A 
ATOM     17  C   UNL     1      46.692  14.126  16.908  0.00  0.00    +0.127 A 
ATOM     18  C   UNL     1      47.613  13.269  16.296  0.00  0.00    -0.159 A 
ATOM     19  C   UNL     1      48.969  13.611  16.195  0.00  0.00    +0.172 A 
ATOM     20  O   UNL     1      49.810  12.766  15.540  0.00  0.00    -0.302 OA
ATOM     21  C   UNL     1      49.548  11.367  15.647  0.00  0.00    +0.147 C 
ATOM     22  C   UNL     1      49.923  10.891  17.052  0.00  0.00    +0.034 C 
ATOM     23  C   UNL     1      50.394  10.615  14.618  0.00  0.00    +0.083 C 
ATOM     24  C   UNL     1      48.091  11.080  15.397  0.00  0.00    -0.055 C 
ATOM     25  C   UNL     1      47.169  11.981  15.721  0.00  0.00    +0.044 C 
ATOM     26  C   UNL     1      49.451  14.805  16.710  0.00  0.00    -0.005 A 
ATOM     27  C   UNL     1      46.527  16.441  18.121  0.00  0.00    -0.014 C 
ATOM     28  C   UNL     1      45.435  16.185  19.128  0.00  0.00    +0.275 C 
ATOM     29  O   UNL     1      45.243  17.361  19.924  0.00  0.00    -0.316 OA
ATOM     30  C   UNL     1      45.994  18.476  19.756  0.00  0.00    +0.160 A 
ENDROOT
BRANCH   7   8
ATOM      8  O   UNL     1      45.779  22.071  20.287  0.00  0.00    -0.490 OA
ATOM      9  H   UNL     1      46.438  22.780  20.291  0.00  0.00    +0.393 HD
ENDBRANCH   7   8
BRANCH   6   5
ATOM      5  C   UNL     1      44.071  19.853  20.579  0.00  0.00    +0.127 C 
BRANCH   5   4
ATOM      1  C   UNL     1      41.347  19.129  20.660  0.00  0.00    +0.075 C 
ATOM      2  C   UNL     1      41.912  19.812  19.441  0.00  0.00    -0.132 C 
ATOM      3  C   UNL     1      41.037  20.049  18.237  0.00  0.00    +0.072 C 
ATOM      4  C   UNL     1      43.163  20.200  19.429  0.00  0.00    -0.050 C 
ENDBRANCH   5   4
ENDBRANCH   6   5
TORSDOF 3
ENDMDL
MODEL 6
REMARK VINA RESULT:      -6.3      2.246      2.728
REMARK  Name = ZINC05854599
REMARK  7 active torsions:
REMARK  status: ('A' for Active; 'I' for Inactive)
REMARK    1  A    between atoms: C1_1  and  C2_2
REMARK    2  A    between atoms: C2_2  and  C25_31
REMARK    3  A    between atoms: C3_3  and  C4_4
REMARK    4  A    between atoms: C4_4  and  C5_5
REMARK    5  A    between atoms: C6_6  and  O4_30
REMARK    6  A    between atoms: C20_25  and  C23_28
REMARK    7  A    between atoms: C20_25  and  C24_29
REMARK                            x       y       z     vdW  Elec       q    Type
REMARK                         _______ _______ _______ _____ _____    ______ ____
ROOT
ATOM      6  C   UNL     1      45.254  20.163  20.648  0.00  0.00    -0.127 A 
ATOM      7  C   UNL     1      44.286  19.855  21.590  0.00  0.00    +0.150 A 
ATOM     10  C   UNL     1      43.695  18.600  21.606  0.00  0.00    -0.033 A 
ATOM     11  C   UNL     1      44.083  17.646  20.679  0.00  0.00    +0.087 A 
ATOM     12  C   UNL     1      45.041  17.950  19.750  0.00  0.00    -0.166 A 
ATOM     13  C   UNL     1      45.549  16.994  18.723  0.00  0.00    +0.225 C 
ATOM     14  O   UNL     1      45.461  15.598  18.977  0.00  0.00    -0.275 OA
ATOM     15  C   UNL     1      46.498  15.025  18.300  0.00  0.00    +0.137 A 
ATOM     16  C   UNL     1      47.543  15.954  18.100  0.00  0.00    -0.183 A 
ATOM     17  C   UNL     1      48.688  15.622  17.417  0.00  0.00    +0.127 A 
ATOM     18  C   UNL     1      48.777  14.320  16.914  0.00  0.00    -0.159 A 
ATOM     19  C   UNL     1      47.750  13.388  17.118  0.00  0.00    +0.172 A 
ATOM     20  O   UNL     1      47.915  12.119  16.655  0.00  0.00    -0.302 OA
ATOM     21  C   UNL     1      48.642  11.955  15.439  0.00  0.00    +0.147 C 
ATOM     22  C   UNL     1      47.779  12.430  14.269  0.00  0.00    +0.034 C 
ATOM     23  C   UNL     1      48.978  10.475  15.248  0.00  0.00    +0.083 C 
ATOM     24  C   UNL     1      49.918  12.754  15.472  0.00  0.00    -0.055 C 
ATOM     25  C   UNL     1      49.976  13.889  16.163  0.00  0.00    +0.044 C 
ATOM     26  C   UNL     1      46.600  13.725  17.817  0.00  0.00    -0.005 A 
ATOM     27  C   UNL     1      47.096  17.198  18.771  0.00  0.00    -0.014 C 
ATOM     28  C   UNL     1      47.380  18.539  18.143  0.00  0.00    +0.275 C 
ATOM     29  O   UNL     1      46.542  19.531  18.748  0.00  0.00    -0.316 OA
ATOM     30  C   UNL     1      45.635  19.221  19.706  0.00  0.00    +0.160 A 
ENDROOT
BRANCH   7   8
ATOM      8  O   UNL     1      43.914  20.787  22.505  0.00  0.00    -0.490 OA
ATOM      9  H   UNL     1      43.103  21.262  22.276  0.00  0.00    +0.393 HD
ENDBRANCH   7   8
BRANCH   6   5
ATOM      5  C   UNL     1      45.890  21.529  20.643  0.00  0.00    +0.127 C 
BRANCH   5   4
ATOM      1  C   UNL     1      45.679  24.318  21.004  0.00  0.00    +0.075 C 
ATOM      2  C   UNL     1      45.093  23.668  19.777  0.00  0.00    -0.132 C 
ATOM      3  C   UNL     1      44.335  24.499  18.774  0.00  0.00    +0.072 C 
ATOM      4  C   UNL     1      45.243  22.381  19.582  0.00  0.00    -0.050 C 
ENDBRANCH   5   4
ENDBRANCH   6   5
TORSDOF 3
ENDMDL
MODEL 7
REMARK VINA RESULT:      -6.2      3.416      9.518
REMARK  Name = ZINC05854599
REMARK  7 active torsions:
REMARK  status: ('A' for Active; 'I' for Inactive)
REMARK    1  A    between atoms: C1_1  and  C2_2
REMARK    2  A    between atoms: C2_2  and  C25_31
REMARK    3  A    between atoms: C3_3  and  C4_4
REMARK    4  A    between atoms: C4_4  and  C5_5
REMARK    5  A    between atoms: C6_6  and  O4_30
REMARK    6  A    between atoms: C20_25  and  C23_28
REMARK    7  A    between atoms: C20_25  and  C24_29
REMARK                            x       y       z     vdW  Elec       q    Type
REMARK                         _______ _______ _______ _____ _____    ______ ____
ROOT
ATOM      6  C   UNL     1      50.693  18.662  20.511  0.00  0.00    -0.127 A 
ATOM      7  C   UNL     1      51.513  19.723  20.163  0.00  0.00    +0.150 A 
ATOM     10  C   UNL     1      51.003  20.803  19.455  0.00  0.00    -0.033 A 
ATOM     11  C   UNL     1      49.663  20.823  19.104  0.00  0.00    +0.087 A 
ATOM     12  C   UNL     1      48.853  19.775  19.451  0.00  0.00    -0.166 A 
ATOM     13  C   UNL     1      47.394  19.705  19.144  0.00  0.00    +0.225 C 
ATOM     14  O   UNL     1      46.669  20.913  18.955  0.00  0.00    -0.275 OA
ATOM     15  C   UNL     1      45.388  20.650  19.341  0.00  0.00    +0.137 A 
ATOM     16  C   UNL     1      45.350  19.581  20.265  0.00  0.00    -0.183 A 
ATOM     17  C   UNL     1      44.167  19.110  20.782  0.00  0.00    +0.127 A 
ATOM     18  C   UNL     1      42.989  19.728  20.348  0.00  0.00    -0.159 A 
ATOM     19  C   UNL     1      43.019  20.797  19.442  0.00  0.00    +0.172 A 
ATOM     20  O   UNL     1      41.847  21.397  19.098  0.00  0.00    -0.302 OA
ATOM     21  C   UNL     1      40.688  20.570  19.015  0.00  0.00    +0.147 C 
ATOM     22  C   UNL     1      40.781  19.696  17.763  0.00  0.00    +0.034 C 
ATOM     23  C   UNL     1      39.443  21.453  18.920  0.00  0.00    +0.083 C 
ATOM     24  C   UNL     1      40.578  19.687  20.230  0.00  0.00    -0.055 C 
ATOM     25  C   UNL     1      41.677  19.274  20.855  0.00  0.00    +0.044 C 
ATOM     26  C   UNL     1      44.216  21.275  18.930  0.00  0.00    -0.005 A 
ATOM     27  C   UNL     1      46.767  19.201  20.482  0.00  0.00    -0.014 C 
ATOM     28  C   UNL     1      47.146  17.748  20.624  0.00  0.00    +0.275 C 
ATOM     29  O   UNL     1      48.559  17.609  20.438  0.00  0.00    -0.316 OA
ATOM     30  C   UNL     1      49.356  18.666  20.148  0.00  0.00    +0.160 A 
ENDROOT
BRANCH   7   8
ATOM      8  O   UNL     1      52.824  19.708  20.516  0.00  0.00    -0.490 OA
ATOM      9  H   UNL     1      52.975  19.701  21.472  0.00  0.00    +0.393 HD
ENDBRANCH   7   8
BRANCH   6   5
ATOM      5  C   UNL     1      51.259  17.497  21.281  0.00  0.00    +0.127 C 
BRANCH   5   4
ATOM      1  C   UNL     1      53.898  16.592  21.689  0.00  0.00    +0.075 C 
ATOM      2  C   UNL     1      53.122  16.138  20.480  0.00  0.00    -0.132 C 
ATOM      3  C   UNL     1      53.778  15.253  19.452  0.00  0.00    +0.072 C 
ATOM      4  C   UNL     1      51.876  16.513  20.322  0.00  0.00    -0.050 C 
ENDBRANCH   5   4
ENDBRANCH   6   5
TORSDOF 3
ENDMDL
MODEL 8
REMARK VINA RESULT:      -6.1      2.644      9.181
REMARK  Name = ZINC05854599
REMARK  7 active torsions:
REMARK  status: ('A' for Active; 'I' for Inactive)
REMARK    1  A    between atoms: C1_1  and  C2_2
REMARK    2  A    between atoms: C2_2  and  C25_31
REMARK    3  A    between atoms: C3_3  and  C4_4
REMARK    4  A    between atoms: C4_4  and  C5_5
REMARK    5  A    between atoms: C6_6  and  O4_30
REMARK    6  A    between atoms: C20_25  and  C23_28
REMARK    7  A    between atoms: C20_25  and  C24_29
REMARK                            x       y       z     vdW  Elec       q    Type
REMARK                         _______ _______ _______ _____ _____    ______ ____
ROOT
ATOM      6  C   UNL     1      49.371  12.315  15.450  0.00  0.00    -0.127 A 
ATOM      7  C   UNL     1      48.428  11.342  15.162  0.00  0.00    +0.150 A 
ATOM     10  C   UNL     1      47.181  11.369  15.770  0.00  0.00    -0.033 A 
ATOM     11  C   UNL     1      46.876  12.383  16.664  0.00  0.00    +0.087 A 
ATOM     12  C   UNL     1      47.807  13.346  16.946  0.00  0.00    -0.166 A 
ATOM     13  C   UNL     1      47.576  14.492  17.873  0.00  0.00    +0.225 C 
ATOM     14  O   UNL     1      46.245  14.939  18.098  0.00  0.00    -0.275 OA
ATOM     15  C   UNL     1      46.337  16.270  18.385  0.00  0.00    +0.137 A 
ATOM     16  C   UNL     1      47.512  16.825  17.828  0.00  0.00    -0.183 A 
ATOM     17  C   UNL     1      47.843  18.146  18.002  0.00  0.00    +0.127 A 
ATOM     18  C   UNL     1      46.971  18.929  18.767  0.00  0.00    -0.159 A 
ATOM     19  C   UNL     1      45.798  18.390  19.313  0.00  0.00    +0.172 A 
ATOM     20  O   UNL     1      44.959  19.210  20.001  0.00  0.00    -0.302 OA
ATOM     21  C   UNL     1      45.549  20.260  20.764  0.00  0.00    +0.147 C 
ATOM     22  C   UNL     1      46.224  19.666  22.001  0.00  0.00    +0.034 C 
ATOM     23  C   UNL     1      44.459  21.238  21.206  0.00  0.00    +0.083 C 
ATOM     24  C   UNL     1      46.575  20.999  19.945  0.00  0.00    -0.055 C 
ATOM     25  C   UNL     1      47.263  20.359  19.004  0.00  0.00    +0.044 C 
ATOM     26  C   UNL     1      45.463  17.057  19.126  0.00  0.00    -0.005 A 
ATOM     27  C   UNL     1      48.161  15.711  17.094  0.00  0.00    -0.014 C 
ATOM     28  C   UNL     1      49.661  15.566  17.117  0.00  0.00    +0.275 C 
ATOM     29  O   UNL     1      50.014  14.247  16.683  0.00  0.00    -0.316 OA
ATOM     30  C   UNL     1      49.080  13.322  16.356  0.00  0.00    +0.160 A 
ENDROOT
BRANCH   7   8
ATOM      8  O   UNL     1      48.725  10.354  14.278  0.00  0.00    -0.490 OA
ATOM      9  H   UNL     1      49.449  10.571  13.674  0.00  0.00    +0.393 HD
ENDBRANCH   7   8
BRANCH   6   5
ATOM      5  C   UNL     1      50.721  12.275  14.780  0.00  0.00    +0.127 C 
BRANCH   5   4
ATOM      1  C   UNL     1      51.462  10.942  12.408  0.00  0.00    +0.075 C 
ATOM      2  C   UNL     1      51.048  12.391  12.364  0.00  0.00    -0.132 C 
ATOM      3  C   UNL     1      51.094  13.148  11.061  0.00  0.00    +0.072 C 
ATOM      4  C   UNL     1      50.648  12.992  13.458  0.00  0.00    -0.050 C 
ENDBRANCH   5   4
ENDBRANCH   6   5
TORSDOF 3
ENDMDL
MODEL 9
REMARK VINA RESULT:      -6.1      3.163      3.966
REMARK  Name = ZINC05854599
REMARK  7 active torsions:
REMARK  status: ('A' for Active; 'I' for Inactive)
REMARK    1  A    between atoms: C1_1  and  C2_2
REMARK    2  A    between atoms: C2_2  and  C25_31
REMARK    3  A    between atoms: C3_3  and  C4_4
REMARK    4  A    between atoms: C4_4  and  C5_5
REMARK    5  A    between atoms: C6_6  and  O4_30
REMARK    6  A    between atoms: C20_25  and  C23_28
REMARK    7  A    between atoms: C20_25  and  C24_29
REMARK                            x       y       z     vdW  Elec       q    Type
REMARK                         _______ _______ _______ _____ _____    ______ ____
ROOT
ATOM      6  C   UNL     1      44.354  21.224  19.778  0.00  0.00    -0.127 A 
ATOM      7  C   UNL     1      44.469  22.525  20.242  0.00  0.00    +0.150 A 
ATOM     10  C   UNL     1      45.635  22.949  20.863  0.00  0.00    -0.033 A 
ATOM     11  C   UNL     1      46.693  22.068  21.011  0.00  0.00    +0.087 A 
ATOM     12  C   UNL     1      46.580  20.783  20.551  0.00  0.00    -0.166 A 
ATOM     13  C   UNL     1      47.663  19.761  20.638  0.00  0.00    +0.225 C 
ATOM     14  O   UNL     1      49.016  20.194  20.715  0.00  0.00    -0.275 OA
ATOM     15  C   UNL     1      49.762  19.205  20.144  0.00  0.00    +0.137 A 
ATOM     16  C   UNL     1      48.988  18.456  19.228  0.00  0.00    -0.183 A 
ATOM     17  C   UNL     1      49.511  17.386  18.542  0.00  0.00    +0.127 A 
ATOM     18  C   UNL     1      50.846  17.055  18.795  0.00  0.00    -0.159 A 
ATOM     19  C   UNL     1      51.624  17.800  19.693  0.00  0.00    +0.172 A 
ATOM     20  O   UNL     1      52.933  17.468  19.857  0.00  0.00    -0.302 OA
ATOM     21  C   UNL     1      53.274  16.085  19.770  0.00  0.00    +0.147 C 
ATOM     22  C   UNL     1      52.777  15.364  21.024  0.00  0.00    +0.034 C 
ATOM     23  C   UNL     1      54.794  15.945  19.677  0.00  0.00    +0.083 C 
ATOM     24  C   UNL     1      52.642  15.460  18.555  0.00  0.00    -0.055 C 
ATOM     25  C   UNL     1      51.477  15.913  18.100  0.00  0.00    +0.044 C 
ATOM     26  C   UNL     1      51.095  18.886  20.375  0.00  0.00    -0.005 A 
ATOM     27  C   UNL     1      47.653  19.101  19.223  0.00  0.00    -0.014 C 
ATOM     28  C   UNL     1      46.407  18.256  19.144  0.00  0.00    +0.275 C 
ATOM     29  O   UNL     1      45.277  19.044  19.537  0.00  0.00    -0.316 OA
ATOM     30  C   UNL     1      45.400  20.331  19.939  0.00  0.00    +0.160 A 
ENDROOT
BRANCH   7   8
ATOM      8  O   UNL     1      43.434  23.392  20.087  0.00  0.00    -0.490 OA
ATOM      9  H   UNL     1      43.498  24.184  20.638  0.00  0.00    +0.393 HD
ENDBRANCH   7   8
BRANCH   6   5
ATOM      5  C   UNL     1      43.082  20.777  19.104  0.00  0.00    +0.127 C 
BRANCH   5   4
ATOM      1  C   UNL     1      40.270  20.850  19.300  0.00  0.00    +0.075 C 
ATOM      2  C   UNL     1      41.060  19.867  20.125  0.00  0.00    -0.132 C 
ATOM      3  C   UNL     1      40.353  18.968  21.106  0.00  0.00    +0.072 C 
ATOM      4  C   UNL     1      42.362  19.795  19.990  0.00  0.00    -0.050 C 
ENDBRANCH   5   4
ENDBRANCH   6   5
TORSDOF 3
ENDMDL
