MODEL 1
REMARK VINA RESULT:      -5.8      0.000      0.000
REMARK  Name = ZINC95486364
REMARK  4 active torsions:
REMARK  status: ('A' for Active; 'I' for Inactive)
REMARK    1  A    between atoms: C1_1  and  C2_2
REMARK    2  A    between atoms: C8_11  and  O4_29
REMARK    3  A    between atoms: C15_22  and  C16_23
REMARK    4  A    between atoms: C15_22  and  C17_24
REMARK                            x       y       z     vdW  Elec       q    Type
REMARK                         _______ _______ _______ _____ _____    ______ ____
ROOT
ATOM      1  C   UNL     1      47.953  16.092  18.922  0.00  0.00    +0.087 C 
ATOM      2  C   UNL     1      46.482  16.299  18.568  0.00  0.00    +0.022 C 
ATOM      3  C   UNL     1      45.457  15.400  19.260  0.00  0.00    +0.054 C 
ATOM      4  C   UNL     1      45.875  14.899  20.622  0.00  0.00    +0.065 C 
ATOM      5  C   UNL     1      45.602  15.875  21.759  0.00  0.00    +0.129 C 
ATOM      6  C   UNL     1      44.476  16.893  21.701  0.00  0.00    +0.124 C 
ATOM      7  C   UNL     1      44.620  18.202  22.490  0.00  0.00    +0.030 C 
ATOM      8  C   UNL     1      44.414  19.393  21.555  0.00  0.00    +0.181 C 
ATOM     11  C   UNL     1      45.603  20.344  21.557  0.00  0.00    +0.072 C 
ATOM     12  C   UNL     1      45.162  21.708  21.085  0.00  0.00    -0.196 C 
ATOM     13  C   UNL     1      45.236  22.103  19.684  0.00  0.00    +0.396 C 
ATOM     14  C   UNL     1      45.895  21.235  18.641  0.00  0.00    +0.043 C 
ATOM     15  C   UNL     1      46.083  19.824  19.193  0.00  0.00    -0.003 C 
ATOM     16  C   UNL     1      46.820  18.904  18.222  0.00  0.00    +0.068 C 
ATOM     17  O   UNL     1      44.767  23.171  19.349  0.00  0.00    -0.466 OA
ATOM     18  C   UNL     1      44.711  22.587  21.979  0.00  0.00    +0.154 C 
ATOM     19  C   UNL     1      46.695  19.873  20.584  0.00  0.00    -0.046 C 
ATOM     20  C   UNL     1      47.253  18.526  21.026  0.00  0.00    +0.038 C 
ATOM     21  C   UNL     1      47.850  20.889  20.622  0.00  0.00    +0.032 C 
ATOM     22  O   UNL     1      44.372  15.695  22.480  0.00  0.00    -0.362 OA
ATOM     23  O   UNL     1      46.271  16.608  17.174  0.00  0.00    -0.353 OA
ATOM     24  C   UNL     1      45.961  17.649  18.089  0.00  0.00    +0.117 C 
ENDROOT
BRANCH   8   9
ATOM      9  O   UNL     1      43.236  20.097  21.984  0.00  0.00    -0.565 OA
ATOM     10  H   UNL     1      42.417  19.769  21.589  0.00  0.00    +0.379 HD
ENDBRANCH   8   9
TORSDOF 1
ENDMDL
MODEL 2
REMARK VINA RESULT:      -5.5      2.984      4.914
REMARK  Name = ZINC95486364
REMARK  4 active torsions:
REMARK  status: ('A' for Active; 'I' for Inactive)
REMARK    1  A    between atoms: C1_1  and  C2_2
REMARK    2  A    between atoms: C8_11  and  O4_29
REMARK    3  A    between atoms: C15_22  and  C16_23
REMARK    4  A    between atoms: C15_22  and  C17_24
REMARK                            x       y       z     vdW  Elec       q    Type
REMARK                         _______ _______ _______ _____ _____    ______ ____
ROOT
ATOM      1  C   UNL     1      52.190  19.176  19.460  0.00  0.00    +0.087 C 
ATOM      2  C   UNL     1      51.520  19.452  18.115  0.00  0.00    +0.022 C 
ATOM      3  C   UNL     1      51.658  18.387  17.027  0.00  0.00    +0.054 C 
ATOM      4  C   UNL     1      51.838  16.978  17.542  0.00  0.00    +0.065 C 
ATOM      5  C   UNL     1      50.537  16.270  17.895  0.00  0.00    +0.129 C 
ATOM      6  C   UNL     1      49.220  16.607  17.216  0.00  0.00    +0.124 C 
ATOM      7  C   UNL     1      47.911  16.381  17.986  0.00  0.00    +0.030 C 
ATOM      8  C   UNL     1      47.094  17.672  18.002  0.00  0.00    +0.181 C 
ATOM     11  C   UNL     1      46.763  18.130  19.416  0.00  0.00    +0.072 C 
ATOM     12  C   UNL     1      45.558  19.038  19.386  0.00  0.00    -0.196 C 
ATOM     13  C   UNL     1      45.683  20.486  19.272  0.00  0.00    +0.396 C 
ATOM     14  C   UNL     1      47.020  21.181  19.327  0.00  0.00    +0.043 C 
ATOM     15  C   UNL     1      48.138  20.160  19.131  0.00  0.00    -0.003 C 
ATOM     16  C   UNL     1      49.530  20.777  19.256  0.00  0.00    +0.068 C 
ATOM     17  O   UNL     1      44.678  21.154  19.144  0.00  0.00    -0.466 OA
ATOM     18  C   UNL     1      44.342  18.503  19.488  0.00  0.00    +0.154 C 
ATOM     19  C   UNL     1      47.915  18.948  20.022  0.00  0.00    -0.046 C 
ATOM     20  C   UNL     1      49.162  18.084  20.157  0.00  0.00    +0.038 C 
ATOM     21  C   UNL     1      47.504  19.395  21.435  0.00  0.00    +0.032 C 
ATOM     22  O   UNL     1      49.965  15.430  16.881  0.00  0.00    -0.362 OA
ATOM     23  O   UNL     1      51.600  20.836  17.713  0.00  0.00    -0.353 OA
ATOM     24  C   UNL     1      50.296  20.354  18.005  0.00  0.00    +0.117 C 
ENDROOT
BRANCH   8   9
ATOM      9  O   UNL     1      45.875  17.437  17.277  0.00  0.00    -0.565 OA
ATOM     10  H   UNL     1      45.670  16.502  17.145  0.00  0.00    +0.379 HD
ENDBRANCH   8   9
TORSDOF 1
ENDMDL
MODEL 3
REMARK VINA RESULT:      -5.3      3.347      5.166
REMARK  Name = ZINC95486364
REMARK  4 active torsions:
REMARK  status: ('A' for Active; 'I' for Inactive)
REMARK    1  A    between atoms: C1_1  and  C2_2
REMARK    2  A    between atoms: C8_11  and  O4_29
REMARK    3  A    between atoms: C15_22  and  C16_23
REMARK    4  A    between atoms: C15_22  and  C17_24
REMARK                            x       y       z     vdW  Elec       q    Type
REMARK                         _______ _______ _______ _____ _____    ______ ____
ROOT
ATOM      1  C   UNL     1      47.528  14.524  19.160  0.00  0.00    +0.087 C 
ATOM      2  C   UNL     1      47.016  15.619  18.224  0.00  0.00    +0.022 C 
ATOM      3  C   UNL     1      45.868  16.495  18.726  0.00  0.00    +0.054 C 
ATOM      4  C   UNL     1      45.800  16.648  20.227  0.00  0.00    +0.065 C 
ATOM      5  C   UNL     1      46.708  17.734  20.787  0.00  0.00    +0.129 C 
ATOM      6  C   UNL     1      47.110  18.954  19.975  0.00  0.00    +0.124 C 
ATOM      7  C   UNL     1      48.448  19.641  20.284  0.00  0.00    +0.030 C 
ATOM      8  C   UNL     1      49.281  19.746  19.008  0.00  0.00    +0.181 C 
ATOM     11  C   UNL     1      50.647  19.087  19.153  0.00  0.00    +0.072 C 
ATOM     12  C   UNL     1      51.597  19.661  18.131  0.00  0.00    -0.196 C 
ATOM     13  C   UNL     1      51.781  19.054  16.819  0.00  0.00    +0.396 C 
ATOM     14  C   UNL     1      51.151  17.734  16.451  0.00  0.00    +0.043 C 
ATOM     15  C   UNL     1      50.059  17.388  17.461  0.00  0.00    -0.003 C 
ATOM     16  C   UNL     1      49.427  16.022  17.203  0.00  0.00    +0.068 C 
ATOM     17  O   UNL     1      52.476  19.621  16.001  0.00  0.00    -0.466 OA
ATOM     18  C   UNL     1      52.307  20.744  18.445  0.00  0.00    +0.154 C 
ATOM     19  C   UNL     1      50.569  17.576  18.882  0.00  0.00    -0.046 C 
ATOM     20  C   UNL     1      49.680  16.898  19.917  0.00  0.00    +0.038 C 
ATOM     21  C   UNL     1      51.981  16.984  19.023  0.00  0.00    +0.032 C 
ATOM     22  O   UNL     1      46.113  19.024  21.000  0.00  0.00    -0.362 OA
ATOM     23  O   UNL     1      47.000  15.220  16.838  0.00  0.00    -0.353 OA
ATOM     24  C   UNL     1      47.919  16.250  17.170  0.00  0.00    +0.117 C 
ENDROOT
BRANCH   8   9
ATOM      9  O   UNL     1      49.451  21.139  18.699  0.00  0.00    -0.565 OA
ATOM     10  H   UNL     1      49.208  21.373  17.794  0.00  0.00    +0.379 HD
ENDBRANCH   8   9
TORSDOF 1
ENDMDL
MODEL 4
REMARK VINA RESULT:      -5.2      2.321      5.466
REMARK  Name = ZINC95486364
REMARK  4 active torsions:
REMARK  status: ('A' for Active; 'I' for Inactive)
REMARK    1  A    between atoms: C1_1  and  C2_2
REMARK    2  A    between atoms: C8_11  and  O4_29
REMARK    3  A    between atoms: C15_22  and  C16_23
REMARK    4  A    between atoms: C15_22  and  C17_24
REMARK                            x       y       z     vdW  Elec       q    Type
REMARK                         _______ _______ _______ _____ _____    ______ ____
ROOT
ATOM      1  C   UNL     1      43.372  19.676  21.125  0.00  0.00    +0.087 C 
ATOM      2  C   UNL     1      43.915  20.592  20.030  0.00  0.00    +0.022 C 
ATOM      3  C   UNL     1      44.293  22.019  20.428  0.00  0.00    +0.054 C 
ATOM      4  C   UNL     1      44.714  22.182  21.871  0.00  0.00    +0.065 C 
ATOM      5  C   UNL     1      46.176  21.852  22.136  0.00  0.00    +0.129 C 
ATOM      6  C   UNL     1      47.249  22.004  21.070  0.00  0.00    +0.124 C 
ATOM      7  C   UNL     1      48.494  21.109  21.140  0.00  0.00    +0.030 C 
ATOM      8  C   UNL     1      48.677  20.376  19.813  0.00  0.00    +0.181 C 
ATOM     11  C   UNL     1      48.719  18.863  19.987  0.00  0.00    +0.072 C 
ATOM     12  C   UNL     1      49.418  18.237  18.805  0.00  0.00    -0.196 C 
ATOM     13  C   UNL     1      48.689  17.777  17.631  0.00  0.00    +0.396 C 
ATOM     14  C   UNL     1      47.181  17.758  17.579  0.00  0.00    +0.043 C 
ATOM     15  C   UNL     1      46.620  18.612  18.714  0.00  0.00    -0.003 C 
ATOM     16  C   UNL     1      45.094  18.577  18.779  0.00  0.00    +0.068 C 
ATOM     17  O   UNL     1      49.314  17.380  16.668  0.00  0.00    -0.466 OA
ATOM     18  C   UNL     1      50.740  18.079  18.846  0.00  0.00    +0.154 C 
ATOM     19  C   UNL     1      47.303  18.267  20.028  0.00  0.00    -0.046 C 
ATOM     20  C   UNL     1      46.543  18.794  21.238  0.00  0.00    +0.038 C 
ATOM     21  C   UNL     1      47.423  16.742  20.182  0.00  0.00    +0.032 C 
ATOM     22  O   UNL     1      47.096  22.956  22.131  0.00  0.00    -0.362 OA
ATOM     23  O   UNL     1      43.266  20.401  18.755  0.00  0.00    -0.353 OA
ATOM     24  C   UNL     1      44.636  20.033  18.809  0.00  0.00    +0.117 C 
ENDROOT
BRANCH   8   9
ATOM      9  O   UNL     1      49.908  20.825  19.221  0.00  0.00    -0.565 OA
ATOM     10  H   UNL     1      50.054  20.501  18.322  0.00  0.00    +0.379 HD
ENDBRANCH   8   9
TORSDOF 1
ENDMDL
MODEL 5
REMARK VINA RESULT:      -5.2      1.730      2.669
REMARK  Name = ZINC95486364
REMARK  4 active torsions:
REMARK  status: ('A' for Active; 'I' for Inactive)
REMARK    1  A    between atoms: C1_1  and  C2_2
REMARK    2  A    between atoms: C8_11  and  O4_29
REMARK    3  A    between atoms: C15_22  and  C16_23
REMARK    4  A    between atoms: C15_22  and  C17_24
REMARK                            x       y       z     vdW  Elec       q    Type
REMARK                         _______ _______ _______ _____ _____    ______ ____
ROOT
ATOM      1  C   UNL     1      48.814  18.080  18.086  0.00  0.00    +0.087 C 
ATOM      2  C   UNL     1      47.689  17.078  17.835  0.00  0.00    +0.022 C 
ATOM      3  C   UNL     1      47.877  15.658  18.369  0.00  0.00    +0.054 C 
ATOM      4  C   UNL     1      48.767  15.554  19.586  0.00  0.00    +0.065 C 
ATOM      5  C   UNL     1      48.054  15.822  20.905  0.00  0.00    +0.129 C 
ATOM      6  C   UNL     1      46.570  15.557  21.095  0.00  0.00    +0.124 C 
ATOM      7  C   UNL     1      45.795  16.390  22.126  0.00  0.00    +0.030 C 
ATOM      8  C   UNL     1      44.583  17.038  21.458  0.00  0.00    +0.181 C 
ATOM     11  C   UNL     1      44.581  18.553  21.608  0.00  0.00    +0.072 C 
ATOM     12  C   UNL     1      43.176  19.077  21.437  0.00  0.00    -0.196 C 
ATOM     13  C   UNL     1      42.664  19.508  20.142  0.00  0.00    +0.396 C 
ATOM     14  C   UNL     1      43.546  19.601  18.922  0.00  0.00    +0.043 C 
ATOM     15  C   UNL     1      44.847  18.842  19.171  0.00  0.00    -0.003 C 
ATOM     16  C   UNL     1      45.830  18.958  18.008  0.00  0.00    +0.068 C 
ATOM     17  O   UNL     1      41.494  19.818  20.046  0.00  0.00    -0.466 OA
ATOM     18  C   UNL     1      42.386  19.169  22.505  0.00  0.00    +0.154 C 
ATOM     19  C   UNL     1      45.436  19.223  20.521  0.00  0.00    -0.046 C 
ATOM     20  C   UNL     1      46.894  18.803  20.661  0.00  0.00    +0.038 C 
ATOM     21  C   UNL     1      45.370  20.746  20.719  0.00  0.00    +0.032 C 
ATOM     22  O   UNL     1      47.569  14.675  21.621  0.00  0.00    -0.362 OA
ATOM     23  O   UNL     1      47.069  17.231  16.541  0.00  0.00    -0.353 OA
ATOM     24  C   UNL     1      46.244  17.531  17.657  0.00  0.00    +0.117 C 
ENDROOT
BRANCH   8   9
ATOM      9  O   UNL     1      43.398  16.494  22.063  0.00  0.00    -0.565 OA
ATOM     10  H   UNL     1      43.092  16.983  22.838  0.00  0.00    +0.379 HD
ENDBRANCH   8   9
TORSDOF 1
ENDMDL
MODEL 6
REMARK VINA RESULT:      -5.1      1.584      5.375
REMARK  Name = ZINC95486364
REMARK  4 active torsions:
REMARK  status: ('A' for Active; 'I' for Inactive)
REMARK    1  A    between atoms: C1_1  and  C2_2
REMARK    2  A    between atoms: C8_11  and  O4_29
REMARK    3  A    between atoms: C15_22  and  C16_23
REMARK    4  A    between atoms: C15_22  and  C17_24
REMARK                            x       y       z     vdW  Elec       q    Type
REMARK                         _______ _______ _______ _____ _____    ______ ____
ROOT
ATOM      1  C   UNL     1      46.153  21.491  18.756  0.00  0.00    +0.087 C 
ATOM      2  C   UNL     1      46.751  20.969  20.061  0.00  0.00    +0.022 C 
ATOM      3  C   UNL     1      45.939  21.173  21.340  0.00  0.00    +0.054 C 
ATOM      4  C   UNL     1      44.444  21.247  21.134  0.00  0.00    +0.065 C 
ATOM      5  C   UNL     1      43.755  19.891  21.061  0.00  0.00    +0.129 C 
ATOM      6  C   UNL     1      44.307  18.661  21.763  0.00  0.00    +0.124 C 
ATOM      7  C   UNL     1      43.999  17.275  21.179  0.00  0.00    +0.030 C 
ATOM      8  C   UNL     1      45.302  16.510  20.951  0.00  0.00    +0.181 C 
ATOM     11  C   UNL     1      45.463  16.059  19.505  0.00  0.00    +0.072 C 
ATOM     12  C   UNL     1      46.426  14.899  19.441  0.00  0.00    -0.196 C 
ATOM     13  C   UNL     1      47.854  15.090  19.223  0.00  0.00    +0.396 C 
ATOM     14  C   UNL     1      48.441  16.441  18.898  0.00  0.00    +0.043 C 
ATOM     15  C   UNL     1      47.422  17.533  19.216  0.00  0.00    -0.003 C 
ATOM     16  C   UNL     1      47.914  18.928  18.836  0.00  0.00    +0.068 C 
ATOM     17  O   UNL     1      48.593  14.129  19.288  0.00  0.00    -0.466 OA
ATOM     18  C   UNL     1      45.954  13.660  19.567  0.00  0.00    +0.154 C 
ATOM     19  C   UNL     1      46.061  17.176  18.636  0.00  0.00    -0.046 C 
ATOM     20  C   UNL     1      45.117  18.370  18.586  0.00  0.00    +0.038 C 
ATOM     21  C   UNL     1      46.217  16.645  17.201  0.00  0.00    +0.032 C 
ATOM     22  O   UNL     1      43.189  19.389  22.282  0.00  0.00    -0.362 OA
ATOM     23  O   UNL     1      48.181  21.141  20.139  0.00  0.00    -0.353 OA
ATOM     24  C   UNL     1      47.726  19.798  20.076  0.00  0.00    +0.117 C 
ENDROOT
BRANCH   8   9
ATOM      9  O   UNL     1      45.301  15.361  21.815  0.00  0.00    -0.565 OA
ATOM     10  H   UNL     1      45.753  15.503  22.658  0.00  0.00    +0.379 HD
ENDBRANCH   8   9
TORSDOF 1
ENDMDL
MODEL 7
REMARK VINA RESULT:      -5.1      1.498      1.900
REMARK  Name = ZINC95486364
REMARK  4 active torsions:
REMARK  status: ('A' for Active; 'I' for Inactive)
REMARK    1  A    between atoms: C1_1  and  C2_2
REMARK    2  A    between atoms: C8_11  and  O4_29
REMARK    3  A    between atoms: C15_22  and  C16_23
REMARK    4  A    between atoms: C15_22  and  C17_24
REMARK                            x       y       z     vdW  Elec       q    Type
REMARK                         _______ _______ _______ _____ _____    ______ ____
ROOT
ATOM      1  C   UNL     1      48.497  15.197  17.773  0.00  0.00    +0.087 C 
ATOM      2  C   UNL     1      46.995  15.177  17.493  0.00  0.00    +0.022 C 
ATOM      3  C   UNL     1      46.189  14.006  18.055  0.00  0.00    +0.054 C 
ATOM      4  C   UNL     1      46.765  13.386  19.307  0.00  0.00    +0.065 C 
ATOM      5  C   UNL     1      46.382  14.105  20.594  0.00  0.00    +0.129 C 
ATOM      6  C   UNL     1      45.089  14.891  20.730  0.00  0.00    +0.124 C 
ATOM      7  C   UNL     1      45.036  16.065  21.718  0.00  0.00    +0.030 C 
ATOM      8  C   UNL     1      44.567  17.327  20.995  0.00  0.00    +0.181 C 
ATOM     11  C   UNL     1      45.563  18.472  21.122  0.00  0.00    +0.072 C 
ATOM     12  C   UNL     1      44.858  19.785  20.889  0.00  0.00    -0.196 C 
ATOM     13  C   UNL     1      44.783  20.399  19.569  0.00  0.00    +0.396 C 
ATOM     14  C   UNL     1      45.530  19.843  18.383  0.00  0.00    +0.043 C 
ATOM     15  C   UNL     1      46.000  18.424  18.693  0.00  0.00    -0.003 C 
ATOM     16  C   UNL     1      46.838  17.821  17.567  0.00  0.00    +0.068 C 
ATOM     17  O   UNL     1      44.111  21.400  19.424  0.00  0.00    -0.466 OA
ATOM     18  C   UNL     1      44.304  20.414  21.924  0.00  0.00    +0.154 C 
ATOM     19  C   UNL     1      46.668  18.371  20.059  0.00  0.00    -0.046 C 
ATOM     20  C   UNL     1      47.483  17.100  20.261  0.00  0.00    +0.038 C 
ATOM     21  C   UNL     1      47.620  19.566  20.232  0.00  0.00    +0.032 C 
ATOM     22  O   UNL     1      45.246  13.589  21.306  0.00  0.00    -0.362 OA
ATOM     23  O   UNL     1      46.656  15.654  16.174  0.00  0.00    -0.353 OA
ATOM     24  C   UNL     1      46.214  16.463  17.253  0.00  0.00    +0.117 C 
ENDROOT
BRANCH   8   9
ATOM      9  O   UNL     1      43.306  17.722  21.560  0.00  0.00    -0.565 OA
ATOM     10  H   UNL     1      42.697  16.988  21.715  0.00  0.00    +0.379 HD
ENDBRANCH   8   9
TORSDOF 1
ENDMDL
MODEL 8
REMARK VINA RESULT:      -5.1      2.173      3.792
REMARK  Name = ZINC95486364
REMARK  4 active torsions:
REMARK  status: ('A' for Active; 'I' for Inactive)
REMARK    1  A    between atoms: C1_1  and  C2_2
REMARK    2  A    between atoms: C8_11  and  O4_29
REMARK    3  A    between atoms: C15_22  and  C16_23
REMARK    4  A    between atoms: C15_22  and  C17_24
REMARK                            x       y       z     vdW  Elec       q    Type
REMARK                         _______ _______ _______ _____ _____    ______ ____
ROOT
ATOM      1  C   UNL     1      50.049  18.977  21.342  0.00  0.00    +0.087 C 
ATOM      2  C   UNL     1      49.800  19.565  19.954  0.00  0.00    +0.022 C 
ATOM      3  C   UNL     1      49.932  18.624  18.756  0.00  0.00    +0.054 C 
ATOM      4  C   UNL     1      49.646  17.171  19.059  0.00  0.00    +0.065 C 
ATOM      5  C   UNL     1      48.168  16.806  19.025  0.00  0.00    +0.129 C 
ATOM      6  C   UNL     1      47.166  17.553  18.161  0.00  0.00    +0.124 C 
ATOM      7  C   UNL     1      45.698  17.606  18.606  0.00  0.00    +0.030 C 
ATOM      8  C   UNL     1      45.231  19.060  18.670  0.00  0.00    +0.181 C 
ATOM     11  C   UNL     1      44.696  19.436  20.046  0.00  0.00    +0.072 C 
ATOM     12  C   UNL     1      43.784  20.632  19.924  0.00  0.00    -0.196 C 
ATOM     13  C   UNL     1      44.273  21.996  20.076  0.00  0.00    +0.396 C 
ATOM     14  C   UNL     1      45.686  22.298  20.511  0.00  0.00    +0.043 C 
ATOM     15  C   UNL     1      46.542  21.041  20.376  0.00  0.00    -0.003 C 
ATOM     16  C   UNL     1      47.971  21.244  20.876  0.00  0.00    +0.068 C 
ATOM     17  O   UNL     1      43.515  22.920  19.862  0.00  0.00    -0.466 OA
ATOM     18  C   UNL     1      42.487  20.435  19.693  0.00  0.00    +0.154 C 
ATOM     19  C   UNL     1      45.834  19.845  20.994  0.00  0.00    -0.046 C 
ATOM     20  C   UNL     1      46.773  18.669  21.232  0.00  0.00    +0.038 C 
ATOM     21  C   UNL     1      45.221  20.232  22.350  0.00  0.00    +0.032 C 
ATOM     22  O   UNL     1      47.667  16.263  17.792  0.00  0.00    -0.362 OA
ATOM     23  O   UNL     1      50.298  20.910  19.809  0.00  0.00    -0.353 OA
ATOM     24  C   UNL     1      48.887  20.768  19.752  0.00  0.00    +0.117 C 
ENDROOT
BRANCH   8   9
ATOM      9  O   UNL     1      44.198  19.239  17.688  0.00  0.00    -0.565 OA
ATOM     10  H   UNL     1      44.528  19.413  16.797  0.00  0.00    +0.379 HD
ENDBRANCH   8   9
TORSDOF 1
ENDMDL
MODEL 9
REMARK VINA RESULT:      -4.9      2.578      6.601
REMARK  Name = ZINC95486364
REMARK  4 active torsions:
REMARK  status: ('A' for Active; 'I' for Inactive)
REMARK    1  A    between atoms: C1_1  and  C2_2
REMARK    2  A    between atoms: C8_11  and  O4_29
REMARK    3  A    between atoms: C15_22  and  C16_23
REMARK    4  A    between atoms: C15_22  and  C17_24
REMARK                            x       y       z     vdW  Elec       q    Type
REMARK                         _______ _______ _______ _____ _____    ______ ____
ROOT
ATOM      1  C   UNL     1      45.503  19.210  20.627  0.00  0.00    +0.087 C 
ATOM      2  C   UNL     1      45.843  19.548  19.176  0.00  0.00    +0.022 C 
ATOM      3  C   UNL     1      46.740  20.762  18.927  0.00  0.00    +0.054 C 
ATOM      4  C   UNL     1      47.692  21.085  20.055  0.00  0.00    +0.065 C 
ATOM      5  C   UNL     1      48.985  20.281  20.031  0.00  0.00    +0.129 C 
ATOM      6  C   UNL     1      49.581  19.739  18.743  0.00  0.00    +0.124 C 
ATOM      7  C   UNL     1      50.445  18.472  18.802  0.00  0.00    +0.030 C 
ATOM      8  C   UNL     1      49.901  17.431  17.824  0.00  0.00    +0.181 C 
ATOM     11  C   UNL     1      49.562  16.114  18.509  0.00  0.00    +0.072 C 
ATOM     12  C   UNL     1      49.558  15.000  17.491  0.00  0.00    -0.196 C 
ATOM     13  C   UNL     1      48.346  14.597  16.790  0.00  0.00    +0.396 C 
ATOM     14  C   UNL     1      46.992  15.162  17.141  0.00  0.00    +0.043 C 
ATOM     15  C   UNL     1      47.165  16.411  18.000  0.00  0.00    -0.003 C 
ATOM     16  C   UNL     1      45.833  16.996  18.466  0.00  0.00    +0.068 C 
ATOM     17  O   UNL     1      48.426  13.769  15.905  0.00  0.00    -0.466 OA
ATOM     18  C   UNL     1      50.694  14.349  17.241  0.00  0.00    +0.154 C 
ATOM     19  C   UNL     1      48.155  16.151  19.126  0.00  0.00    -0.046 C 
ATOM     20  C   UNL     1      48.085  17.207  20.221  0.00  0.00    +0.038 C 
ATOM     21  C   UNL     1      47.873  14.787  19.777  0.00  0.00    +0.032 C 
ATOM     22  O   UNL     1      50.115  20.898  19.395  0.00  0.00    -0.362 OA
ATOM     23  O   UNL     1      44.743  19.329  18.269  0.00  0.00    -0.353 OA
ATOM     24  C   UNL     1      45.865  18.476  18.093  0.00  0.00    +0.117 C 
ENDROOT
BRANCH   8   9
ATOM      9  O   UNL     1      50.898  17.205  16.814  0.00  0.00    -0.565 OA
ATOM     10  H   UNL     1      51.677  16.728  17.131  0.00  0.00    +0.379 HD
ENDBRANCH   8   9
TORSDOF 1
ENDMDL
