MODEL 1
REMARK VINA RESULT:      -5.5      0.000      0.000
REMARK  Name = ZINC95485896
REMARK  6 active torsions:
REMARK  status: ('A' for Active; 'I' for Inactive)
REMARK    1  A    between atoms: C1_1  and  C2_2
REMARK    2  A    between atoms: C2_2  and  C3_3
REMARK    3  A    between atoms: C2_2  and  C4_4
REMARK    4  A    between atoms: C9_10  and  O2_19
REMARK    5  A    between atoms: C12_14  and  C15_17
REMARK    6  A    between atoms: C12_14  and  O1_18
REMARK                            x       y       z     vdW  Elec       q    Type
REMARK                         _______ _______ _______ _____ _____    ______ ____
ROOT
ATOM      3  C   UNL     1      45.445  22.016  19.559  0.00  0.00    +0.021 C 
ATOM      4  C   UNL     1      46.319  21.241  20.546  0.00  0.00    +0.023 C 
ATOM      5  C   UNL     1      45.447  20.701  21.683  0.00  0.00    +0.061 C 
ATOM      6  C   UNL     1      44.966  19.317  21.332  0.00  0.00    -0.139 C 
ATOM      7  C   UNL     1      43.520  18.946  21.544  0.00  0.00    +0.199 C 
ATOM     10  C   UNL     1      42.856  18.690  20.189  0.00  0.00    +0.039 C 
ATOM     11  C   UNL     1      41.631  19.595  20.043  0.00  0.00    +0.067 C 
ATOM     12  C   UNL     1      41.903  20.653  18.972  0.00  0.00    +0.162 C 
ATOM     15  C   UNL     1      40.658  21.523  18.786  0.00  0.00    +0.009 C 
ATOM     16  C   UNL     1      43.060  21.518  19.403  0.00  0.00    -0.065 C 
ATOM     17  C   UNL     1      45.803  18.436  20.843  0.00  0.00    -0.001 C 
ATOM     18  C   UNL     1      44.288  21.154  19.127  0.00  0.00    -0.015 C 
ENDROOT
BRANCH   3   2
ATOM      1  C   UNL     1      45.976  23.840  21.182  0.00  0.00    +0.013 C 
ATOM      2  C   UNL     1      44.913  23.283  20.234  0.00  0.00    -0.018 C 
ATOM     19  C   UNL     1      44.582  24.328  19.167  0.00  0.00    +0.011 C 
ENDBRANCH   3   2
BRANCH   7   8
ATOM      8  O   UNL     1      42.846  20.017  22.210  0.00  0.00    -0.551 OA
ATOM      9  H   UNL     1      42.276  20.542  21.632  0.00  0.00    +0.371 HD
ENDBRANCH   7   8
BRANCH  12  13
ATOM     13  O   UNL     1      42.223  20.011  17.737  0.00  0.00    -0.560 OA
ATOM     14  H   UNL     1      41.479  19.545  17.331  0.00  0.00    +0.373 HD
ENDBRANCH  12  13
TORSDOF 3
ENDMDL
MODEL 2
REMARK VINA RESULT:      -4.8      6.409      7.945
REMARK  Name = ZINC95485896
REMARK  6 active torsions:
REMARK  status: ('A' for Active; 'I' for Inactive)
REMARK    1  A    between atoms: C1_1  and  C2_2
REMARK    2  A    between atoms: C2_2  and  C3_3
REMARK    3  A    between atoms: C2_2  and  C4_4
REMARK    4  A    between atoms: C9_10  and  O2_19
REMARK    5  A    between atoms: C12_14  and  C15_17
REMARK    6  A    between atoms: C12_14  and  O1_18
REMARK                            x       y       z     vdW  Elec       q    Type
REMARK                         _______ _______ _______ _____ _____    ______ ____
ROOT
ATOM      3  C   UNL     1      50.622  20.757  19.943  0.00  0.00    +0.021 C 
ATOM      4  C   UNL     1      51.708  21.445  19.115  0.00  0.00    +0.023 C 
ATOM      5  C   UNL     1      52.594  20.385  18.456  0.00  0.00    +0.061 C 
ATOM      6  C   UNL     1      52.047  20.049  17.093  0.00  0.00    -0.139 C 
ATOM      7  C   UNL     1      51.926  18.609  16.664  0.00  0.00    +0.199 C 
ATOM     10  C   UNL     1      50.447  18.249  16.502  0.00  0.00    +0.039 C 
ATOM     11  C   UNL     1      50.118  17.040  17.380  0.00  0.00    +0.067 C 
ATOM     12  C   UNL     1      49.211  17.476  18.531  0.00  0.00    +0.162 C 
ATOM     15  C   UNL     1      48.836  16.257  19.377  0.00  0.00    +0.009 C 
ATOM     16  C   UNL     1      49.936  18.480  19.390  0.00  0.00    -0.065 C 
ATOM     17  C   UNL     1      51.678  21.008  16.280  0.00  0.00    -0.001 C 
ATOM     18  C   UNL     1      49.895  19.753  19.087  0.00  0.00    -0.015 C 
ENDROOT
BRANCH   3   2
ATOM      1  C   UNL     1      52.477  20.840  21.615  0.00  0.00    +0.013 C 
ATOM      2  C   UNL     1      51.265  20.041  21.133  0.00  0.00    -0.018 C 
ATOM     19  C   UNL     1      50.247  19.924  22.269  0.00  0.00    +0.011 C 
ENDBRANCH   3   2
BRANCH   7   8
ATOM      8  O   UNL     1      52.516  17.765  17.655  0.00  0.00    -0.551 OA
ATOM      9  H   UNL     1      52.103  17.834  18.526  0.00  0.00    +0.371 HD
ENDBRANCH   7   8
BRANCH  12  13
ATOM     13  O   UNL     1      48.024  18.072  18.003  0.00  0.00    -0.560 OA
ATOM     14  H   UNL     1      47.916  19.005  18.233  0.00  0.00    +0.373 HD
ENDBRANCH  12  13
TORSDOF 3
ENDMDL
MODEL 3
REMARK VINA RESULT:      -4.5      5.546      7.653
REMARK  Name = ZINC95485896
REMARK  6 active torsions:
REMARK  status: ('A' for Active; 'I' for Inactive)
REMARK    1  A    between atoms: C1_1  and  C2_2
REMARK    2  A    between atoms: C2_2  and  C3_3
REMARK    3  A    between atoms: C2_2  and  C4_4
REMARK    4  A    between atoms: C9_10  and  O2_19
REMARK    5  A    between atoms: C12_14  and  C15_17
REMARK    6  A    between atoms: C12_14  and  O1_18
REMARK                            x       y       z     vdW  Elec       q    Type
REMARK                         _______ _______ _______ _____ _____    ______ ____
ROOT
ATOM      3  C   UNL     1      48.423  20.669  19.781  0.00  0.00    +0.021 C 
ATOM      4  C   UNL     1      48.747  20.849  21.266  0.00  0.00    +0.023 C 
ATOM      5  C   UNL     1      49.931  19.953  21.641  0.00  0.00    +0.061 C 
ATOM      6  C   UNL     1      51.215  20.723  21.472  0.00  0.00    -0.139 C 
ATOM      7  C   UNL     1      52.390  20.085  20.776  0.00  0.00    +0.199 C 
ATOM     10  C   UNL     1      52.670  20.825  19.466  0.00  0.00    +0.039 C 
ATOM     11  C   UNL     1      52.637  19.832  18.302  0.00  0.00    +0.067 C 
ATOM     12  C   UNL     1      51.409  20.107  17.433  0.00  0.00    +0.162 C 
ATOM     15  C   UNL     1      51.405  19.150  16.238  0.00  0.00    +0.009 C 
ATOM     16  C   UNL     1      50.159  19.896  18.248  0.00  0.00    -0.065 C 
ATOM     17  C   UNL     1      51.312  21.946  21.931  0.00  0.00    -0.001 C 
ATOM     18  C   UNL     1      49.671  20.878  18.965  0.00  0.00    -0.015 C 
ENDROOT
BRANCH   3   2
ATOM      1  C   UNL     1      47.301  18.705  20.845  0.00  0.00    +0.013 C 
ATOM      2  C   UNL     1      47.890  19.254  19.544  0.00  0.00    -0.018 C 
ATOM     19  C   UNL     1      46.803  19.292  18.468  0.00  0.00    +0.011 C 
ENDBRANCH   3   2
BRANCH   7   8
ATOM      8  O   UNL     1      52.091  18.716  20.495  0.00  0.00    -0.551 OA
ATOM      9  H   UNL     1      52.538  18.088  21.078  0.00  0.00    +0.371 HD
ENDBRANCH   7   8
BRANCH  12  13
ATOM     13  O   UNL     1      51.449  21.455  16.962  0.00  0.00    -0.560 OA
ATOM     14  H   UNL     1      50.586  21.890  16.937  0.00  0.00    +0.373 HD
ENDBRANCH  12  13
TORSDOF 3
ENDMDL
MODEL 4
REMARK VINA RESULT:      -4.5      5.437      7.252
REMARK  Name = ZINC95485896
REMARK  6 active torsions:
REMARK  status: ('A' for Active; 'I' for Inactive)
REMARK    1  A    between atoms: C1_1  and  C2_2
REMARK    2  A    between atoms: C2_2  and  C3_3
REMARK    3  A    between atoms: C2_2  and  C4_4
REMARK    4  A    between atoms: C9_10  and  O2_19
REMARK    5  A    between atoms: C12_14  and  C15_17
REMARK    6  A    between atoms: C12_14  and  O1_18
REMARK                            x       y       z     vdW  Elec       q    Type
REMARK                         _______ _______ _______ _____ _____    ______ ____
ROOT
ATOM      3  C   UNL     1      51.702  19.652  18.004  0.00  0.00    +0.021 C 
ATOM      4  C   UNL     1      51.340  20.916  18.787  0.00  0.00    +0.023 C 
ATOM      5  C   UNL     1      49.816  21.052  18.856  0.00  0.00    +0.061 C 
ATOM      6  C   UNL     1      49.309  20.375  20.103  0.00  0.00    -0.139 C 
ATOM      7  C   UNL     1      48.107  19.467  20.031  0.00  0.00    +0.199 C 
ATOM     10  C   UNL     1      48.533  18.032  20.348  0.00  0.00    +0.039 C 
ATOM     11  C   UNL     1      48.127  17.113  19.194  0.00  0.00    +0.067 C 
ATOM     12  C   UNL     1      49.380  16.628  18.463  0.00  0.00    +0.162 C 
ATOM     15  C   UNL     1      48.978  15.665  17.344  0.00  0.00    +0.009 C 
ATOM     16  C   UNL     1      50.106  17.809  17.872  0.00  0.00    -0.065 C 
ATOM     17  C   UNL     1      49.909  20.575  21.249  0.00  0.00    -0.001 C 
ATOM     18  C   UNL     1      50.978  18.470  18.593  0.00  0.00    -0.015 C 
ENDROOT
BRANCH   3   2
ATOM      1  C   UNL     1      51.576  21.260  16.095  0.00  0.00    +0.013 C 
ATOM      2  C   UNL     1      51.292  19.824  16.540  0.00  0.00    -0.018 C 
ATOM     19  C   UNL     1      52.092  18.853  15.669  0.00  0.00    +0.011 C 
ENDBRANCH   3   2
BRANCH   7   8
ATOM      8  O   UNL     1      47.549  19.519  18.716  0.00  0.00    -0.551 OA
ATOM      9  H   UNL     1      47.778  18.762  18.162  0.00  0.00    +0.371 HD
ENDBRANCH   7   8
BRANCH  12  13
ATOM     13  O   UNL     1      50.239  15.954  19.385  0.00  0.00    -0.560 OA
ATOM     14  H   UNL     1      50.212  14.990  19.315  0.00  0.00    +0.373 HD
ENDBRANCH  12  13
TORSDOF 3
ENDMDL
MODEL 5
REMARK VINA RESULT:      -4.4      2.486      4.531
REMARK  Name = ZINC95485896
REMARK  6 active torsions:
REMARK  status: ('A' for Active; 'I' for Inactive)
REMARK    1  A    between atoms: C1_1  and  C2_2
REMARK    2  A    between atoms: C2_2  and  C3_3
REMARK    3  A    between atoms: C2_2  and  C4_4
REMARK    4  A    between atoms: C9_10  and  O2_19
REMARK    5  A    between atoms: C12_14  and  C15_17
REMARK    6  A    between atoms: C12_14  and  O1_18
REMARK                            x       y       z     vdW  Elec       q    Type
REMARK                         _______ _______ _______ _____ _____    ______ ____
ROOT
ATOM      3  C   UNL     1      44.886  21.004  20.986  0.00  0.00    +0.021 C 
ATOM      4  C   UNL     1      43.720  20.033  20.794  0.00  0.00    +0.023 C 
ATOM      5  C   UNL     1      43.862  19.325  19.444  0.00  0.00    +0.061 C 
ATOM      6  C   UNL     1      44.636  18.046  19.628  0.00  0.00    -0.139 C 
ATOM      7  C   UNL     1      45.746  17.692  18.670  0.00  0.00    +0.199 C 
ATOM     10  C   UNL     1      47.084  17.710  19.411  0.00  0.00    +0.039 C 
ATOM     11  C   UNL     1      48.046  18.667  18.705  0.00  0.00    +0.067 C 
ATOM     12  C   UNL     1      48.286  19.892  19.589  0.00  0.00    +0.162 C 
ATOM     15  C   UNL     1      49.291  20.824  18.908  0.00  0.00    +0.009 C 
ATOM     16  C   UNL     1      46.985  20.624  19.798  0.00  0.00    -0.065 C 
ATOM     17  C   UNL     1      44.346  17.240  20.618  0.00  0.00    -0.001 C 
ATOM     18  C   UNL     1      46.188  20.274  20.777  0.00  0.00    -0.015 C 
ENDROOT
BRANCH   3   2
ATOM      1  C   UNL     1      43.300  22.371  19.621  0.00  0.00    +0.013 C 
ATOM      2  C   UNL     1      44.772  22.144  19.971  0.00  0.00    -0.018 C 
ATOM     19  C   UNL     1      45.356  23.423  20.573  0.00  0.00    +0.011 C 
ENDBRANCH   3   2
BRANCH   7   8
ATOM      8  O   UNL     1      45.778  18.646  17.606  0.00  0.00    -0.551 OA
ATOM      9  H   UNL     1      45.311  19.469  17.802  0.00  0.00    +0.371 HD
ENDBRANCH   7   8
BRANCH  12  13
ATOM     13  O   UNL     1      48.806  19.474  20.852  0.00  0.00    -0.560 OA
ATOM     14  H   UNL     1      48.611  18.553  21.073  0.00  0.00    +0.373 HD
ENDBRANCH  12  13
TORSDOF 3
ENDMDL
MODEL 6
REMARK VINA RESULT:      -4.4      2.083      3.779
REMARK  Name = ZINC95485896
REMARK  6 active torsions:
REMARK  status: ('A' for Active; 'I' for Inactive)
REMARK    1  A    between atoms: C1_1  and  C2_2
REMARK    2  A    between atoms: C2_2  and  C3_3
REMARK    3  A    between atoms: C2_2  and  C4_4
REMARK    4  A    between atoms: C9_10  and  O2_19
REMARK    5  A    between atoms: C12_14  and  C15_17
REMARK    6  A    between atoms: C12_14  and  O1_18
REMARK                            x       y       z     vdW  Elec       q    Type
REMARK                         _______ _______ _______ _____ _____    ______ ____
ROOT
ATOM      3  C   UNL     1      44.559  20.384  18.805  0.00  0.00    +0.021 C 
ATOM      4  C   UNL     1      45.869  21.168  18.707  0.00  0.00    +0.023 C 
ATOM      5  C   UNL     1      46.573  21.155  20.067  0.00  0.00    +0.061 C 
ATOM      6  C   UNL     1      47.514  19.980  20.134  0.00  0.00    -0.139 C 
ATOM      7  C   UNL     1      47.542  19.106  21.362  0.00  0.00    +0.199 C 
ATOM     10  C   UNL     1      47.040  17.706  21.004  0.00  0.00    +0.039 C 
ATOM     11  C   UNL     1      45.866  17.337  21.912  0.00  0.00    +0.067 C 
ATOM     12  C   UNL     1      44.577  17.296  21.088  0.00  0.00    +0.162 C 
ATOM     15  C   UNL     1      43.411  16.873  21.984  0.00  0.00    +0.009 C 
ATOM     16  C   UNL     1      44.302  18.664  20.518  0.00  0.00    -0.065 C 
ATOM     17  C   UNL     1      48.308  19.717  19.126  0.00  0.00    -0.001 C 
ATOM     18  C   UNL     1      44.832  19.016  19.374  0.00  0.00    -0.015 C 
ENDROOT
BRANCH   3   2
ATOM      1  C   UNL     1      43.925  22.623  19.717  0.00  0.00    +0.013 C 
ATOM      2  C   UNL     1      43.585  21.131  19.719  0.00  0.00    -0.018 C 
ATOM     19  C   UNL     1      42.156  20.934  19.210  0.00  0.00    +0.011 C 
ENDBRANCH   3   2
BRANCH   7   8
ATOM      8  O   UNL     1      46.698  19.671  22.368  0.00  0.00    -0.551 OA
ATOM      9  H   UNL     1      46.321  19.021  22.976  0.00  0.00    +0.371 HD
ENDBRANCH   7   8
BRANCH  12  13
ATOM     13  O   UNL     1      44.723  16.357  20.021  0.00  0.00    -0.560 OA
ATOM     14  H   UNL     1      44.528  16.721  19.147  0.00  0.00    +0.373 HD
ENDBRANCH  12  13
TORSDOF 3
ENDMDL
MODEL 7
REMARK VINA RESULT:      -4.3      5.477      7.463
REMARK  Name = ZINC95485896
REMARK  6 active torsions:
REMARK  status: ('A' for Active; 'I' for Inactive)
REMARK    1  A    between atoms: C1_1  and  C2_2
REMARK    2  A    between atoms: C2_2  and  C3_3
REMARK    3  A    between atoms: C2_2  and  C4_4
REMARK    4  A    between atoms: C9_10  and  O2_19
REMARK    5  A    between atoms: C12_14  and  C15_17
REMARK    6  A    between atoms: C12_14  and  O1_18
REMARK                            x       y       z     vdW  Elec       q    Type
REMARK                         _______ _______ _______ _____ _____    ______ ____
ROOT
ATOM      3  C   UNL     1      48.436  20.107  20.149  0.00  0.00    +0.021 C 
ATOM      4  C   UNL     1      48.473  18.837  21.001  0.00  0.00    +0.023 C 
ATOM      5  C   UNL     1      49.151  17.714  20.211  0.00  0.00    +0.061 C 
ATOM      6  C   UNL     1      50.629  17.715  20.507  0.00  0.00    -0.139 C 
ATOM      7  C   UNL     1      51.622  17.592  19.379  0.00  0.00    +0.199 C 
ATOM     10  C   UNL     1      52.423  18.891  19.262  0.00  0.00    +0.039 C 
ATOM     11  C   UNL     1      52.294  19.444  17.842  0.00  0.00    +0.067 C 
ATOM     12  C   UNL     1      51.463  20.728  17.868  0.00  0.00    +0.162 C 
ATOM     15  C   UNL     1      51.380  21.311  16.456  0.00  0.00    +0.009 C 
ATOM     16  C   UNL     1      50.074  20.417  18.365  0.00  0.00    -0.065 C 
ATOM     17  C   UNL     1      51.050  17.821  21.742  0.00  0.00    -0.001 C 
ATOM     18  C   UNL     1      49.823  20.419  19.651  0.00  0.00    -0.015 C 
ENDROOT
BRANCH   3   2
ATOM      1  C   UNL     1      46.638  18.655  19.199  0.00  0.00    +0.013 C 
ATOM      2  C   UNL     1      47.502  19.895  18.956  0.00  0.00    -0.018 C 
ATOM     19  C   UNL     1      46.600  21.120  18.789  0.00  0.00    +0.011 C 
ENDBRANCH   3   2
BRANCH   7   8
ATOM      8  O   UNL     1      50.926  17.350  18.155  0.00  0.00    -0.551 OA
ATOM      9  H   UNL     1      51.435  16.846  17.506  0.00  0.00    +0.371 HD
ENDBRANCH   7   8
BRANCH  12  13
ATOM     13  O   UNL     1      52.079  21.677  18.739  0.00  0.00    -0.560 OA
ATOM     14  H   UNL     1      51.529  21.937  19.491  0.00  0.00    +0.373 HD
ENDBRANCH  12  13
TORSDOF 3
ENDMDL
MODEL 8
REMARK VINA RESULT:      -4.3      1.799      4.270
REMARK  Name = ZINC95485896
REMARK  6 active torsions:
REMARK  status: ('A' for Active; 'I' for Inactive)
REMARK    1  A    between atoms: C1_1  and  C2_2
REMARK    2  A    between atoms: C2_2  and  C3_3
REMARK    3  A    between atoms: C2_2  and  C4_4
REMARK    4  A    between atoms: C9_10  and  O2_19
REMARK    5  A    between atoms: C12_14  and  C15_17
REMARK    6  A    between atoms: C12_14  and  O1_18
REMARK                            x       y       z     vdW  Elec       q    Type
REMARK                         _______ _______ _______ _____ _____    ______ ____
ROOT
ATOM      3  C   UNL     1      46.457  18.217  20.404  0.00  0.00    +0.021 C 
ATOM      4  C   UNL     1      47.690  19.123  20.406  0.00  0.00    +0.023 C 
ATOM      5  C   UNL     1      47.430  20.340  19.514  0.00  0.00    +0.061 C 
ATOM      6  C   UNL     1      46.855  21.457  20.345  0.00  0.00    -0.139 C 
ATOM      7  C   UNL     1      45.663  22.233  19.843  0.00  0.00    +0.199 C 
ATOM     10  C   UNL     1      44.462  21.967  20.752  0.00  0.00    +0.039 C 
ATOM     11  C   UNL     1      43.294  21.443  19.915  0.00  0.00    +0.067 C 
ATOM     12  C   UNL     1      43.044  19.972  20.253  0.00  0.00    +0.162 C 
ATOM     15  C   UNL     1      41.841  19.462  19.456  0.00  0.00    +0.009 C 
ATOM     16  C   UNL     1      44.263  19.160  19.896  0.00  0.00    -0.065 C 
ATOM     17  C   UNL     1      47.389  21.756  21.502  0.00  0.00    -0.001 C 
ATOM     18  C   UNL     1      45.237  19.027  20.760  0.00  0.00    -0.015 C 
ENDROOT
BRANCH   3   2
ATOM      1  C   UNL     1      47.633  17.511  18.315  0.00  0.00    +0.013 C 
ATOM      2  C   UNL     1      46.274  17.607  19.012  0.00  0.00    -0.018 C 
ATOM     19  C   UNL     1      45.669  16.208  19.144  0.00  0.00    +0.011 C 
ENDBRANCH   3   2
BRANCH   7   8
ATOM      8  O   UNL     1      45.352  21.819  18.510  0.00  0.00    -0.551 OA
ATOM      9  H   UNL     1      45.383  20.862  18.379  0.00  0.00    +0.371 HD
ENDBRANCH   7   8
BRANCH  12  13
ATOM     13  O   UNL     1      42.779  19.842  21.650  0.00  0.00    -0.560 OA
ATOM     14  H   UNL     1      43.572  19.739  22.194  0.00  0.00    +0.373 HD
ENDBRANCH  12  13
TORSDOF 3
ENDMDL
MODEL 9
REMARK VINA RESULT:      -4.2      5.646      7.915
REMARK  Name = ZINC95485896
REMARK  6 active torsions:
REMARK  status: ('A' for Active; 'I' for Inactive)
REMARK    1  A    between atoms: C1_1  and  C2_2
REMARK    2  A    between atoms: C2_2  and  C3_3
REMARK    3  A    between atoms: C2_2  and  C4_4
REMARK    4  A    between atoms: C9_10  and  O2_19
REMARK    5  A    between atoms: C12_14  and  C15_17
REMARK    6  A    between atoms: C12_14  and  O1_18
REMARK                            x       y       z     vdW  Elec       q    Type
REMARK                         _______ _______ _______ _____ _____    ______ ____
ROOT
ATOM      3  C   UNL     1      48.245  18.512  19.511  0.00  0.00    +0.021 C 
ATOM      4  C   UNL     1      47.967  17.339  18.568  0.00  0.00    +0.023 C 
ATOM      5  C   UNL     1      48.726  17.550  17.255  0.00  0.00    +0.061 C 
ATOM      6  C   UNL     1      50.079  16.895  17.347  0.00  0.00    -0.139 C 
ATOM      7  C   UNL     1      51.307  17.635  16.880  0.00  0.00    +0.199 C 
ATOM     10  C   UNL     1      52.215  17.924  18.077  0.00  0.00    +0.039 C 
ATOM     11  C   UNL     1      52.486  19.427  18.161  0.00  0.00    +0.067 C 
ATOM     12  C   UNL     1      51.781  20.004  19.390  0.00  0.00    +0.162 C 
ATOM     15  C   UNL     1      52.097  21.497  19.505  0.00  0.00    +0.009 C 
ATOM     16  C   UNL     1      50.292  19.816  19.250  0.00  0.00    -0.065 C 
ATOM     17  C   UNL     1      50.190  15.684  17.832  0.00  0.00    -0.001 C 
ATOM     18  C   UNL     1      49.732  18.702  19.652  0.00  0.00    -0.015 C 
ENDROOT
BRANCH   3   2
ATOM      1  C   UNL     1      46.234  19.466  18.375  0.00  0.00    +0.013 C 
ATOM      2  C   UNL     1      47.620  19.786  18.939  0.00  0.00    -0.018 C 
ATOM     19  C   UNL     1      47.490  20.833  20.046  0.00  0.00    +0.011 C 
ENDBRANCH   3   2
BRANCH   7   8
ATOM      8  O   UNL     1      50.918  18.867  16.269  0.00  0.00    -0.551 OA
ATOM      9  H   UNL     1      51.023  18.880  15.309  0.00  0.00    +0.371 HD
ENDBRANCH   7   8
BRANCH  12  13
ATOM     13  O   UNL     1      52.238  19.329  20.563  0.00  0.00    -0.560 OA
ATOM     14  H   UNL     1      51.664  19.444  21.333  0.00  0.00    +0.373 HD
ENDBRANCH  12  13
TORSDOF 3
ENDMDL
