MODEL 1
REMARK VINA RESULT:      -6.9      0.000      0.000
REMARK  Name = ZINC14768735
REMARK  13 active torsions:
REMARK  status: ('A' for Active; 'I' for Inactive)
REMARK    1  A    between atoms: C1_1  and  C2_2
REMARK    2  A    between atoms: C2_2  and  C28_34
REMARK    3  A    between atoms: C3_3  and  C4_4
REMARK    4  A    between atoms: C4_4  and  C5_5
REMARK    5  A    between atoms: C6_6  and  O6_33
REMARK    6  A    between atoms: C10_10  and  O1_11
REMARK    7  A    between atoms: C15_17  and  O4_26
REMARK    8  A    between atoms: C16_18  and  C18_21
REMARK    9  A    between atoms: C18_21  and  C19_22
REMARK   10  A    between atoms: C20_23  and  C21_24
REMARK   11  A    between atoms: C20_23  and  C22_25
REMARK   12  A    between atoms: C23_28  and  C26_31
REMARK   13  A    between atoms: C23_28  and  C27_32
REMARK                            x       y       z     vdW  Elec       q    Type
REMARK                         _______ _______ _______ _____ _____    ______ ____
ROOT
ATOM      6  C   UNL     1      45.237  19.948  20.217  0.00  0.00    -0.166 A 
ATOM      7  C   UNL     1      46.331  20.800  20.331  0.00  0.00    +0.200 A 
ATOM     10  C   UNL     1      47.576  20.417  19.859  0.00  0.00    -0.032 A 
ATOM     11  C   UNL     1      47.746  19.176  19.263  0.00  0.00    +0.197 A 
ATOM     12  C   UNL     1      46.641  18.315  19.146  0.00  0.00    -0.268 A 
ATOM     13  C   UNL     1      46.829  16.998  18.513  0.00  0.00    +0.444 A 
ATOM     14  C   UNL     1      48.186  16.677  18.039  0.00  0.00    -0.195 A 
ATOM     15  C   UNL     1      48.466  15.446  17.421  0.00  0.00    -0.029 A 
ATOM     16  C   UNL     1      49.761  15.169  16.981  0.00  0.00    +0.080 A 
ATOM     17  O   UNL     1      50.011  13.973  16.387  0.00  0.00    -0.287 OA
ATOM     18  C   UNL     1      49.270  12.846  16.855  0.00  0.00    +0.140 C 
ATOM     19  C   UNL     1      49.776  12.448  18.243  0.00  0.00    +0.034 C 
ATOM     20  C   UNL     1      49.467  11.675  15.890  0.00  0.00    +0.087 C 
ATOM     21  C   UNL     1      47.803  13.179  16.941  0.00  0.00    -0.032 C 
ATOM     22  C   UNL     1      50.768  16.113  17.160  0.00  0.00    +0.157 A 
ATOM     25  C   UNL     1      50.493  17.327  17.769  0.00  0.00    -0.097 A 
ATOM     31  C   UNL     1      47.419  14.425  17.218  0.00  0.00    +0.055 C 
ATOM     32  C   UNL     1      49.209  17.622  18.214  0.00  0.00    +0.156 A 
ATOM     33  O   UNL     1      45.907  16.214  18.386  0.00  0.00    -0.432 OA
ATOM     34  O   UNL     1      48.961  18.810  18.805  0.00  0.00    -0.220 OA
ATOM     35  C   UNL     1      45.384  18.707  19.626  0.00  0.00    +0.223 A 
ENDROOT
BRANCH   7   8
ATOM      8  O   UNL     1      46.178  22.017  20.912  0.00  0.00    -0.484 OA
ATOM      9  H   UNL     1      45.413  22.078  21.501  0.00  0.00    +0.401 HD
ENDBRANCH   7   8
BRANCH  22  23
ATOM     23  O   UNL     1      52.029  15.843  16.732  0.00  0.00    -0.470 OA
ATOM     24  H   UNL     1      52.483  16.604  16.342  0.00  0.00    +0.395 HD
ENDBRANCH  22  23
BRANCH  35  36
ATOM     36  O   UNL     1      44.321  17.871  19.519  0.00  0.00    -0.469 OA
ATOM     37  H   UNL     1      44.499  17.074  19.001  0.00  0.00    +0.401 HD
ENDBRANCH  35  36
BRANCH   6   5
ATOM      5  C   UNL     1      43.890  20.380  20.736  0.00  0.00    +0.134 C 
BRANCH   5   4
ATOM      1  C   UNL     1      41.294  19.367  20.300  0.00  0.00    +0.076 C 
ATOM      2  C   UNL     1      41.829  20.476  19.430  0.00  0.00    -0.129 C 
ATOM      3  C   UNL     1      40.952  21.090  18.370  0.00  0.00    +0.073 C 
ATOM      4  C   UNL     1      43.056  20.903  19.594  0.00  0.00    -0.051 C 
ENDBRANCH   5   4
ENDBRANCH   6   5
BRANCH  25  26
ATOM     26  C   UNL     1      51.596  18.337  17.951  0.00  0.00    +0.140 C 
BRANCH  26  27
ATOM     27  C   UNL     1      51.604  19.289  16.783  0.00  0.00    -0.057 C 
ATOM     28  C   UNL     1      51.529  20.580  16.990  0.00  0.00    -0.123 C 
ATOM     29  C   UNL     1      51.536  21.533  15.822  0.00  0.00    +0.074 C 
ATOM     30  C   UNL     1      51.435  21.114  18.397  0.00  0.00    +0.077 C 
ENDBRANCH  26  27
ENDBRANCH  25  26
TORSDOF 7
ENDMDL
MODEL 2
REMARK VINA RESULT:      -6.1      1.680      7.529
REMARK  Name = ZINC14768735
REMARK  13 active torsions:
REMARK  status: ('A' for Active; 'I' for Inactive)
REMARK    1  A    between atoms: C1_1  and  C2_2
REMARK    2  A    between atoms: C2_2  and  C28_34
REMARK    3  A    between atoms: C3_3  and  C4_4
REMARK    4  A    between atoms: C4_4  and  C5_5
REMARK    5  A    between atoms: C6_6  and  O6_33
REMARK    6  A    between atoms: C10_10  and  O1_11
REMARK    7  A    between atoms: C15_17  and  O4_26
REMARK    8  A    between atoms: C16_18  and  C18_21
REMARK    9  A    between atoms: C18_21  and  C19_22
REMARK   10  A    between atoms: C20_23  and  C21_24
REMARK   11  A    between atoms: C20_23  and  C22_25
REMARK   12  A    between atoms: C23_28  and  C26_31
REMARK   13  A    between atoms: C23_28  and  C27_32
REMARK                            x       y       z     vdW  Elec       q    Type
REMARK                         _______ _______ _______ _____ _____    ______ ____
ROOT
ATOM      6  C   UNL     1      49.671  13.863  16.199  0.00  0.00    -0.166 A 
ATOM      7  C   UNL     1      50.850  14.598  16.256  0.00  0.00    +0.200 A 
ATOM     10  C   UNL     1      50.899  15.803  16.939  0.00  0.00    -0.032 A 
ATOM     11  C   UNL     1      49.768  16.291  17.577  0.00  0.00    +0.197 A 
ATOM     12  C   UNL     1      48.576  15.549  17.521  0.00  0.00    -0.268 A 
ATOM     13  C   UNL     1      47.379  16.074  18.200  0.00  0.00    +0.444 A 
ATOM     14  C   UNL     1      47.524  17.360  18.902  0.00  0.00    -0.195 A 
ATOM     15  C   UNL     1      46.440  17.942  19.580  0.00  0.00    -0.029 A 
ATOM     16  C   UNL     1      46.606  19.163  20.237  0.00  0.00    +0.080 A 
ATOM     17  O   UNL     1      45.545  19.709  20.886  0.00  0.00    -0.287 OA
ATOM     18  C   UNL     1      44.252  19.491  20.320  0.00  0.00    +0.140 C 
ATOM     19  C   UNL     1      44.111  20.325  19.045  0.00  0.00    +0.034 C 
ATOM     20  C   UNL     1      43.181  19.919  21.325  0.00  0.00    +0.087 C 
ATOM     21  C   UNL     1      44.065  18.035  19.982  0.00  0.00    -0.032 C 
ATOM     22  C   UNL     1      47.846  19.795  20.214  0.00  0.00    +0.157 A 
ATOM     25  C   UNL     1      48.916  19.222  19.546  0.00  0.00    -0.097 A 
ATOM     31  C   UNL     1      45.113  17.295  19.621  0.00  0.00    +0.055 C 
ATOM     32  C   UNL     1      48.769  18.007  18.885  0.00  0.00    +0.156 A 
ATOM     33  O   UNL     1      46.321  15.472  18.183  0.00  0.00    -0.432 OA
ATOM     34  O   UNL     1      49.823  17.465  18.240  0.00  0.00    -0.220 OA
ATOM     35  C   UNL     1      48.532  14.331  16.828  0.00  0.00    +0.223 A 
ENDROOT
BRANCH   7   8
ATOM      8  O   UNL     1      51.963  14.132  15.636  0.00  0.00    -0.484 OA
ATOM      9  H   UNL     1      52.463  13.488  16.156  0.00  0.00    +0.401 HD
ENDBRANCH   7   8
BRANCH  22  23
ATOM     23  O   UNL     1      48.008  20.983  20.853  0.00  0.00    -0.470 OA
ATOM     24  H   UNL     1      48.632  20.950  21.592  0.00  0.00    +0.395 HD
ENDBRANCH  22  23
BRANCH  35  36
ATOM     36  O   UNL     1      47.378  13.620  16.769  0.00  0.00    -0.469 OA
ATOM     37  H   UNL     1      46.582  14.150  16.915  0.00  0.00    +0.401 HD
ENDBRANCH  35  36
BRANCH   6   5
ATOM      5  C   UNL     1      49.635  12.555  15.452  0.00  0.00    +0.134 C 
BRANCH   5   4
ATOM      1  C   UNL     1      51.551  11.048  14.033  0.00  0.00    +0.076 C 
ATOM      2  C   UNL     1      50.706  12.068  13.313  0.00  0.00    -0.129 C 
ATOM      3  C   UNL     1      50.837  12.235  11.821  0.00  0.00    +0.073 C 
ATOM      4  C   UNL     1      49.860  12.809  13.983  0.00  0.00    -0.051 C 
ENDBRANCH   5   4
ENDBRANCH   6   5
BRANCH  25  26
ATOM     26  C   UNL     1      50.249  19.922  19.534  0.00  0.00    +0.140 C 
BRANCH  26  27
ATOM     27  C   UNL     1      50.389  20.716  18.261  0.00  0.00    -0.057 C 
ATOM     28  C   UNL     1      51.428  20.531  17.485  0.00  0.00    -0.123 C 
ATOM     29  C   UNL     1      51.568  21.325  16.211  0.00  0.00    +0.074 C 
ATOM     30  C   UNL     1      52.483  19.524  17.865  0.00  0.00    +0.077 C 
ENDBRANCH  26  27
ENDBRANCH  25  26
TORSDOF 7
ENDMDL
MODEL 3
REMARK VINA RESULT:      -6.1      1.904      8.254
REMARK  Name = ZINC14768735
REMARK  13 active torsions:
REMARK  status: ('A' for Active; 'I' for Inactive)
REMARK    1  A    between atoms: C1_1  and  C2_2
REMARK    2  A    between atoms: C2_2  and  C28_34
REMARK    3  A    between atoms: C3_3  and  C4_4
REMARK    4  A    between atoms: C4_4  and  C5_5
REMARK    5  A    between atoms: C6_6  and  O6_33
REMARK    6  A    between atoms: C10_10  and  O1_11
REMARK    7  A    between atoms: C15_17  and  O4_26
REMARK    8  A    between atoms: C16_18  and  C18_21
REMARK    9  A    between atoms: C18_21  and  C19_22
REMARK   10  A    between atoms: C20_23  and  C21_24
REMARK   11  A    between atoms: C20_23  and  C22_25
REMARK   12  A    between atoms: C23_28  and  C26_31
REMARK   13  A    between atoms: C23_28  and  C27_32
REMARK                            x       y       z     vdW  Elec       q    Type
REMARK                         _______ _______ _______ _____ _____    ______ ____
ROOT
ATOM      6  C   UNL     1      48.738  13.424  16.040  0.00  0.00    -0.166 A 
ATOM      7  C   UNL     1      47.369  13.601  16.217  0.00  0.00    +0.200 A 
ATOM     10  C   UNL     1      46.877  14.753  16.809  0.00  0.00    -0.032 A 
ATOM     11  C   UNL     1      47.746  15.748  17.233  0.00  0.00    +0.197 A 
ATOM     12  C   UNL     1      49.129  15.570  17.054  0.00  0.00    -0.268 A 
ATOM     13  C   UNL     1      50.046  16.630  17.508  0.00  0.00    +0.444 A 
ATOM     14  C   UNL     1      49.434  17.820  18.124  0.00  0.00    -0.195 A 
ATOM     15  C   UNL     1      50.226  18.884  18.587  0.00  0.00    -0.029 A 
ATOM     16  C   UNL     1      49.618  19.999  19.167  0.00  0.00    +0.080 A 
ATOM     17  O   UNL     1      50.401  21.018  19.609  0.00  0.00    -0.287 OA
ATOM     18  C   UNL     1      51.680  20.672  20.143  0.00  0.00    +0.140 C 
ATOM     19  C   UNL     1      51.496  20.003  21.506  0.00  0.00    +0.034 C 
ATOM     20  C   UNL     1      52.518  21.941  20.311  0.00  0.00    +0.087 C 
ATOM     21  C   UNL     1      52.396  19.722  19.219  0.00  0.00    -0.032 C 
ATOM     22  C   UNL     1      48.232  20.048  19.284  0.00  0.00    +0.157 A 
ATOM     25  C   UNL     1      47.451  18.998  18.827  0.00  0.00    -0.097 A 
ATOM     31  C   UNL     1      51.698  18.861  18.478  0.00  0.00    +0.055 C 
ATOM     32  C   UNL     1      48.037  17.879  18.247  0.00  0.00    +0.156 A 
ATOM     33  O   UNL     1      51.253  16.528  17.378  0.00  0.00    -0.432 OA
ATOM     34  O   UNL     1      47.260  16.867  17.809  0.00  0.00    -0.220 OA
ATOM     35  C   UNL     1      49.622  14.403  16.456  0.00  0.00    +0.223 A 
ENDROOT
BRANCH   7   8
ATOM      8  O   UNL     1      46.508  12.636  15.807  0.00  0.00    -0.484 OA
ATOM      9  H   UNL     1      46.506  12.492  14.851  0.00  0.00    +0.401 HD
ENDBRANCH   7   8
BRANCH  22  23
ATOM     23  O   UNL     1      47.641  21.132  19.848  0.00  0.00    -0.470 OA
ATOM     24  H   UNL     1      48.256  21.719  20.311  0.00  0.00    +0.395 HD
ENDBRANCH  22  23
BRANCH  35  36
ATOM     36  O   UNL     1      50.957  14.231  16.291  0.00  0.00    -0.469 OA
ATOM     37  H   UNL     1      51.207  13.339  16.011  0.00  0.00    +0.401 HD
ENDBRANCH  35  36
BRANCH   6   5
ATOM      5  C   UNL     1      49.256  12.165  15.395  0.00  0.00    +0.134 C 
BRANCH   5   4
ATOM      1  C   UNL     1      51.758  11.398  14.344  0.00  0.00    +0.076 C 
ATOM      2  C   UNL     1      50.724  12.030  13.449  0.00  0.00    -0.129 C 
ATOM      3  C   UNL     1      51.000  12.190  11.976  0.00  0.00    +0.073 C 
ATOM      4  C   UNL     1      49.586  12.441  13.950  0.00  0.00    -0.051 C 
ENDBRANCH   5   4
ENDBRANCH   6   5
BRANCH  25  26
ATOM     26  C   UNL     1      45.953  19.071  18.961  0.00  0.00    +0.140 C 
BRANCH  26  27
ATOM     27  C   UNL     1      45.511  18.230  20.131  0.00  0.00    -0.057 C 
ATOM     28  C   UNL     1      44.257  18.240  20.509  0.00  0.00    -0.123 C 
ATOM     29  C   UNL     1      43.816  17.399  21.680  0.00  0.00    +0.074 C 
ATOM     30  C   UNL     1      43.255  19.093  19.774  0.00  0.00    +0.077 C 
ENDBRANCH  26  27
ENDBRANCH  25  26
TORSDOF 7
ENDMDL
MODEL 4
REMARK VINA RESULT:      -6.0      2.777      6.196
REMARK  Name = ZINC14768735
REMARK  13 active torsions:
REMARK  status: ('A' for Active; 'I' for Inactive)
REMARK    1  A    between atoms: C1_1  and  C2_2
REMARK    2  A    between atoms: C2_2  and  C28_34
REMARK    3  A    between atoms: C3_3  and  C4_4
REMARK    4  A    between atoms: C4_4  and  C5_5
REMARK    5  A    between atoms: C6_6  and  O6_33
REMARK    6  A    between atoms: C10_10  and  O1_11
REMARK    7  A    between atoms: C15_17  and  O4_26
REMARK    8  A    between atoms: C16_18  and  C18_21
REMARK    9  A    between atoms: C18_21  and  C19_22
REMARK   10  A    between atoms: C20_23  and  C21_24
REMARK   11  A    between atoms: C20_23  and  C22_25
REMARK   12  A    between atoms: C23_28  and  C26_31
REMARK   13  A    between atoms: C23_28  and  C27_32
REMARK                            x       y       z     vdW  Elec       q    Type
REMARK                         _______ _______ _______ _____ _____    ______ ____
ROOT
ATOM      6  C   UNL     1      49.495  19.698  18.911  0.00  0.00    -0.166 A 
ATOM      7  C   UNL     1      48.187  19.527  19.351  0.00  0.00    +0.200 A 
ATOM     10  C   UNL     1      47.516  18.335  19.127  0.00  0.00    -0.032 A 
ATOM     11  C   UNL     1      48.145  17.294  18.459  0.00  0.00    +0.197 A 
ATOM     12  C   UNL     1      49.467  17.465  18.015  0.00  0.00    -0.268 A 
ATOM     13  C   UNL     1      50.128  16.356  17.306  0.00  0.00    +0.444 A 
ATOM     14  C   UNL     1      49.340  15.126  17.114  0.00  0.00    -0.195 A 
ATOM     15  C   UNL     1      49.884  14.013  16.451  0.00  0.00    -0.029 A 
ATOM     16  C   UNL     1      49.113  12.861  16.283  0.00  0.00    +0.080 A 
ATOM     17  O   UNL     1      49.657  11.796  15.639  0.00  0.00    -0.287 OA
ATOM     18  C   UNL     1      50.578  12.074  14.583  0.00  0.00    +0.140 C 
ATOM     19  C   UNL     1      49.814  12.624  13.377  0.00  0.00    +0.034 C 
ATOM     20  C   UNL     1      51.293  10.783  14.182  0.00  0.00    +0.087 C 
ATOM     21  C   UNL     1      51.597  13.091  15.028  0.00  0.00    -0.032 C 
ATOM     22  C   UNL     1      47.811  12.824  16.774  0.00  0.00    +0.157 A 
ATOM     25  C   UNL     1      47.275  13.921  17.429  0.00  0.00    -0.097 A 
ATOM     31  C   UNL     1      51.261  14.024  15.919  0.00  0.00    +0.055 C 
ATOM     32  C   UNL     1      48.026  15.078  17.605  0.00  0.00    +0.156 A 
ATOM     33  O   UNL     1      51.272  16.451  16.899  0.00  0.00    -0.432 OA
ATOM     34  O   UNL     1      47.486  16.136  18.245  0.00  0.00    -0.220 OA
ATOM     35  C   UNL     1      50.140  18.673  18.244  0.00  0.00    +0.223 A 
ENDROOT
BRANCH   7   8
ATOM      8  O   UNL     1      47.560  20.537  20.006  0.00  0.00    -0.484 OA
ATOM      9  H   UNL     1      47.601  20.466  20.969  0.00  0.00    +0.401 HD
ENDBRANCH   7   8
BRANCH  22  23
ATOM     23  O   UNL     1      47.062  11.703  16.611  0.00  0.00    -0.470 OA
ATOM     24  H   UNL     1      46.136  11.807  16.874  0.00  0.00    +0.395 HD
ENDBRANCH  22  23
BRANCH  35  36
ATOM     36  O   UNL     1      51.414  18.838  17.807  0.00  0.00    -0.469 OA
ATOM     37  H   UNL     1      52.008  18.113  18.046  0.00  0.00    +0.401 HD
ENDBRANCH  35  36
BRANCH   6   5
ATOM      5  C   UNL     1      50.209  21.000  19.163  0.00  0.00    +0.134 C 
BRANCH   5   4
ATOM      1  C   UNL     1      52.954  21.526  19.545  0.00  0.00    +0.076 C 
ATOM      2  C   UNL     1      52.055  21.295  20.733  0.00  0.00    -0.129 C 
ATOM      3  C   UNL     1      52.610  21.412  22.130  0.00  0.00    +0.073 C 
ATOM      4  C   UNL     1      50.795  20.991  20.552  0.00  0.00    -0.051 C 
ENDBRANCH   5   4
ENDBRANCH   6   5
BRANCH  25  26
ATOM     26  C   UNL     1      45.865  13.860  17.954  0.00  0.00    +0.140 C 
BRANCH  26  27
ATOM     27  C   UNL     1      45.868  13.256  19.335  0.00  0.00    -0.057 C 
ATOM     28  C   UNL     1      45.488  13.973  20.364  0.00  0.00    -0.123 C 
ATOM     29  C   UNL     1      45.492  13.369  21.745  0.00  0.00    +0.074 C 
ATOM     30  C   UNL     1      45.046  15.400  20.166  0.00  0.00    +0.077 C 
ENDBRANCH  26  27
ENDBRANCH  25  26
TORSDOF 7
ENDMDL
MODEL 5
REMARK VINA RESULT:      -5.9      2.379      5.294
REMARK  Name = ZINC14768735
REMARK  13 active torsions:
REMARK  status: ('A' for Active; 'I' for Inactive)
REMARK    1  A    between atoms: C1_1  and  C2_2
REMARK    2  A    between atoms: C2_2  and  C28_34
REMARK    3  A    between atoms: C3_3  and  C4_4
REMARK    4  A    between atoms: C4_4  and  C5_5
REMARK    5  A    between atoms: C6_6  and  O6_33
REMARK    6  A    between atoms: C10_10  and  O1_11
REMARK    7  A    between atoms: C15_17  and  O4_26
REMARK    8  A    between atoms: C16_18  and  C18_21
REMARK    9  A    between atoms: C18_21  and  C19_22
REMARK   10  A    between atoms: C20_23  and  C21_24
REMARK   11  A    between atoms: C20_23  and  C22_25
REMARK   12  A    between atoms: C23_28  and  C26_31
REMARK   13  A    between atoms: C23_28  and  C27_32
REMARK                            x       y       z     vdW  Elec       q    Type
REMARK                         _______ _______ _______ _____ _____    ______ ____
ROOT
ATOM      6  C   UNL     1      43.315  18.978  21.054  0.00  0.00    -0.166 A 
ATOM      7  C   UNL     1      43.405  17.709  21.616  0.00  0.00    +0.200 A 
ATOM     10  C   UNL     1      44.617  17.037  21.654  0.00  0.00    -0.032 A 
ATOM     11  C   UNL     1      45.759  17.627  21.133  0.00  0.00    +0.197 A 
ATOM     12  C   UNL     1      45.670  18.910  20.566  0.00  0.00    -0.268 A 
ATOM     13  C   UNL     1      46.887  19.529  20.013  0.00  0.00    +0.444 A 
ATOM     14  C   UNL     1      48.130  18.744  20.099  0.00  0.00    -0.195 A 
ATOM     15  C   UNL     1      49.342  19.250  19.601  0.00  0.00    -0.029 A 
ATOM     16  C   UNL     1      50.505  18.483  19.696  0.00  0.00    +0.080 A 
ATOM     17  O   UNL     1      51.667  18.989  19.207  0.00  0.00    -0.287 OA
ATOM     18  C   UNL     1      51.579  19.825  18.053  0.00  0.00    +0.140 C 
ATOM     19  C   UNL     1      51.247  18.967  16.830  0.00  0.00    +0.034 C 
ATOM     20  C   UNL     1      52.921  20.524  17.830  0.00  0.00    +0.087 C 
ATOM     21  C   UNL     1      50.502  20.862  18.235  0.00  0.00    -0.032 C 
ATOM     22  C   UNL     1      50.454  17.222  20.283  0.00  0.00    +0.157 A 
ATOM     25  C   UNL     1      49.259  16.723  20.775  0.00  0.00    -0.097 A 
ATOM     31  C   UNL     1      49.427  20.583  18.973  0.00  0.00    +0.055 C 
ATOM     32  C   UNL     1      48.090  17.471  20.689  0.00  0.00    +0.156 A 
ATOM     33  O   UNL     1      46.866  20.638  19.511  0.00  0.00    -0.432 OA
ATOM     34  O   UNL     1      46.936  16.968  21.174  0.00  0.00    -0.220 OA
ATOM     35  C   UNL     1      44.441  19.584  20.529  0.00  0.00    +0.223 A 
ENDROOT
BRANCH   7   8
ATOM      8  O   UNL     1      42.295  17.120  22.129  0.00  0.00    -0.484 OA
ATOM      9  H   UNL     1      41.467  17.444  21.749  0.00  0.00    +0.401 HD
ENDBRANCH   7   8
BRANCH  22  23
ATOM     23  O   UNL     1      51.585  16.476  20.375  0.00  0.00    -0.470 OA
ATOM     24  H   UNL     1      51.475  15.655  20.875  0.00  0.00    +0.395 HD
ENDBRANCH  22  23
BRANCH  35  36
ATOM     36  O   UNL     1      44.357  20.819  19.975  0.00  0.00    -0.469 OA
ATOM     37  H   UNL     1      44.573  21.539  20.585  0.00  0.00    +0.401 HD
ENDBRANCH  35  36
BRANCH   6   5
ATOM      5  C   UNL     1      41.990  19.693  21.021  0.00  0.00    +0.134 C 
BRANCH   5   4
ATOM      1  C   UNL     1      41.313  21.510  18.972  0.00  0.00    +0.076 C 
ATOM      2  C   UNL     1      40.936  20.056  18.848  0.00  0.00    -0.129 C 
ATOM      3  C   UNL     1      40.257  19.559  17.598  0.00  0.00    +0.073 C 
ATOM      4  C   UNL     1      41.197  19.226  19.827  0.00  0.00    -0.051 C 
ENDBRANCH   5   4
ENDBRANCH   6   5
BRANCH  25  26
ATOM     26  C   UNL     1      49.225  15.356  21.408  0.00  0.00    +0.140 C 
BRANCH  26  27
ATOM     27  C   UNL     1      49.052  14.310  20.336  0.00  0.00    -0.057 C 
ATOM     28  C   UNL     1      48.035  13.487  20.384  0.00  0.00    -0.123 C 
ATOM     29  C   UNL     1      47.861  12.441  19.312  0.00  0.00    +0.074 C 
ATOM     30  C   UNL     1      47.037  13.586  21.509  0.00  0.00    +0.077 C 
ENDBRANCH  26  27
ENDBRANCH  25  26
TORSDOF 7
ENDMDL
MODEL 6
REMARK VINA RESULT:      -5.4      2.739      7.914
REMARK  Name = ZINC14768735
REMARK  13 active torsions:
REMARK  status: ('A' for Active; 'I' for Inactive)
REMARK    1  A    between atoms: C1_1  and  C2_2
REMARK    2  A    between atoms: C2_2  and  C28_34
REMARK    3  A    between atoms: C3_3  and  C4_4
REMARK    4  A    between atoms: C4_4  and  C5_5
REMARK    5  A    between atoms: C6_6  and  O6_33
REMARK    6  A    between atoms: C10_10  and  O1_11
REMARK    7  A    between atoms: C15_17  and  O4_26
REMARK    8  A    between atoms: C16_18  and  C18_21
REMARK    9  A    between atoms: C18_21  and  C19_22
REMARK   10  A    between atoms: C20_23  and  C21_24
REMARK   11  A    between atoms: C20_23  and  C22_25
REMARK   12  A    between atoms: C23_28  and  C26_31
REMARK   13  A    between atoms: C23_28  and  C27_32
REMARK                            x       y       z     vdW  Elec       q    Type
REMARK                         _______ _______ _______ _____ _____    ______ ____
ROOT
ATOM      6  C   UNL     1      50.478  12.924  14.578  0.00  0.00    -0.166 A 
ATOM      7  C   UNL     1      51.575  13.766  14.731  0.00  0.00    +0.200 A 
ATOM     10  C   UNL     1      51.602  14.715  15.740  0.00  0.00    -0.032 A 
ATOM     11  C   UNL     1      50.532  14.837  16.615  0.00  0.00    +0.197 A 
ATOM     12  C   UNL     1      49.424  13.986  16.462  0.00  0.00    -0.268 A 
ATOM     13  C   UNL     1      48.290  14.121  17.394  0.00  0.00    +0.444 A 
ATOM     14  C   UNL     1      48.406  15.155  18.436  0.00  0.00    -0.195 A 
ATOM     15  C   UNL     1      47.379  15.359  19.372  0.00  0.00    -0.029 A 
ATOM     16  C   UNL     1      47.516  16.347  20.349  0.00  0.00    +0.080 A 
ATOM     17  O   UNL     1      46.511  16.529  21.244  0.00  0.00    -0.287 OA
ATOM     18  C   UNL     1      45.178  16.310  20.781  0.00  0.00    +0.140 C 
ATOM     19  C   UNL     1      44.773  17.451  19.845  0.00  0.00    +0.034 C 
ATOM     20  C   UNL     1      44.225  16.276  21.977  0.00  0.00    +0.087 C 
ATOM     21  C   UNL     1      45.088  15.004  20.035  0.00  0.00    -0.032 C 
ATOM     22  C   UNL     1      48.671  17.123  20.388  0.00  0.00    +0.157 A 
ATOM     25  C   UNL     1      49.685  16.922  19.466  0.00  0.00    -0.097 A 
ATOM     31  C   UNL     1      46.143  14.552  19.355  0.00  0.00    +0.055 C 
ATOM     32  C   UNL     1      49.566  15.944  18.485  0.00  0.00    +0.156 A 
ATOM     33  O   UNL     1      47.305  13.410  17.307  0.00  0.00    -0.432 OA
ATOM     34  O   UNL     1      50.565  15.763  17.595  0.00  0.00    -0.220 OA
ATOM     35  C   UNL     1      49.401  13.028  15.439  0.00  0.00    +0.223 A 
ENDROOT
BRANCH   7   8
ATOM      8  O   UNL     1      52.628  13.658  13.882  0.00  0.00    -0.484 OA
ATOM      9  H   UNL     1      52.516  12.981  13.201  0.00  0.00    +0.401 HD
ENDBRANCH   7   8
BRANCH  22  23
ATOM     23  O   UNL     1      48.805  18.084  21.339  0.00  0.00    -0.470 OA
ATOM     24  H   UNL     1      49.550  17.942  21.939  0.00  0.00    +0.395 HD
ENDBRANCH  22  23
BRANCH  35  36
ATOM     36  O   UNL     1      48.327  12.213  15.290  0.00  0.00    -0.469 OA
ATOM     37  H   UNL     1      48.516  11.398  14.805  0.00  0.00    +0.401 HD
ENDBRANCH  35  36
BRANCH   6   5
ATOM      5  C   UNL     1      50.465  11.898  13.476  0.00  0.00    +0.134 C 
BRANCH   5   4
ATOM      1  C   UNL     1      51.610  10.532  11.291  0.00  0.00    +0.076 C 
ATOM      2  C   UNL     1      51.088  11.935  11.116  0.00  0.00    -0.129 C 
ATOM      3  C   UNL     1      51.116  12.583   9.756  0.00  0.00    +0.073 C 
ATOM      4  C   UNL     1      50.613  12.590  12.144  0.00  0.00    -0.051 C 
ENDBRANCH   5   4
ENDBRANCH   6   5
BRANCH  25  26
ATOM     26  C   UNL     1      50.927  17.771  19.526  0.00  0.00    +0.140 C 
BRANCH  26  27
ATOM     27  C   UNL     1      50.595  19.178  19.098  0.00  0.00    -0.057 C 
ATOM     28  C   UNL     1      51.194  19.704  18.059  0.00  0.00    -0.123 C 
ATOM     29  C   UNL     1      50.862  21.111  17.630  0.00  0.00    +0.074 C 
ATOM     30  C   UNL     1      52.213  18.903  17.290  0.00  0.00    +0.077 C 
ENDBRANCH  26  27
ENDBRANCH  25  26
TORSDOF 7
ENDMDL
MODEL 7
REMARK VINA RESULT:      -5.3      2.038      7.485
REMARK  Name = ZINC14768735
REMARK  13 active torsions:
REMARK  status: ('A' for Active; 'I' for Inactive)
REMARK    1  A    between atoms: C1_1  and  C2_2
REMARK    2  A    between atoms: C2_2  and  C28_34
REMARK    3  A    between atoms: C3_3  and  C4_4
REMARK    4  A    between atoms: C4_4  and  C5_5
REMARK    5  A    between atoms: C6_6  and  O6_33
REMARK    6  A    between atoms: C10_10  and  O1_11
REMARK    7  A    between atoms: C15_17  and  O4_26
REMARK    8  A    between atoms: C16_18  and  C18_21
REMARK    9  A    between atoms: C18_21  and  C19_22
REMARK   10  A    between atoms: C20_23  and  C21_24
REMARK   11  A    between atoms: C20_23  and  C22_25
REMARK   12  A    between atoms: C23_28  and  C26_31
REMARK   13  A    between atoms: C23_28  and  C27_32
REMARK                            x       y       z     vdW  Elec       q    Type
REMARK                         _______ _______ _______ _____ _____    ______ ____
ROOT
ATOM      6  C   UNL     1      46.886  13.525  18.622  0.00  0.00    -0.166 A 
ATOM      7  C   UNL     1      45.649  13.922  19.120  0.00  0.00    +0.200 A 
ATOM     10  C   UNL     1      45.467  15.202  19.620  0.00  0.00    -0.032 A 
ATOM     11  C   UNL     1      46.519  16.106  19.627  0.00  0.00    +0.197 A 
ATOM     12  C   UNL     1      47.768  15.706  19.122  0.00  0.00    -0.268 A 
ATOM     13  C   UNL     1      48.881  16.671  19.134  0.00  0.00    +0.444 A 
ATOM     14  C   UNL     1      48.596  18.008  19.681  0.00  0.00    -0.195 A 
ATOM     15  C   UNL     1      49.592  18.998  19.734  0.00  0.00    -0.029 A 
ATOM     16  C   UNL     1      49.293  20.256  20.258  0.00  0.00    +0.080 A 
ATOM     17  O   UNL     1      50.270  21.199  20.301  0.00  0.00    -0.287 OA
ATOM     18  C   UNL     1      51.604  20.744  20.528  0.00  0.00    +0.140 C 
ATOM     19  C   UNL     1      51.746  20.295  21.984  0.00  0.00    +0.034 C 
ATOM     20  C   UNL     1      52.583  21.888  20.255  0.00  0.00    +0.087 C 
ATOM     21  C   UNL     1      51.927  19.586  19.621  0.00  0.00    -0.032 C 
ATOM     22  C   UNL     1      48.009  20.522  20.727  0.00  0.00    +0.157 A 
ATOM     25  C   UNL     1      47.026  19.546  20.675  0.00  0.00    -0.097 A 
ATOM     31  C   UNL     1      50.962  18.746  19.245  0.00  0.00    +0.055 C 
ATOM     32  C   UNL     1      47.305  18.287  20.157  0.00  0.00    +0.156 A 
ATOM     33  O   UNL     1      49.984  16.378  18.709  0.00  0.00    -0.432 OA
ATOM     34  O   UNL     1      46.334  17.350  20.114  0.00  0.00    -0.220 OA
ATOM     35  C   UNL     1      47.947  14.411  18.619  0.00  0.00    +0.223 A 
ENDROOT
BRANCH   7   8
ATOM      8  O   UNL     1      44.612  13.047  19.120  0.00  0.00    -0.484 OA
ATOM      9  H   UNL     1      43.850  13.341  18.602  0.00  0.00    +0.401 HD
ENDBRANCH   7   8
BRANCH  22  23
ATOM     23  O   UNL     1      47.718  21.746  21.237  0.00  0.00    -0.470 OA
ATOM     24  H   UNL     1      48.371  22.427  21.023  0.00  0.00    +0.395 HD
ENDBRANCH  22  23
BRANCH  35  36
ATOM     36  O   UNL     1      49.157  14.025  18.139  0.00  0.00    -0.469 OA
ATOM     37  H   UNL     1      49.895  14.559  18.462  0.00  0.00    +0.401 HD
ENDBRANCH  35  36
BRANCH   6   5
ATOM      5  C   UNL     1      47.066  12.130  18.083  0.00  0.00    +0.134 C 
BRANCH   5   4
ATOM      1  C   UNL     1      45.589  10.982  15.972  0.00  0.00    +0.076 C 
ATOM      2  C   UNL     1      46.871  11.722  15.684  0.00  0.00    -0.129 C 
ATOM      3  C   UNL     1      47.328  11.907  14.260  0.00  0.00    +0.073 C 
ATOM      4  C   UNL     1      47.586  12.201  16.669  0.00  0.00    -0.051 C 
ENDBRANCH   5   4
ENDBRANCH   6   5
BRANCH  25  26
ATOM     26  C   UNL     1      45.643  19.854  21.185  0.00  0.00    +0.140 C 
BRANCH  26  27
ATOM     27  C   UNL     1      44.777  20.318  20.042  0.00  0.00    -0.057 C 
ATOM     28  C   UNL     1      43.568  19.835  19.898  0.00  0.00    -0.123 C 
ATOM     29  C   UNL     1      42.702  20.299  18.755  0.00  0.00    +0.074 C 
ATOM     30  C   UNL     1      43.043  18.815  20.876  0.00  0.00    +0.077 C 
ENDBRANCH  26  27
ENDBRANCH  25  26
TORSDOF 7
ENDMDL
MODEL 8
REMARK VINA RESULT:      -5.2      2.850      8.866
REMARK  Name = ZINC14768735
REMARK  13 active torsions:
REMARK  status: ('A' for Active; 'I' for Inactive)
REMARK    1  A    between atoms: C1_1  and  C2_2
REMARK    2  A    between atoms: C2_2  and  C28_34
REMARK    3  A    between atoms: C3_3  and  C4_4
REMARK    4  A    between atoms: C4_4  and  C5_5
REMARK    5  A    between atoms: C6_6  and  O6_33
REMARK    6  A    between atoms: C10_10  and  O1_11
REMARK    7  A    between atoms: C15_17  and  O4_26
REMARK    8  A    between atoms: C16_18  and  C18_21
REMARK    9  A    between atoms: C18_21  and  C19_22
REMARK   10  A    between atoms: C20_23  and  C21_24
REMARK   11  A    between atoms: C20_23  and  C22_25
REMARK   12  A    between atoms: C23_28  and  C26_31
REMARK   13  A    between atoms: C23_28  and  C27_32
REMARK                            x       y       z     vdW  Elec       q    Type
REMARK                         _______ _______ _______ _____ _____    ______ ____
ROOT
ATOM      6  C   UNL     1      49.710  12.517  15.031  0.00  0.00    -0.166 A 
ATOM      7  C   UNL     1      48.405  12.128  15.314  0.00  0.00    +0.200 A 
ATOM     10  C   UNL     1      47.621  12.865  16.188  0.00  0.00    -0.032 A 
ATOM     11  C   UNL     1      48.131  14.005  16.792  0.00  0.00    +0.197 A 
ATOM     12  C   UNL     1      49.449  14.400  16.506  0.00  0.00    -0.268 A 
ATOM     13  C   UNL     1      49.984  15.612  17.151  0.00  0.00    +0.444 A 
ATOM     14  C   UNL     1      49.080  16.333  18.063  0.00  0.00    -0.195 A 
ATOM     15  C   UNL     1      49.497  17.500  18.726  0.00  0.00    -0.029 A 
ATOM     16  C   UNL     1      48.619  18.162  19.585  0.00  0.00    +0.080 A 
ATOM     17  O   UNL     1      49.042  19.288  20.216  0.00  0.00    -0.287 OA
ATOM     18  C   UNL     1      50.420  19.348  20.586  0.00  0.00    +0.140 C 
ATOM     19  C   UNL     1      50.672  18.398  21.759  0.00  0.00    +0.034 C 
ATOM     20  C   UNL     1      50.769  20.777  21.009  0.00  0.00    +0.087 C 
ATOM     21  C   UNL     1      51.294  18.945  19.427  0.00  0.00    -0.032 C 
ATOM     22  C   UNL     1      47.335  17.662  19.780  0.00  0.00    +0.157 A 
ATOM     25  C   UNL     1      46.922  16.511  19.127  0.00  0.00    -0.097 A 
ATOM     31  C   UNL     1      50.853  18.054  18.539  0.00  0.00    +0.055 C 
ATOM     32  C   UNL     1      47.783  15.837  18.268  0.00  0.00    +0.156 A 
ATOM     33  O   UNL     1      51.118  15.999  16.940  0.00  0.00    -0.432 OA
ATOM     34  O   UNL     1      47.362  14.718  17.641  0.00  0.00    -0.220 OA
ATOM     35  C   UNL     1      50.237  13.651  15.622  0.00  0.00    +0.223 A 
ENDROOT
BRANCH   7   8
ATOM      8  O   UNL     1      47.894  11.014  14.730  0.00  0.00    -0.484 OA
ATOM      9  H   UNL     1      47.126  11.182  14.168  0.00  0.00    +0.401 HD
ENDBRANCH   7   8
BRANCH  22  23
ATOM     23  O   UNL     1      46.480  18.306  20.615  0.00  0.00    -0.470 OA
ATOM     24  H   UNL     1      46.788  19.180  20.895  0.00  0.00    +0.395 HD
ENDBRANCH  22  23
BRANCH  35  36
ATOM     36  O   UNL     1      51.512  14.031  15.354  0.00  0.00    -0.469 OA
ATOM     37  H   UNL     1      51.948  14.487  16.086  0.00  0.00    +0.401 HD
ENDBRANCH  35  36
BRANCH   6   5
ATOM      5  C   UNL     1      50.548  11.704  14.079  0.00  0.00    +0.134 C 
BRANCH   5   4
ATOM      1  C   UNL     1      51.464  10.370  11.769  0.00  0.00    +0.076 C 
ATOM      2  C   UNL     1      51.080  11.826  11.700  0.00  0.00    -0.129 C 
ATOM      3  C   UNL     1      51.121  12.553  10.380  0.00  0.00    +0.073 C 
ATOM      4  C   UNL     1      50.713  12.460  12.785  0.00  0.00    -0.051 C 
ENDBRANCH   5   4
ENDBRANCH   6   5
BRANCH  25  26
ATOM     26  C   UNL     1      45.528  15.987  19.350  0.00  0.00    +0.140 C 
BRANCH  26  27
ATOM     27  C   UNL     1      45.583  14.786  20.260  0.00  0.00    -0.057 C 
ATOM     28  C   UNL     1      45.034  14.839  21.448  0.00  0.00    -0.123 C 
ATOM     29  C   UNL     1      45.088  13.638  22.357  0.00  0.00    +0.074 C 
ATOM     30  C   UNL     1      44.347  16.100  21.905  0.00  0.00    +0.077 C 
ENDBRANCH  26  27
ENDBRANCH  25  26
TORSDOF 7
ENDMDL
MODEL 9
REMARK VINA RESULT:      -5.0      4.041      8.575
REMARK  Name = ZINC14768735
REMARK  13 active torsions:
REMARK  status: ('A' for Active; 'I' for Inactive)
REMARK    1  A    between atoms: C1_1  and  C2_2
REMARK    2  A    between atoms: C2_2  and  C28_34
REMARK    3  A    between atoms: C3_3  and  C4_4
REMARK    4  A    between atoms: C4_4  and  C5_5
REMARK    5  A    between atoms: C6_6  and  O6_33
REMARK    6  A    between atoms: C10_10  and  O1_11
REMARK    7  A    between atoms: C15_17  and  O4_26
REMARK    8  A    between atoms: C16_18  and  C18_21
REMARK    9  A    between atoms: C18_21  and  C19_22
REMARK   10  A    between atoms: C20_23  and  C21_24
REMARK   11  A    between atoms: C20_23  and  C22_25
REMARK   12  A    between atoms: C23_28  and  C26_31
REMARK   13  A    between atoms: C23_28  and  C27_32
REMARK                            x       y       z     vdW  Elec       q    Type
REMARK                         _______ _______ _______ _____ _____    ______ ____
ROOT
ATOM      6  C   UNL     1      50.528  13.050  12.979  0.00  0.00    -0.166 A 
ATOM      7  C   UNL     1      51.703  13.645  13.427  0.00  0.00    +0.200 A 
ATOM     10  C   UNL     1      51.837  14.036  14.750  0.00  0.00    -0.032 A 
ATOM     11  C   UNL     1      50.797  13.836  15.646  0.00  0.00    +0.197 A 
ATOM     12  C   UNL     1      49.611  13.233  15.195  0.00  0.00    -0.268 A 
ATOM     13  C   UNL     1      48.510  13.024  16.152  0.00  0.00    +0.444 A 
ATOM     14  C   UNL     1      48.742  13.469  17.537  0.00  0.00    -0.195 A 
ATOM     15  C   UNL     1      47.753  13.312  18.524  0.00  0.00    -0.029 A 
ATOM     16  C   UNL     1      48.000  13.743  19.828  0.00  0.00    +0.080 A 
ATOM     17  O   UNL     1      47.032  13.583  20.767  0.00  0.00    -0.287 OA
ATOM     18  C   UNL     1      45.677  13.700  20.331  0.00  0.00    +0.140 C 
ATOM     19  C   UNL     1      45.368  15.167  20.025  0.00  0.00    +0.034 C 
ATOM     20  C   UNL     1      44.744  13.208  21.440  0.00  0.00    +0.087 C 
ATOM     21  C   UNL     1      45.451  12.878  19.089  0.00  0.00    -0.032 C 
ATOM     22  C   UNL     1      49.225  14.327  20.143  0.00  0.00    +0.157 A 
ATOM     25  C   UNL     1      50.200  14.481  19.170  0.00  0.00    -0.097 A 
ATOM     31  C   UNL     1      46.446  12.698  18.220  0.00  0.00    +0.055 C 
ATOM     32  C   UNL     1      49.973  14.059  17.865  0.00  0.00    +0.156 A 
ATOM     33  O   UNL     1      47.461  12.508  15.815  0.00  0.00    -0.432 OA
ATOM     34  O   UNL     1      50.935  14.218  16.933  0.00  0.00    -0.220 OA
ATOM     35  C   UNL     1      49.480  12.840  13.856  0.00  0.00    +0.223 A 
ENDROOT
BRANCH   7   8
ATOM      8  O   UNL     1      52.727  13.847  12.560  0.00  0.00    -0.484 OA
ATOM      9  H   UNL     1      53.573  13.487  12.860  0.00  0.00    +0.401 HD
ENDBRANCH   7   8
BRANCH  22  23
ATOM     23  O   UNL     1      49.465  14.746  21.412  0.00  0.00    -0.470 OA
ATOM     24  H   UNL     1      48.792  14.472  22.050  0.00  0.00    +0.395 HD
ENDBRANCH  22  23
BRANCH  35  36
ATOM     36  O   UNL     1      48.331  12.266  13.421  0.00  0.00    -0.469 OA
ATOM     37  H   UNL     1      48.100  11.449  13.885  0.00  0.00    +0.401 HD
ENDBRANCH  35  36
BRANCH   6   5
ATOM      5  C   UNL     1      50.400  12.631  11.537  0.00  0.00    +0.134 C 
BRANCH   5   4
ATOM      1  C   UNL     1      50.528  11.486   8.963  0.00  0.00    +0.076 C 
ATOM      2  C   UNL     1      51.583  11.161   9.989  0.00  0.00    -0.129 C 
ATOM      3  C   UNL     1      52.746  10.277   9.617  0.00  0.00    +0.073 C 
ATOM      4  C   UNL     1      51.489  11.645  11.202  0.00  0.00    -0.051 C 
ENDBRANCH   5   4
ENDBRANCH   6   5
BRANCH  25  26
ATOM     26  C   UNL     1      51.518  15.113  19.531  0.00  0.00    +0.140 C 
BRANCH  26  27
ATOM     27  C   UNL     1      51.526  16.552  19.080  0.00  0.00    -0.057 C 
ATOM     28  C   UNL     1      52.659  17.202  18.983  0.00  0.00    -0.123 C 
ATOM     29  C   UNL     1      52.667  18.640  18.532  0.00  0.00    +0.074 C 
ATOM     30  C   UNL     1      53.955  16.511  19.322  0.00  0.00    +0.077 C 
ENDBRANCH  26  27
ENDBRANCH  25  26
TORSDOF 7
ENDMDL
