MODEL 1
REMARK VINA RESULT:      -4.8      0.000      0.000
REMARK  Name = ZINC00035525
REMARK  6 active torsions:
REMARK  status: ('A' for Active; 'I' for Inactive)
REMARK    1  A    between atoms: C1_1  and  O1_2
REMARK    2  A    between atoms: O1_2  and  C2_3
REMARK    3  A    between atoms: C7_8  and  O2_9
REMARK    4  A    between atoms: O2_9  and  C8_10
REMARK    5  A    between atoms: C11_14  and  O3_15
REMARK    6  A    between atoms: O3_15  and  C12_16
REMARK                            x       y       z     vdW  Elec       q    Type
REMARK                         _______ _______ _______ _____ _____    ______ ____
ROOT
ATOM      3  C   UNL     1      47.792  18.924  18.697  0.00  0.00    +0.222 A 
ATOM      4  C   UNL     1      48.103  20.115  19.359  0.00  0.00    -0.014 A 
ATOM      5  C   UNL     1      47.133  21.024  19.651  0.00  0.00    +0.173 A 
ATOM      6  C   UNL     1      45.801  20.769  19.286  0.00  0.00    -0.158 A 
ATOM      7  C   UNL     1      45.469  19.566  18.615  0.00  0.00    +0.227 A 
ATOM      8  N   UNL     1      44.206  19.311  18.261  0.00  0.00    -0.469 N 
ATOM      9  H   UNL     1      44.004  18.481  17.802  0.00  0.00    +0.449 HD
ATOM     10  C   UNL     1      43.225  20.156  18.520  0.00  0.00    +0.352 A 
ATOM     11  C   UNL     1      43.481  21.372  19.187  0.00  0.00    -0.208 A 
ATOM     12  C   UNL     1      42.181  22.044  19.300  0.00  0.00    +0.041 A 
ATOM     13  C   UNL     1      41.289  21.228  18.726  0.00  0.00    +0.281 A 
ATOM     14  O   UNL     1      41.899  20.118  18.267  0.00  0.00    -0.167 OA
ATOM     15  C   UNL     1      44.778  21.694  19.579  0.00  0.00    +0.347 A 
ATOM     18  C   UNL     1      46.495  18.645  18.319  0.00  0.00    +0.008 A 
ENDROOT
BRANCH   3   2
ATOM      1  C   UNL     1      50.032  18.569  17.983  0.00  0.00    +0.279 C 
ATOM      2  O   UNL     1      48.779  18.034  18.416  0.00  0.00    -0.279 OA
ENDBRANCH   3   2
BRANCH  15  16
ATOM     16  O   UNL     1      45.047  22.858  20.221  0.00  0.00    -0.318 OA
ATOM     17  C   UNL     1      44.809  22.893  21.630  0.00  0.00    +0.297 C 
ENDBRANCH  15  16
BRANCH  18  19
ATOM     19  O   UNL     1      46.206  17.485  17.671  0.00  0.00    -0.308 OA
ATOM     20  C   UNL     1      45.991  16.326  18.479  0.00  0.00    +0.243 C 
ENDBRANCH  18  19
TORSDOF 3
ENDMDL
MODEL 2
REMARK VINA RESULT:      -4.7      2.236      5.681
REMARK  Name = ZINC00035525
REMARK  6 active torsions:
REMARK  status: ('A' for Active; 'I' for Inactive)
REMARK    1  A    between atoms: C1_1  and  O1_2
REMARK    2  A    between atoms: O1_2  and  C2_3
REMARK    3  A    between atoms: C7_8  and  O2_9
REMARK    4  A    between atoms: O2_9  and  C8_10
REMARK    5  A    between atoms: C11_14  and  O3_15
REMARK    6  A    between atoms: O3_15  and  C12_16
REMARK                            x       y       z     vdW  Elec       q    Type
REMARK                         _______ _______ _______ _____ _____    ______ ____
ROOT
ATOM      3  C   UNL     1      44.515  20.410  19.907  0.00  0.00    +0.222 A 
ATOM      4  C   UNL     1      45.266  20.544  18.736  0.00  0.00    -0.014 A 
ATOM      5  C   UNL     1      45.812  19.456  18.129  0.00  0.00    +0.173 A 
ATOM      6  C   UNL     1      45.624  18.178  18.681  0.00  0.00    -0.158 A 
ATOM      7  C   UNL     1      44.864  18.025  19.868  0.00  0.00    +0.227 A 
ATOM      8  N   UNL     1      44.677  16.815  20.404  0.00  0.00    -0.469 N 
ATOM      9  H   UNL     1      44.154  16.735  21.217  0.00  0.00    +0.449 HD
ATOM     10  C   UNL     1      45.183  15.724  19.858  0.00  0.00    +0.352 A 
ATOM     11  C   UNL     1      45.948  15.801  18.675  0.00  0.00    -0.208 A 
ATOM     12  C   UNL     1      46.339  14.420  18.365  0.00  0.00    +0.041 A 
ATOM     13  C   UNL     1      45.809  13.658  19.330  0.00  0.00    +0.281 A 
ATOM     14  O   UNL     1      45.130  14.421  20.207  0.00  0.00    -0.167 OA
ATOM     15  C   UNL     1      46.178  17.034  18.070  0.00  0.00    +0.347 A 
ATOM     18  C   UNL     1      44.315  19.170  20.478  0.00  0.00    +0.008 A 
ENDROOT
BRANCH   3   2
ATOM      1  C   UNL     1      44.308  22.778  19.914  0.00  0.00    +0.279 C 
ATOM      2  O   UNL     1      43.981  21.514  20.493  0.00  0.00    -0.279 OA
ENDBRANCH   3   2
BRANCH  15  16
ATOM     16  O   UNL     1      46.911  17.132  16.934  0.00  0.00    -0.318 OA
ATOM     17  C   UNL     1      48.333  17.136  17.076  0.00  0.00    +0.297 C 
ENDBRANCH  15  16
BRANCH  18  19
ATOM     19  O   UNL     1      43.586  19.054  21.621  0.00  0.00    -0.308 OA
ATOM     20  C   UNL     1      42.179  18.852  21.475  0.00  0.00    +0.243 C 
ENDBRANCH  18  19
TORSDOF 3
ENDMDL
MODEL 3
REMARK VINA RESULT:      -4.7      2.395      2.554
REMARK  Name = ZINC00035525
REMARK  6 active torsions:
REMARK  status: ('A' for Active; 'I' for Inactive)
REMARK    1  A    between atoms: C1_1  and  O1_2
REMARK    2  A    between atoms: O1_2  and  C2_3
REMARK    3  A    between atoms: C7_8  and  O2_9
REMARK    4  A    between atoms: O2_9  and  C8_10
REMARK    5  A    between atoms: C11_14  and  O3_15
REMARK    6  A    between atoms: O3_15  and  C12_16
REMARK                            x       y       z     vdW  Elec       q    Type
REMARK                         _______ _______ _______ _____ _____    ______ ____
ROOT
ATOM      3  C   UNL     1      46.102  17.953  21.087  0.00  0.00    +0.222 A 
ATOM      4  C   UNL     1      46.816  19.117  20.792  0.00  0.00    -0.014 A 
ATOM      5  C   UNL     1      46.187  20.212  20.284  0.00  0.00    +0.173 A 
ATOM      6  C   UNL     1      44.802  20.178  20.051  0.00  0.00    -0.158 A 
ATOM      7  C   UNL     1      44.063  19.005  20.346  0.00  0.00    +0.227 A 
ATOM      8  N   UNL     1      42.745  18.959  20.129  0.00  0.00    -0.469 N 
ATOM      9  H   UNL     1      42.261  18.145  20.338  0.00  0.00    +0.449 HD
ATOM     10  C   UNL     1      42.082  19.990  19.638  0.00  0.00    +0.352 A 
ATOM     11  C   UNL     1      42.753  21.191  19.323  0.00  0.00    -0.208 A 
ATOM     12  C   UNL     1      41.719  22.100  18.811  0.00  0.00    +0.041 A 
ATOM     13  C   UNL     1      40.569  21.417  18.855  0.00  0.00    +0.281 A 
ATOM     14  O   UNL     1      40.779  20.178  19.340  0.00  0.00    -0.167 OA
ATOM     15  C   UNL     1      44.126  21.299  19.526  0.00  0.00    +0.347 A 
ATOM     18  C   UNL     1      44.742  17.884  20.865  0.00  0.00    +0.008 A 
ENDROOT
BRANCH   3   2
ATOM      1  C   UNL     1      47.616  16.161  20.703  0.00  0.00    +0.279 C 
ATOM      2  O   UNL     1      46.755  16.874  21.593  0.00  0.00    -0.279 OA
ENDBRANCH   3   2
BRANCH  15  16
ATOM     16  O   UNL     1      44.791  22.443  19.230  0.00  0.00    -0.318 OA
ATOM     17  C   UNL     1      44.848  23.444  20.249  0.00  0.00    +0.297 C 
ENDBRANCH  15  16
BRANCH  18  19
ATOM     19  O   UNL     1      44.059  16.744  21.153  0.00  0.00    -0.308 OA
ATOM     20  C   UNL     1      43.508  16.631  22.467  0.00  0.00    +0.243 C 
ENDBRANCH  18  19
TORSDOF 3
ENDMDL
MODEL 4
REMARK VINA RESULT:      -4.7      2.248      3.751
REMARK  Name = ZINC00035525
REMARK  6 active torsions:
REMARK  status: ('A' for Active; 'I' for Inactive)
REMARK    1  A    between atoms: C1_1  and  O1_2
REMARK    2  A    between atoms: O1_2  and  C2_3
REMARK    3  A    between atoms: C7_8  and  O2_9
REMARK    4  A    between atoms: O2_9  and  C8_10
REMARK    5  A    between atoms: C11_14  and  O3_15
REMARK    6  A    between atoms: O3_15  and  C12_16
REMARK                            x       y       z     vdW  Elec       q    Type
REMARK                         _______ _______ _______ _____ _____    ______ ____
ROOT
ATOM      3  C   UNL     1      45.853  15.538  18.728  0.00  0.00    +0.222 A 
ATOM      4  C   UNL     1      45.207  15.410  19.960  0.00  0.00    -0.014 A 
ATOM      5  C   UNL     1      44.777  16.508  20.640  0.00  0.00    +0.173 A 
ATOM      6  C   UNL     1      44.982  17.789  20.101  0.00  0.00    -0.158 A 
ATOM      7  C   UNL     1      45.635  17.935  18.852  0.00  0.00    +0.227 A 
ATOM      8  N   UNL     1      45.837  19.148  18.328  0.00  0.00    -0.469 N 
ATOM      9  H   UNL     1      46.286  19.223  17.472  0.00  0.00    +0.449 HD
ATOM     10  C   UNL     1      45.441  20.248  18.942  0.00  0.00    +0.352 A 
ATOM     11  C   UNL     1      44.783  20.178  20.189  0.00  0.00    -0.208 A 
ATOM     12  C   UNL     1      44.495  21.568  20.564  0.00  0.00    +0.041 A 
ATOM     13  C   UNL     1      44.974  22.328  19.572  0.00  0.00    +0.281 A 
ATOM     14  O   UNL     1      45.530  21.556  18.618  0.00  0.00    -0.167 OA
ATOM     15  C   UNL     1      44.545  18.942  20.785  0.00  0.00    +0.347 A 
ATOM     18  C   UNL     1      46.075  16.781  18.173  0.00  0.00    +0.008 A 
ENDROOT
BRANCH   3   2
ATOM      1  C   UNL     1      45.576  13.207  18.345  0.00  0.00    +0.279 C 
ATOM      2  O   UNL     1      46.273  14.424  18.070  0.00  0.00    -0.279 OA
ENDBRANCH   3   2
BRANCH  15  16
ATOM     16  O   UNL     1      43.915  18.851  21.982  0.00  0.00    -0.318 OA
ATOM     17  C   UNL     1      42.486  18.874  21.967  0.00  0.00    +0.297 C 
ENDBRANCH  15  16
BRANCH  18  19
ATOM     19  O   UNL     1      46.709  16.892  16.975  0.00  0.00    -0.308 OA
ATOM     20  C   UNL     1      48.133  17.012  17.002  0.00  0.00    +0.243 C 
ENDBRANCH  18  19
TORSDOF 3
ENDMDL
MODEL 5
REMARK VINA RESULT:      -4.6     20.770     21.914
REMARK  Name = ZINC00035525
REMARK  6 active torsions:
REMARK  status: ('A' for Active; 'I' for Inactive)
REMARK    1  A    between atoms: C1_1  and  O1_2
REMARK    2  A    between atoms: O1_2  and  C2_3
REMARK    3  A    between atoms: C7_8  and  O2_9
REMARK    4  A    between atoms: O2_9  and  C8_10
REMARK    5  A    between atoms: C11_14  and  O3_15
REMARK    6  A    between atoms: O3_15  and  C12_16
REMARK                            x       y       z     vdW  Elec       q    Type
REMARK                         _______ _______ _______ _____ _____    ______ ____
ROOT
ATOM      3  C   UNL     1      57.617  32.089   3.956  0.00  0.00    +0.222 A 
ATOM      4  C   UNL     1      56.589  31.502   3.214  0.00  0.00    -0.014 A 
ATOM      5  C   UNL     1      55.286  31.809   3.464  0.00  0.00    +0.173 A 
ATOM      6  C   UNL     1      54.965  32.726   4.478  0.00  0.00    -0.158 A 
ATOM      7  C   UNL     1      55.997  33.331   5.239  0.00  0.00    +0.227 A 
ATOM      8  N   UNL     1      55.705  34.205   6.207  0.00  0.00    -0.469 N 
ATOM      9  H   UNL     1      56.429  34.605   6.714  0.00  0.00    +0.449 HD
ATOM     10  C   UNL     1      54.460  34.540   6.492  0.00  0.00    +0.352 A 
ATOM     11  C   UNL     1      53.383  33.979   5.775  0.00  0.00    -0.208 A 
ATOM     12  C   UNL     1      52.170  34.571   6.354  0.00  0.00    +0.041 A 
ATOM     13  C   UNL     1      52.585  35.397   7.321  0.00  0.00    +0.281 A 
ATOM     14  O   UNL     1      53.929  35.382   7.405  0.00  0.00    -0.167 OA
ATOM     15  C   UNL     1      53.624  33.061   4.755  0.00  0.00    +0.347 A 
ATOM     18  C   UNL     1      57.336  32.990   4.962  0.00  0.00    +0.008 A 
ENDROOT
BRANCH   3   2
ATOM      1  C   UNL     1      59.338  30.451   4.049  0.00  0.00    +0.279 C 
ATOM      2  O   UNL     1      58.910  31.765   3.686  0.00  0.00    -0.279 OA
ENDBRANCH   3   2
BRANCH  15  16
ATOM     16  O   UNL     1      52.603  32.509   4.054  0.00  0.00    -0.318 OA
ATOM     17  C   UNL     1      52.055  33.285   2.986  0.00  0.00    +0.297 C 
ENDBRANCH  15  16
BRANCH  18  19
ATOM     19  O   UNL     1      58.347  33.551   5.680  0.00  0.00    -0.308 OA
ATOM     20  C   UNL     1      58.926  34.749   5.158  0.00  0.00    +0.243 C 
ENDBRANCH  18  19
TORSDOF 3
ENDMDL
MODEL 6
REMARK VINA RESULT:      -4.6      3.188      5.607
REMARK  Name = ZINC00035525
REMARK  6 active torsions:
REMARK  status: ('A' for Active; 'I' for Inactive)
REMARK    1  A    between atoms: C1_1  and  O1_2
REMARK    2  A    between atoms: O1_2  and  C2_3
REMARK    3  A    between atoms: C7_8  and  O2_9
REMARK    4  A    between atoms: O2_9  and  C8_10
REMARK    5  A    between atoms: C11_14  and  O3_15
REMARK    6  A    between atoms: O3_15  and  C12_16
REMARK                            x       y       z     vdW  Elec       q    Type
REMARK                         _______ _______ _______ _____ _____    ______ ____
ROOT
ATOM      3  C   UNL     1      50.664  20.504  18.570  0.00  0.00    +0.222 A 
ATOM      4  C   UNL     1      49.483  20.889  19.209  0.00  0.00    -0.014 A 
ATOM      5  C   UNL     1      48.396  20.070  19.220  0.00  0.00    +0.173 A 
ATOM      6  C   UNL     1      48.456  18.819  18.584  0.00  0.00    -0.158 A 
ATOM      7  C   UNL     1      49.647  18.413  17.932  0.00  0.00    +0.227 A 
ATOM      8  N   UNL     1      49.718  17.226  17.322  0.00  0.00    -0.469 N 
ATOM      9  H   UNL     1      50.544  16.970  16.883  0.00  0.00    +0.449 HD
ATOM     10  C   UNL     1      48.696  16.390  17.302  0.00  0.00    +0.352 A 
ATOM     11  C   UNL     1      47.479  16.728  17.931  0.00  0.00    -0.208 A 
ATOM     12  C   UNL     1      46.587  15.582  17.709  0.00  0.00    +0.041 A 
ATOM     13  C   UNL     1      47.294  14.692  17.003  0.00  0.00    +0.281 A 
ATOM     14  O   UNL     1      48.532  15.163  16.763  0.00  0.00    -0.167 OA
ATOM     15  C   UNL     1      47.345  17.951  18.583  0.00  0.00    +0.347 A 
ATOM     18  C   UNL     1      50.755  19.285  17.931  0.00  0.00    +0.008 A 
ENDROOT
BRANCH   3   2
ATOM      1  C   UNL     1      52.473  21.444  19.793  0.00  0.00    +0.279 C 
ATOM      2  O   UNL     1      51.734  21.342  18.574  0.00  0.00    -0.279 OA
ENDBRANCH   3   2
BRANCH  15  16
ATOM     16  O   UNL     1      46.185  18.296  19.194  0.00  0.00    -0.318 OA
ATOM     17  C   UNL     1      45.197  18.949  18.392  0.00  0.00    +0.297 C 
ENDBRANCH  15  16
BRANCH  18  19
ATOM     19  O   UNL     1      51.909  18.923  17.309  0.00  0.00    -0.308 OA
ATOM     20  C   UNL     1      52.075  19.343  15.953  0.00  0.00    +0.243 C 
ENDBRANCH  18  19
TORSDOF 3
ENDMDL
MODEL 7
REMARK VINA RESULT:      -4.4     20.848     22.220
REMARK  Name = ZINC00035525
REMARK  6 active torsions:
REMARK  status: ('A' for Active; 'I' for Inactive)
REMARK    1  A    between atoms: C1_1  and  O1_2
REMARK    2  A    between atoms: O1_2  and  C2_3
REMARK    3  A    between atoms: C7_8  and  O2_9
REMARK    4  A    between atoms: O2_9  and  C8_10
REMARK    5  A    between atoms: C11_14  and  O3_15
REMARK    6  A    between atoms: O3_15  and  C12_16
REMARK                            x       y       z     vdW  Elec       q    Type
REMARK                         _______ _______ _______ _____ _____    ______ ____
ROOT
ATOM      3  C   UNL     1      53.067  33.603   6.166  0.00  0.00    +0.222 A 
ATOM      4  C   UNL     1      54.405  33.548   6.565  0.00  0.00    -0.014 A 
ATOM      5  C   UNL     1      55.370  33.111   5.712  0.00  0.00    +0.173 A 
ATOM      6  C   UNL     1      55.025  32.707   4.411  0.00  0.00    -0.158 A 
ATOM      7  C   UNL     1      53.672  32.757   3.991  0.00  0.00    +0.227 A 
ATOM      8  N   UNL     1      53.329  32.376   2.757  0.00  0.00    -0.469 N 
ATOM      9  H   UNL     1      52.397  32.419   2.492  0.00  0.00    +0.449 HD
ATOM     10  C   UNL     1      54.223  31.944   1.886  0.00  0.00    +0.352 A 
ATOM     11  C   UNL     1      55.588  31.869   2.236  0.00  0.00    -0.208 A 
ATOM     12  C   UNL     1      56.275  31.354   1.044  0.00  0.00    +0.041 A 
ATOM     13  C   UNL     1      55.325  31.169   0.119  0.00  0.00    +0.281 A 
ATOM     14  O   UNL     1      54.120  31.514   0.610  0.00  0.00    -0.167 OA
ATOM     15  C   UNL     1      56.007  32.252   3.508  0.00  0.00    +0.347 A 
ATOM     18  C   UNL     1      52.692  33.209   4.898  0.00  0.00    +0.008 A 
ENDROOT
BRANCH   3   2
ATOM      1  C   UNL     1      52.224  35.401   7.473  0.00  0.00    +0.279 C 
ATOM      2  O   UNL     1      52.122  34.044   7.039  0.00  0.00    -0.279 OA
ENDBRANCH   3   2
BRANCH  15  16
ATOM     16  O   UNL     1      57.313  32.187   3.865  0.00  0.00    -0.318 OA
ATOM     17  C   UNL     1      58.153  33.267   3.451  0.00  0.00    +0.297 C 
ENDBRANCH  15  16
BRANCH  18  19
ATOM     19  O   UNL     1      51.386  33.263   4.523  0.00  0.00    -0.308 OA
ATOM     20  C   UNL     1      50.937  34.471   3.907  0.00  0.00    +0.243 C 
ENDBRANCH  18  19
TORSDOF 3
ENDMDL
MODEL 8
REMARK VINA RESULT:      -4.4     20.888     21.736
REMARK  Name = ZINC00035525
REMARK  6 active torsions:
REMARK  status: ('A' for Active; 'I' for Inactive)
REMARK    1  A    between atoms: C1_1  and  O1_2
REMARK    2  A    between atoms: O1_2  and  C2_3
REMARK    3  A    between atoms: C7_8  and  O2_9
REMARK    4  A    between atoms: O2_9  and  C8_10
REMARK    5  A    between atoms: C11_14  and  O3_15
REMARK    6  A    between atoms: O3_15  and  C12_16
REMARK                            x       y       z     vdW  Elec       q    Type
REMARK                         _______ _______ _______ _____ _____    ______ ____
ROOT
ATOM      3  C   UNL     1      57.223  32.821   4.369  0.00  0.00    +0.222 A 
ATOM      4  C   UNL     1      56.965  33.295   5.657  0.00  0.00    -0.014 A 
ATOM      5  C   UNL     1      55.688  33.504   6.081  0.00  0.00    +0.173 A 
ATOM      6  C   UNL     1      54.612  33.242   5.217  0.00  0.00    -0.158 A 
ATOM      7  C   UNL     1      54.858  32.760   3.907  0.00  0.00    +0.227 A 
ATOM      8  N   UNL     1      53.843  32.506   3.074  0.00  0.00    -0.469 N 
ATOM      9  H   UNL     1      54.036  32.178   2.183  0.00  0.00    +0.449 HD
ATOM     10  C   UNL     1      52.585  32.690   3.431  0.00  0.00    +0.352 A 
ATOM     11  C   UNL     1      52.267  33.166   4.721  0.00  0.00    -0.208 A 
ATOM     12  C   UNL     1      50.801  33.246   4.763  0.00  0.00    +0.041 A 
ATOM     13  C   UNL     1      50.372  32.835   3.563  0.00  0.00    +0.281 A 
ATOM     14  O   UNL     1      51.417  32.507   2.780  0.00  0.00    -0.167 OA
ATOM     15  C   UNL     1      53.281  33.448   5.632  0.00  0.00    +0.347 A 
ATOM     18  C   UNL     1      56.190  32.559   3.493  0.00  0.00    +0.008 A 
ENDROOT
BRANCH   3   2
ATOM      1  C   UNL     1      59.338  33.778   3.857  0.00  0.00    +0.279 C 
ATOM      2  O   UNL     1      58.508  32.621   3.971  0.00  0.00    -0.279 OA
ENDBRANCH   3   2
BRANCH  15  16
ATOM     16  O   UNL     1      52.997  33.907   6.876  0.00  0.00    -0.318 OA
ATOM     17  C   UNL     1      52.694  35.298   7.002  0.00  0.00    +0.297 C 
ENDBRANCH  15  16
BRANCH  18  19
ATOM     19  O   UNL     1      56.455  32.101   2.240  0.00  0.00    -0.308 OA
ATOM     20  C   UNL     1      56.669  33.083   1.223  0.00  0.00    +0.243 C 
ENDBRANCH  18  19
TORSDOF 3
ENDMDL
MODEL 9
REMARK VINA RESULT:      -4.3     20.828     22.373
REMARK  Name = ZINC00035525
REMARK  6 active torsions:
REMARK  status: ('A' for Active; 'I' for Inactive)
REMARK    1  A    between atoms: C1_1  and  O1_2
REMARK    2  A    between atoms: O1_2  and  C2_3
REMARK    3  A    between atoms: C7_8  and  O2_9
REMARK    4  A    between atoms: O2_9  and  C8_10
REMARK    5  A    between atoms: C11_14  and  O3_15
REMARK    6  A    between atoms: O3_15  and  C12_16
REMARK                            x       y       z     vdW  Elec       q    Type
REMARK                         _______ _______ _______ _____ _____    ______ ____
ROOT
ATOM      3  C   UNL     1      53.155  33.868   5.397  0.00  0.00    +0.222 A 
ATOM      4  C   UNL     1      54.083  34.485   6.240  0.00  0.00    -0.014 A 
ATOM      5  C   UNL     1      55.412  34.211   6.133  0.00  0.00    +0.173 A 
ATOM      6  C   UNL     1      55.864  33.298   5.165  0.00  0.00    -0.158 A 
ATOM      7  C   UNL     1      54.934  32.666   4.302  0.00  0.00    +0.227 A 
ATOM      8  N   UNL     1      55.350  31.795   3.376  0.00  0.00    -0.469 N 
ATOM      9  H   UNL     1      54.695  31.375   2.798  0.00  0.00    +0.449 HD
ATOM     10  C   UNL     1      56.626  31.492   3.227  0.00  0.00    +0.352 A 
ATOM     11  C   UNL     1      57.606  32.085   4.050  0.00  0.00    -0.208 A 
ATOM     12  C   UNL     1      58.889  31.523   3.607  0.00  0.00    +0.041 A 
ATOM     13  C   UNL     1      58.600  30.682   2.607  0.00  0.00    +0.281 A 
ATOM     14  O   UNL     1      57.273  30.662   2.381  0.00  0.00    -0.167 OA
ATOM     15  C   UNL     1      57.235  32.999   5.033  0.00  0.00    +0.347 A 
ATOM     18  C   UNL     1      53.563  32.964   4.439  0.00  0.00    +0.008 A 
ENDROOT
BRANCH   3   2
ATOM      1  C   UNL     1      51.094  33.407   6.489  0.00  0.00    +0.279 C 
ATOM      2  O   UNL     1      51.833  34.160   5.525  0.00  0.00    -0.279 OA
ENDBRANCH   3   2
BRANCH  15  16
ATOM     16  O   UNL     1      58.160  33.580   5.835  0.00  0.00    -0.318 OA
ATOM     17  C   UNL     1      58.904  34.670   5.285  0.00  0.00    +0.297 C 
ENDBRANCH  15  16
BRANCH  18  19
ATOM     19  O   UNL     1      52.649  32.367   3.627  0.00  0.00    -0.308 OA
ATOM     20  C   UNL     1      52.291  33.063   2.432  0.00  0.00    +0.243 C 
ENDBRANCH  18  19
TORSDOF 3
ENDMDL
