MODEL 1
REMARK VINA RESULT:      -4.6      0.000      0.000
REMARK  Name = ZINC95485913
REMARK  45 active torsions:
REMARK  status: ('A' for Active; 'I' for Inactive)
REMARK    1  A    between atoms: C1_1  and  C2_2
REMARK    2  A    between atoms: C2_2  and  C3_3
REMARK    3  A    between atoms: C3_3  and  C4_4
REMARK    4  A    between atoms: C4_4  and  C5_5
REMARK    5  A    between atoms: C5_5  and  C6_6
REMARK    6  A    between atoms: C6_6  and  C7_7
REMARK    7  A    between atoms: C7_7  and  C8_8
REMARK    8  A    between atoms: C8_8  and  C9_9
REMARK    9  A    between atoms: C9_9  and  C10_10
REMARK   10  A    between atoms: C10_10  and  C11_11
REMARK   11  A    between atoms: C11_11  and  C12_12
REMARK   12  A    between atoms: C12_12  and  C13_13
REMARK   13  A    between atoms: C13_13  and  C14_14
REMARK   14  A    between atoms: C14_14  and  C15_15
REMARK   15  A    between atoms: C15_15  and  C16_16
REMARK   16  A    between atoms: C16_16  and  C17_17
REMARK   17  A    between atoms: C17_17  and  C18_18
REMARK   18  A    between atoms: C18_18  and  C19_19
REMARK   19  A    between atoms: C20_20  and  C21_21
REMARK   20  A    between atoms: C21_21  and  C22_22
REMARK   21  A    between atoms: C21_21  and  C23_23
REMARK   22  A    between atoms: C21_21  and  O4_52
REMARK   23  A    between atoms: C23_23  and  C24_25
REMARK   24  A    between atoms: C23_23  and  N1_27
REMARK   25  A    between atoms: C24_25  and  O1_26
REMARK   26  A    between atoms: C25_28  and  C26_30
REMARK   27  A    between atoms: C26_30  and  C27_32
REMARK   28  A    between atoms: C26_30  and  O3_51
REMARK   29  A    between atoms: C28_33  and  C29_34
REMARK   30  A    between atoms: C29_34  and  C30_35
REMARK   31  A    between atoms: C30_35  and  C31_36
REMARK   32  A    between atoms: C31_36  and  C32_37
REMARK   33  A    between atoms: C32_37  and  C33_38
REMARK   34  A    between atoms: C33_38  and  C34_39
REMARK   35  A    between atoms: C34_39  and  C35_40
REMARK   36  A    between atoms: C35_40  and  C36_41
REMARK   37  A    between atoms: C36_41  and  C37_42
REMARK   38  A    between atoms: C37_42  and  C38_43
REMARK   39  A    between atoms: C38_43  and  C39_44
REMARK   40  A    between atoms: C39_44  and  C40_45
REMARK   41  A    between atoms: C40_45  and  C41_46
REMARK   42  A    between atoms: C41_46  and  C42_47
REMARK   43  A    between atoms: C42_47  and  C43_48
REMARK   44  A    between atoms: C43_48  and  C44_49
REMARK   45  A    between atoms: C44_49  and  C45_50
REMARK                            x       y       z     vdW  Elec       q    Type
REMARK                         _______ _______ _______ _____ _____    ______ ____
ROOT
ATOM     24  CA  UNL     1      44.484  23.047  19.746  0.00  0.00    +0.232 C 
ENDROOT
BRANCH  24  25
ATOM     25  N   UNL     1      43.216  22.330  19.906  0.00  0.00    -0.708 N 
ATOM     26  H   UNL     1      42.485  22.741  20.391  0.00  0.00    +0.398 HD
ATOM     27  C   UNL     1      43.068  21.098  19.378  0.00  0.00    +0.493 C 
ATOM     50  O   UNL     1      43.983  20.585  18.772  0.00  0.00    -0.532 OA
BRANCH  27  28
ATOM     28  C   UNL     1      41.764  20.361  19.543  0.00  0.00    +0.252 C 
BRANCH  28  29
ATOM     29  O   UNL     1      41.160  20.171  18.263  0.00  0.00    -0.531 OA
ATOM     30  H   UNL     1      41.005  20.992  17.775  0.00  0.00    +0.385 HD
ENDBRANCH  28  29
BRANCH  28  31
ATOM     31  C   UNL     1      42.022  19.019  20.180  0.00  0.00    -0.085 C 
ATOM     32  C   UNL     1      42.468  18.953  21.410  0.00  0.00    -0.001 C 
BRANCH  32  33
ATOM     33  C   UNL     1      42.726  17.612  22.047  0.00  0.00    +0.048 C 
BRANCH  33  34
ATOM     34  C   UNL     1      44.233  17.368  22.131  0.00  0.00    +0.013 C 
BRANCH  34  35
ATOM     35  C   UNL     1      44.564  16.005  21.521  0.00  0.00    +0.001 C 
BRANCH  35  36
ATOM     36  C   UNL     1      45.052  16.194  20.083  0.00  0.00    +0.003 C 
BRANCH  36  37
ATOM     37  C   UNL     1      45.620  17.605  19.919  0.00  0.00    -0.000 C 
BRANCH  37  38
ATOM     38  C   UNL     1      45.624  17.984  18.436  0.00  0.00    +0.001 C 
BRANCH  38  39
ATOM     39  C   UNL     1      47.051  17.894  17.891  0.00  0.00    -0.000 C 
BRANCH  39  40
ATOM     40  C   UNL     1      47.098  16.872  16.753  0.00  0.00    +0.000 C 
BRANCH  40  41
ATOM     41  C   UNL     1      47.627  15.539  17.286  0.00  0.00    +0.000 C 
BRANCH  41  42
ATOM     42  C   UNL     1      46.760  14.396  16.752  0.00  0.00    -0.000 C 
BRANCH  42  43
ATOM     43  C   UNL     1      47.610  13.485  15.863  0.00  0.00    +0.000 C 
BRANCH  43  44
ATOM     44  C   UNL     1      48.250  12.391  16.719  0.00  0.00    -0.000 C 
BRANCH  44  45
ATOM     45  C   UNL     1      49.697  12.176  16.271  0.00  0.00    +0.000 C 
BRANCH  45  46
ATOM     46  C   UNL     1      50.447  13.510  16.310  0.00  0.00    -0.000 C 
BRANCH  46  47
ATOM     47  C   UNL     1      51.553  13.443  17.364  0.00  0.00    -0.000 C 
BRANCH  47  48
ATOM     48  C   UNL     1      50.953  13.693  18.749  0.00  0.00    -0.006 C 
ATOM     49  C   UNL     1      52.040  13.532  19.813  0.00  0.00    +0.006 C 
ENDBRANCH  47  48
ENDBRANCH  46  47
ENDBRANCH  45  46
ENDBRANCH  44  45
ENDBRANCH  43  44
ENDBRANCH  42  43
ENDBRANCH  41  42
ENDBRANCH  40  41
ENDBRANCH  39  40
ENDBRANCH  38  39
ENDBRANCH  37  38
ENDBRANCH  36  37
ENDBRANCH  35  36
ENDBRANCH  34  35
ENDBRANCH  33  34
ENDBRANCH  32  33
ENDBRANCH  28  31
ENDBRANCH  27  28
ENDBRANCH  24  25
BRANCH  24  21
ATOM     21  C   UNL     1      45.146  23.225  21.114  0.00  0.00    +0.165 C 
ATOM     54  C   UNL     1      45.980  24.507  21.114  0.00  0.00    +0.076 C 
BRANCH  21  20
ATOM     19  C   UNL     1      46.817  21.572  20.457  0.00  0.00    -0.023 C 
ATOM     20  C   UNL     1      46.038  22.044  21.398  0.00  0.00    -0.080 C 
BRANCH  19  18
ATOM     18  C   UNL     1      47.710  20.391  20.741  0.00  0.00    +0.045 C 
BRANCH  18  17
ATOM     17  C   UNL     1      49.162  20.764  20.441  0.00  0.00    +0.010 C 
BRANCH  17  16
ATOM     16  C   UNL     1      49.433  20.603  18.945  0.00  0.00    +0.002 C 
BRANCH  16  15
ATOM     15  C   UNL     1      50.842  21.106  18.623  0.00  0.00    +0.001 C 
BRANCH  15  14
ATOM     14  C   UNL     1      50.948  21.409  17.128  0.00  0.00    +0.001 C 
BRANCH  14  13
ATOM     13  C   UNL     1      52.185  20.717  16.553  0.00  0.00    +0.000 C 
BRANCH  13  12
ATOM     12  C   UNL     1      51.754  19.679  15.516  0.00  0.00    +0.000 C 
BRANCH  12  11
ATOM     11  C   UNL     1      51.921  18.275  16.099  0.00  0.00    +0.000 C 
BRANCH  11  10
ATOM     10  C   UNL     1      50.588  17.804  16.685  0.00  0.00    -0.000 C 
BRANCH  10   9
ATOM      9  C   UNL     1      50.827  17.187  18.064  0.00  0.00    +0.000 C 
BRANCH   9   8
ATOM      8  C   UNL     1      52.172  17.670  18.612  0.00  0.00    -0.000 C 
BRANCH   8   7
ATOM      7  C   UNL     1      52.055  17.899  20.121  0.00  0.00    +0.000 C 
BRANCH   7   6
ATOM      6  C   UNL     1      51.045  16.911  20.709  0.00  0.00    +0.000 C 
BRANCH   6   5
ATOM      5  C   UNL     1      50.118  17.646  21.678  0.00  0.00    +0.000 C 
BRANCH   5   4
ATOM      4  C   UNL     1      48.778  16.911  21.759  0.00  0.00    -0.000 C 
BRANCH   4   3
ATOM      3  C   UNL     1      48.752  15.784  20.725  0.00  0.00    -0.000 C 
BRANCH   3   2
ATOM      1  C   UNL     1      47.548  13.616  20.414  0.00  0.00    +0.006 C 
ATOM      2  C   UNL     1      48.333  14.478  21.404  0.00  0.00    -0.006 C 
ENDBRANCH   3   2
ENDBRANCH   4   3
ENDBRANCH   5   4
ENDBRANCH   6   5
ENDBRANCH   7   6
ENDBRANCH   8   7
ENDBRANCH   9   8
ENDBRANCH  10   9
ENDBRANCH  11  10
ENDBRANCH  12  11
ENDBRANCH  13  12
ENDBRANCH  14  13
ENDBRANCH  15  14
ENDBRANCH  16  15
ENDBRANCH  17  16
ENDBRANCH  18  17
ENDBRANCH  19  18
ENDBRANCH  21  20
BRANCH  21  22
ATOM     22  O   UNL     1      44.137  23.313  22.123  0.00  0.00    -0.525 OA
ATOM     23  H   UNL     1      43.344  23.793  21.845  0.00  0.00    +0.366 HD
ENDBRANCH  21  22
ENDBRANCH  24  21
BRANCH  24  51
ATOM     51  C   UNL     1      44.218  24.420  19.125  0.00  0.00    +0.171 C 
BRANCH  51  52
ATOM     52  O   UNL     1      42.967  24.397  18.436  0.00  0.00    -0.551 OA
ATOM     53  H   UNL     1      43.029  24.100  17.518  0.00  0.00    +0.375 HD
ENDBRANCH  51  52
ENDBRANCH  24  51
TORSDOF 42
ENDMDL
MODEL 2
REMARK VINA RESULT:      -4.5      0.978      2.252
REMARK  Name = ZINC95485913
REMARK  45 active torsions:
REMARK  status: ('A' for Active; 'I' for Inactive)
REMARK    1  A    between atoms: C1_1  and  C2_2
REMARK    2  A    between atoms: C2_2  and  C3_3
REMARK    3  A    between atoms: C3_3  and  C4_4
REMARK    4  A    between atoms: C4_4  and  C5_5
REMARK    5  A    between atoms: C5_5  and  C6_6
REMARK    6  A    between atoms: C6_6  and  C7_7
REMARK    7  A    between atoms: C7_7  and  C8_8
REMARK    8  A    between atoms: C8_8  and  C9_9
REMARK    9  A    between atoms: C9_9  and  C10_10
REMARK   10  A    between atoms: C10_10  and  C11_11
REMARK   11  A    between atoms: C11_11  and  C12_12
REMARK   12  A    between atoms: C12_12  and  C13_13
REMARK   13  A    between atoms: C13_13  and  C14_14
REMARK   14  A    between atoms: C14_14  and  C15_15
REMARK   15  A    between atoms: C15_15  and  C16_16
REMARK   16  A    between atoms: C16_16  and  C17_17
REMARK   17  A    between atoms: C17_17  and  C18_18
REMARK   18  A    between atoms: C18_18  and  C19_19
REMARK   19  A    between atoms: C20_20  and  C21_21
REMARK   20  A    between atoms: C21_21  and  C22_22
REMARK   21  A    between atoms: C21_21  and  C23_23
REMARK   22  A    between atoms: C21_21  and  O4_52
REMARK   23  A    between atoms: C23_23  and  C24_25
REMARK   24  A    between atoms: C23_23  and  N1_27
REMARK   25  A    between atoms: C24_25  and  O1_26
REMARK   26  A    between atoms: C25_28  and  C26_30
REMARK   27  A    between atoms: C26_30  and  C27_32
REMARK   28  A    between atoms: C26_30  and  O3_51
REMARK   29  A    between atoms: C28_33  and  C29_34
REMARK   30  A    between atoms: C29_34  and  C30_35
REMARK   31  A    between atoms: C30_35  and  C31_36
REMARK   32  A    between atoms: C31_36  and  C32_37
REMARK   33  A    between atoms: C32_37  and  C33_38
REMARK   34  A    between atoms: C33_38  and  C34_39
REMARK   35  A    between atoms: C34_39  and  C35_40
REMARK   36  A    between atoms: C35_40  and  C36_41
REMARK   37  A    between atoms: C36_41  and  C37_42
REMARK   38  A    between atoms: C37_42  and  C38_43
REMARK   39  A    between atoms: C38_43  and  C39_44
REMARK   40  A    between atoms: C39_44  and  C40_45
REMARK   41  A    between atoms: C40_45  and  C41_46
REMARK   42  A    between atoms: C41_46  and  C42_47
REMARK   43  A    between atoms: C42_47  and  C43_48
REMARK   44  A    between atoms: C43_48  and  C44_49
REMARK   45  A    between atoms: C44_49  and  C45_50
REMARK                            x       y       z     vdW  Elec       q    Type
REMARK                         _______ _______ _______ _____ _____    ______ ____
ROOT
ATOM     24  CA  UNL     1      44.590  22.904  19.740  0.00  0.00    +0.232 C 
ENDROOT
BRANCH  24  25
ATOM     25  N   UNL     1      43.310  22.207  19.899  0.00  0.00    -0.708 N 
ATOM     26  H   UNL     1      42.585  22.631  20.384  0.00  0.00    +0.398 HD
ATOM     27  C   UNL     1      43.143  20.978  19.373  0.00  0.00    +0.493 C 
ATOM     50  O   UNL     1      44.050  20.449  18.768  0.00  0.00    -0.532 OA
BRANCH  27  28
ATOM     28  C   UNL     1      41.827  20.261  19.537  0.00  0.00    +0.252 C 
BRANCH  28  29
ATOM     29  O   UNL     1      41.229  20.066  18.254  0.00  0.00    -0.531 OA
ATOM     30  H   UNL     1      40.317  20.383  18.193  0.00  0.00    +0.385 HD
ENDBRANCH  28  29
BRANCH  28  31
ATOM     31  C   UNL     1      42.061  18.924  20.191  0.00  0.00    -0.085 C 
ATOM     32  C   UNL     1      42.516  18.865  21.417  0.00  0.00    -0.001 C 
BRANCH  32  33
ATOM     33  C   UNL     1      42.750  17.528  22.072  0.00  0.00    +0.048 C 
BRANCH  33  34
ATOM     34  C   UNL     1      44.253  17.257  22.157  0.00  0.00    +0.013 C 
BRANCH  34  35
ATOM     35  C   UNL     1      44.627  16.145  21.175  0.00  0.00    +0.001 C 
BRANCH  35  36
ATOM     36  C   UNL     1      45.052  16.763  19.842  0.00  0.00    +0.003 C 
BRANCH  36  37
ATOM     37  C   UNL     1      46.188  17.760  20.081  0.00  0.00    -0.000 C 
BRANCH  37  38
ATOM     38  C   UNL     1      46.737  18.240  18.736  0.00  0.00    +0.001 C 
BRANCH  38  39
ATOM     39  C   UNL     1      47.476  17.090  18.048  0.00  0.00    -0.000 C 
BRANCH  39  40
ATOM     40  C   UNL     1      46.832  16.810  16.689  0.00  0.00    +0.000 C 
BRANCH  40  41
ATOM     41  C   UNL     1      46.639  15.302  16.517  0.00  0.00    +0.000 C 
BRANCH  41  42
ATOM     42  C   UNL     1      47.148  14.576  17.763  0.00  0.00    -0.000 C 
BRANCH  42  43
ATOM     43  C   UNL     1      46.138  13.504  18.177  0.00  0.00    +0.000 C 
BRANCH  43  44
ATOM     44  C   UNL     1      45.947  12.514  17.027  0.00  0.00    -0.000 C 
BRANCH  44  45
ATOM     45  C   UNL     1      47.260  11.771  16.771  0.00  0.00    +0.000 C 
BRANCH  45  46
ATOM     46  C   UNL     1      47.529  11.712  15.266  0.00  0.00    -0.000 C 
BRANCH  46  47
ATOM     47  C   UNL     1      48.653  12.686  14.909  0.00  0.00    -0.000 C 
BRANCH  47  48
ATOM     48  C   UNL     1      49.838  11.908  14.334  0.00  0.00    -0.006 C 
ATOM     49  C   UNL     1      51.000  12.868  14.072  0.00  0.00    +0.006 C 
ENDBRANCH  47  48
ENDBRANCH  46  47
ENDBRANCH  45  46
ENDBRANCH  44  45
ENDBRANCH  43  44
ENDBRANCH  42  43
ENDBRANCH  41  42
ENDBRANCH  40  41
ENDBRANCH  39  40
ENDBRANCH  38  39
ENDBRANCH  37  38
ENDBRANCH  36  37
ENDBRANCH  35  36
ENDBRANCH  34  35
ENDBRANCH  33  34
ENDBRANCH  32  33
ENDBRANCH  28  31
ENDBRANCH  27  28
ENDBRANCH  24  25
BRANCH  24  21
ATOM     21  C   UNL     1      45.154  23.254  21.119  0.00  0.00    +0.165 C 
ATOM     54  C   UNL     1      45.924  24.573  21.034  0.00  0.00    +0.076 C 
BRANCH  21  20
ATOM     19  C   UNL     1      47.014  21.712  20.768  0.00  0.00    -0.023 C 
ATOM     20  C   UNL     1      46.083  22.158  21.574  0.00  0.00    -0.080 C 
BRANCH  19  18
ATOM     18  C   UNL     1      47.942  20.615  21.224  0.00  0.00    +0.045 C 
BRANCH  18  17
ATOM     17  C   UNL     1      49.375  20.956  20.812  0.00  0.00    +0.010 C 
BRANCH  17  16
ATOM     16  C   UNL     1      49.538  20.743  19.306  0.00  0.00    +0.002 C 
BRANCH  16  15
ATOM     15  C   UNL     1      50.984  21.038  18.902  0.00  0.00    +0.001 C 
BRANCH  15  14
ATOM     14  C   UNL     1      51.118  20.944  17.381  0.00  0.00    +0.001 C 
BRANCH  14  13
ATOM     13  C   UNL     1      52.156  19.878  17.025  0.00  0.00    +0.000 C 
BRANCH  13  12
ATOM     12  C   UNL     1      51.543  18.878  16.042  0.00  0.00    +0.000 C 
BRANCH  12  11
ATOM     11  C   UNL     1      50.752  17.822  16.816  0.00  0.00    +0.000 C 
BRANCH  11  10
ATOM     10  C   UNL     1      51.623  16.580  17.021  0.00  0.00    -0.000 C 
BRANCH  10   9
ATOM      9  C   UNL     1      50.756  15.325  16.902  0.00  0.00    +0.000 C 
BRANCH   9   8
ATOM      8  C   UNL     1      51.461  14.152  17.590  0.00  0.00    -0.000 C 
BRANCH   8   7
ATOM      7  C   UNL     1      50.414  13.170  18.120  0.00  0.00    +0.000 C 
BRANCH   7   6
ATOM      6  C   UNL     1      50.161  13.447  19.604  0.00  0.00    +0.000 C 
BRANCH   6   5
ATOM      5  C   UNL     1      51.452  13.940  20.257  0.00  0.00    +0.000 C 
BRANCH   5   4
ATOM      4  C   UNL     1      51.153  15.176  21.109  0.00  0.00    -0.000 C 
BRANCH   4   3
ATOM      3  C   UNL     1      49.842  15.812  20.641  0.00  0.00    -0.000 C 
BRANCH   3   2
ATOM      1  C   UNL     1      51.530  17.652  20.556  0.00  0.00    +0.006 C 
ATOM      2  C   UNL     1      50.040  17.319  20.464  0.00  0.00    -0.006 C 
ENDBRANCH   3   2
ENDBRANCH   4   3
ENDBRANCH   5   4
ENDBRANCH   6   5
ENDBRANCH   7   6
ENDBRANCH   8   7
ENDBRANCH   9   8
ENDBRANCH  10   9
ENDBRANCH  11  10
ENDBRANCH  12  11
ENDBRANCH  13  12
ENDBRANCH  14  13
ENDBRANCH  15  14
ENDBRANCH  16  15
ENDBRANCH  17  16
ENDBRANCH  18  17
ENDBRANCH  19  18
ENDBRANCH  21  20
BRANCH  21  22
ATOM     22  O   UNL     1      44.081  23.389  22.053  0.00  0.00    -0.525 OA
ATOM     23  H   UNL     1      44.347  23.755  22.907  0.00  0.00    +0.366 HD
ENDBRANCH  21  22
ENDBRANCH  24  21
BRANCH  24  51
ATOM     51  C   UNL     1      44.374  24.187  18.936  0.00  0.00    +0.171 C 
BRANCH  51  52
ATOM     52  O   UNL     1      42.974  24.398  18.741  0.00  0.00    -0.551 OA
ATOM     53  H   UNL     1      42.569  23.790  18.108  0.00  0.00    +0.375 HD
ENDBRANCH  51  52
ENDBRANCH  24  51
TORSDOF 42
ENDMDL
MODEL 3
REMARK VINA RESULT:      -4.3      4.411      8.644
REMARK  Name = ZINC95485913
REMARK  45 active torsions:
REMARK  status: ('A' for Active; 'I' for Inactive)
REMARK    1  A    between atoms: C1_1  and  C2_2
REMARK    2  A    between atoms: C2_2  and  C3_3
REMARK    3  A    between atoms: C3_3  and  C4_4
REMARK    4  A    between atoms: C4_4  and  C5_5
REMARK    5  A    between atoms: C5_5  and  C6_6
REMARK    6  A    between atoms: C6_6  and  C7_7
REMARK    7  A    between atoms: C7_7  and  C8_8
REMARK    8  A    between atoms: C8_8  and  C9_9
REMARK    9  A    between atoms: C9_9  and  C10_10
REMARK   10  A    between atoms: C10_10  and  C11_11
REMARK   11  A    between atoms: C11_11  and  C12_12
REMARK   12  A    between atoms: C12_12  and  C13_13
REMARK   13  A    between atoms: C13_13  and  C14_14
REMARK   14  A    between atoms: C14_14  and  C15_15
REMARK   15  A    between atoms: C15_15  and  C16_16
REMARK   16  A    between atoms: C16_16  and  C17_17
REMARK   17  A    between atoms: C17_17  and  C18_18
REMARK   18  A    between atoms: C18_18  and  C19_19
REMARK   19  A    between atoms: C20_20  and  C21_21
REMARK   20  A    between atoms: C21_21  and  C22_22
REMARK   21  A    between atoms: C21_21  and  C23_23
REMARK   22  A    between atoms: C21_21  and  O4_52
REMARK   23  A    between atoms: C23_23  and  C24_25
REMARK   24  A    between atoms: C23_23  and  N1_27
REMARK   25  A    between atoms: C24_25  and  O1_26
REMARK   26  A    between atoms: C25_28  and  C26_30
REMARK   27  A    between atoms: C26_30  and  C27_32
REMARK   28  A    between atoms: C26_30  and  O3_51
REMARK   29  A    between atoms: C28_33  and  C29_34
REMARK   30  A    between atoms: C29_34  and  C30_35
REMARK   31  A    between atoms: C30_35  and  C31_36
REMARK   32  A    between atoms: C31_36  and  C32_37
REMARK   33  A    between atoms: C32_37  and  C33_38
REMARK   34  A    between atoms: C33_38  and  C34_39
REMARK   35  A    between atoms: C34_39  and  C35_40
REMARK   36  A    between atoms: C35_40  and  C36_41
REMARK   37  A    between atoms: C36_41  and  C37_42
REMARK   38  A    between atoms: C37_42  and  C38_43
REMARK   39  A    between atoms: C38_43  and  C39_44
REMARK   40  A    between atoms: C39_44  and  C40_45
REMARK   41  A    between atoms: C40_45  and  C41_46
REMARK   42  A    between atoms: C41_46  and  C42_47
REMARK   43  A    between atoms: C42_47  and  C43_48
REMARK   44  A    between atoms: C43_48  and  C44_49
REMARK   45  A    between atoms: C44_49  and  C45_50
REMARK                            x       y       z     vdW  Elec       q    Type
REMARK                         _______ _______ _______ _____ _____    ______ ____
ROOT
ATOM     24  CA  UNL     1      50.634  12.614  13.293  0.00  0.00    +0.232 C 
ENDROOT
BRANCH  24  25
ATOM     25  N   UNL     1      49.282  12.905  13.779  0.00  0.00    -0.708 N 
ATOM     26  H   UNL     1      48.906  13.790  13.663  0.00  0.00    +0.398 HD
ATOM     27  C   UNL     1      48.563  11.940  14.386  0.00  0.00    +0.493 C 
ATOM     50  O   UNL     1      49.034  10.833  14.531  0.00  0.00    -0.532 OA
BRANCH  27  28
ATOM     28  C   UNL     1      47.173  12.240  14.886  0.00  0.00    +0.252 C 
BRANCH  28  29
ATOM     29  O   UNL     1      46.310  11.143  14.577  0.00  0.00    -0.531 OA
ATOM     30  H   UNL     1      46.775  10.345  14.292  0.00  0.00    +0.385 HD
ENDBRANCH  28  29
BRANCH  28  31
ATOM     31  C   UNL     1      47.208  12.446  16.378  0.00  0.00    -0.085 C 
ATOM     32  C   UNL     1      46.812  13.584  16.892  0.00  0.00    -0.001 C 
BRANCH  32  33
ATOM     33  C   UNL     1      46.847  13.791  18.384  0.00  0.00    +0.048 C 
BRANCH  33  34
ATOM     34  C   UNL     1      45.844  14.878  18.773  0.00  0.00    +0.013 C 
BRANCH  34  35
ATOM     35  C   UNL     1      46.450  15.765  19.863  0.00  0.00    +0.001 C 
BRANCH  35  36
ATOM     36  C   UNL     1      47.802  15.193  20.292  0.00  0.00    +0.003 C 
BRANCH  36  37
ATOM     37  C   UNL     1      48.571  16.245  21.093  0.00  0.00    -0.000 C 
BRANCH  37  38
ATOM     38  C   UNL     1      47.582  17.136  21.848  0.00  0.00    +0.001 C 
BRANCH  38  39
ATOM     39  C   UNL     1      48.060  18.587  21.797  0.00  0.00    -0.000 C 
BRANCH  39  40
ATOM     40  C   UNL     1      48.360  18.975  20.348  0.00  0.00    +0.000 C 
BRANCH  40  41
ATOM     41  C   UNL     1      48.012  20.449  20.131  0.00  0.00    +0.000 C 
BRANCH  41  42
ATOM     42  C   UNL     1      47.252  20.605  18.812  0.00  0.00    -0.000 C 
BRANCH  42  43
ATOM     43  C   UNL     1      46.514  19.303  18.492  0.00  0.00    +0.000 C 
BRANCH  43  44
ATOM     44  C   UNL     1      45.005  19.559  18.498  0.00  0.00    -0.000 C 
BRANCH  44  45
ATOM     45  C   UNL     1      44.365  18.796  19.661  0.00  0.00    +0.000 C 
BRANCH  45  46
ATOM     46  C   UNL     1      43.409  19.723  20.414  0.00  0.00    -0.000 C 
BRANCH  46  47
ATOM     47  C   UNL     1      42.689  20.634  19.417  0.00  0.00    -0.000 C 
BRANCH  47  48
ATOM     48  C   UNL     1      41.206  20.262  19.366  0.00  0.00    -0.006 C 
ATOM     49  C   UNL     1      40.445  21.314  18.558  0.00  0.00    +0.006 C 
ENDBRANCH  47  48
ENDBRANCH  46  47
ENDBRANCH  45  46
ENDBRANCH  44  45
ENDBRANCH  43  44
ENDBRANCH  42  43
ENDBRANCH  41  42
ENDBRANCH  40  41
ENDBRANCH  39  40
ENDBRANCH  38  39
ENDBRANCH  37  38
ENDBRANCH  36  37
ENDBRANCH  35  36
ENDBRANCH  34  35
ENDBRANCH  33  34
ENDBRANCH  32  33
ENDBRANCH  28  31
ENDBRANCH  27  28
ENDBRANCH  24  25
BRANCH  24  21
ATOM     21  C   UNL     1      51.661  13.146  14.295  0.00  0.00    +0.165 C 
ATOM     54  C   UNL     1      52.421  11.973  14.917  0.00  0.00    +0.076 C 
BRANCH  21  20
ATOM     19  C   UNL     1      51.199  13.653  16.637  0.00  0.00    -0.023 C 
ATOM     20  C   UNL     1      50.953  13.918  15.379  0.00  0.00    -0.080 C 
BRANCH  19  18
ATOM     18  C   UNL     1      50.490  14.425  17.721  0.00  0.00    +0.045 C 
BRANCH  18  17
ATOM     17  C   UNL     1      49.853  15.679  17.123  0.00  0.00    +0.010 C 
BRANCH  17  16
ATOM     16  C   UNL     1      50.320  16.910  17.901  0.00  0.00    +0.002 C 
BRANCH  16  15
ATOM     15  C   UNL     1      51.599  17.461  17.267  0.00  0.00    +0.001 C 
BRANCH  15  14
ATOM     14  C   UNL     1      51.236  18.512  16.217  0.00  0.00    +0.001 C 
BRANCH  14  13
ATOM     13  C   UNL     1      52.251  19.657  16.269  0.00  0.00    +0.000 C 
BRANCH  13  12
ATOM     12  C   UNL     1      51.510  20.989  16.396  0.00  0.00    +0.000 C 
BRANCH  12  11
ATOM     11  C   UNL     1      50.947  21.128  17.811  0.00  0.00    +0.000 C 
BRANCH  11  10
ATOM     10  C   UNL     1      52.052  20.842  18.830  0.00  0.00    -0.000 C 
BRANCH  10   9
ATOM      9  C   UNL     1      51.632  21.378  20.201  0.00  0.00    +0.000 C 
BRANCH   9   8
ATOM      8  C   UNL     1      51.824  20.286  21.256  0.00  0.00    -0.000 C 
BRANCH   8   7
ATOM      7  C   UNL     1      52.196  18.971  20.566  0.00  0.00    +0.000 C 
BRANCH   7   6
ATOM      6  C   UNL     1      51.712  17.795  21.417  0.00  0.00    +0.000 C 
BRANCH   6   5
ATOM      5  C   UNL     1      52.791  16.712  21.450  0.00  0.00    +0.000 C 
BRANCH   5   4
ATOM      4  C   UNL     1      52.256  15.439  20.789  0.00  0.00    -0.000 C 
BRANCH   4   3
ATOM      3  C   UNL     1      53.360  14.800  19.945  0.00  0.00    -0.000 C 
BRANCH   3   2
ATOM      1  C   UNL     1      55.739  15.432  19.512  0.00  0.00    +0.006 C 
ATOM      2  C   UNL     1      54.284  15.893  19.402  0.00  0.00    -0.006 C 
ENDBRANCH   3   2
ENDBRANCH   4   3
ENDBRANCH   5   4
ENDBRANCH   6   5
ENDBRANCH   7   6
ENDBRANCH   8   7
ENDBRANCH   9   8
ENDBRANCH  10   9
ENDBRANCH  11  10
ENDBRANCH  12  11
ENDBRANCH  13  12
ENDBRANCH  14  13
ENDBRANCH  15  14
ENDBRANCH  16  15
ENDBRANCH  17  16
ENDBRANCH  18  17
ENDBRANCH  19  18
ENDBRANCH  21  20
BRANCH  21  22
ATOM     22  O   UNL     1      52.582  14.007  13.621  0.00  0.00    -0.525 OA
ATOM     23  H   UNL     1      53.202  13.543  13.041  0.00  0.00    +0.366 HD
ENDBRANCH  21  22
ENDBRANCH  24  21
BRANCH  24  51
ATOM     51  C   UNL     1      50.845  13.290  11.938  0.00  0.00    +0.171 C 
BRANCH  51  52
ATOM     52  O   UNL     1      51.854  12.590  11.207  0.00  0.00    -0.551 OA
ATOM     53  H   UNL     1      52.143  13.041  10.403  0.00  0.00    +0.375 HD
ENDBRANCH  51  52
ENDBRANCH  24  51
TORSDOF 42
ENDMDL
MODEL 4
REMARK VINA RESULT:      -4.2      0.972      2.606
REMARK  Name = ZINC95485913
REMARK  45 active torsions:
REMARK  status: ('A' for Active; 'I' for Inactive)
REMARK    1  A    between atoms: C1_1  and  C2_2
REMARK    2  A    between atoms: C2_2  and  C3_3
REMARK    3  A    between atoms: C3_3  and  C4_4
REMARK    4  A    between atoms: C4_4  and  C5_5
REMARK    5  A    between atoms: C5_5  and  C6_6
REMARK    6  A    between atoms: C6_6  and  C7_7
REMARK    7  A    between atoms: C7_7  and  C8_8
REMARK    8  A    between atoms: C8_8  and  C9_9
REMARK    9  A    between atoms: C9_9  and  C10_10
REMARK   10  A    between atoms: C10_10  and  C11_11
REMARK   11  A    between atoms: C11_11  and  C12_12
REMARK   12  A    between atoms: C12_12  and  C13_13
REMARK   13  A    between atoms: C13_13  and  C14_14
REMARK   14  A    between atoms: C14_14  and  C15_15
REMARK   15  A    between atoms: C15_15  and  C16_16
REMARK   16  A    between atoms: C16_16  and  C17_17
REMARK   17  A    between atoms: C17_17  and  C18_18
REMARK   18  A    between atoms: C18_18  and  C19_19
REMARK   19  A    between atoms: C20_20  and  C21_21
REMARK   20  A    between atoms: C21_21  and  C22_22
REMARK   21  A    between atoms: C21_21  and  C23_23
REMARK   22  A    between atoms: C21_21  and  O4_52
REMARK   23  A    between atoms: C23_23  and  C24_25
REMARK   24  A    between atoms: C23_23  and  N1_27
REMARK   25  A    between atoms: C24_25  and  O1_26
REMARK   26  A    between atoms: C25_28  and  C26_30
REMARK   27  A    between atoms: C26_30  and  C27_32
REMARK   28  A    between atoms: C26_30  and  O3_51
REMARK   29  A    between atoms: C28_33  and  C29_34
REMARK   30  A    between atoms: C29_34  and  C30_35
REMARK   31  A    between atoms: C30_35  and  C31_36
REMARK   32  A    between atoms: C31_36  and  C32_37
REMARK   33  A    between atoms: C32_37  and  C33_38
REMARK   34  A    between atoms: C33_38  and  C34_39
REMARK   35  A    between atoms: C34_39  and  C35_40
REMARK   36  A    between atoms: C35_40  and  C36_41
REMARK   37  A    between atoms: C36_41  and  C37_42
REMARK   38  A    between atoms: C37_42  and  C38_43
REMARK   39  A    between atoms: C38_43  and  C39_44
REMARK   40  A    between atoms: C39_44  and  C40_45
REMARK   41  A    between atoms: C40_45  and  C41_46
REMARK   42  A    between atoms: C41_46  and  C42_47
REMARK   43  A    between atoms: C42_47  and  C43_48
REMARK   44  A    between atoms: C43_48  and  C44_49
REMARK   45  A    between atoms: C44_49  and  C45_50
REMARK                            x       y       z     vdW  Elec       q    Type
REMARK                         _______ _______ _______ _____ _____    ______ ____
ROOT
ATOM     24  CA  UNL     1      44.558  22.904  19.735  0.00  0.00    +0.232 C 
ENDROOT
BRANCH  24  25
ATOM     25  N   UNL     1      43.288  22.196  19.924  0.00  0.00    -0.708 N 
ATOM     26  H   UNL     1      42.583  22.600  20.451  0.00  0.00    +0.398 HD
ATOM     27  C   UNL     1      43.104  20.984  19.365  0.00  0.00    +0.493 C 
ATOM     50  O   UNL     1      43.987  20.479  18.706  0.00  0.00    -0.532 OA
BRANCH  27  28
ATOM     28  C   UNL     1      41.798  20.256  19.559  0.00  0.00    +0.252 C 
BRANCH  28  29
ATOM     29  O   UNL     1      41.175  20.051  18.290  0.00  0.00    -0.531 OA
ATOM     30  H   UNL     1      41.585  19.355  17.758  0.00  0.00    +0.385 HD
ENDBRANCH  28  29
BRANCH  28  31
ATOM     31  C   UNL     1      42.058  18.923  20.213  0.00  0.00    -0.085 C 
ATOM     32  C   UNL     1      42.549  18.872  21.426  0.00  0.00    -0.001 C 
BRANCH  32  33
ATOM     33  C   UNL     1      42.809  17.540  22.079  0.00  0.00    +0.048 C 
BRANCH  33  34
ATOM     34  C   UNL     1      44.316  17.285  22.139  0.00  0.00    +0.013 C 
BRANCH  34  35
ATOM     35  C   UNL     1      44.650  16.012  21.360  0.00  0.00    +0.001 C 
BRANCH  35  36
ATOM     36  C   UNL     1      45.156  16.386  19.965  0.00  0.00    +0.003 C 
BRANCH  36  37
ATOM     37  C   UNL     1      45.816  17.766  20.014  0.00  0.00    -0.000 C 
BRANCH  37  38
ATOM     38  C   UNL     1      46.182  18.207  18.596  0.00  0.00    +0.001 C 
BRANCH  38  39
ATOM     39  C   UNL     1      47.612  17.767  18.278  0.00  0.00    -0.000 C 
BRANCH  39  40
ATOM     40  C   UNL     1      47.667  17.196  16.860  0.00  0.00    +0.000 C 
BRANCH  40  41
ATOM     41  C   UNL     1      46.810  15.930  16.786  0.00  0.00    +0.000 C 
BRANCH  41  42
ATOM     42  C   UNL     1      47.698  14.700  16.982  0.00  0.00    -0.000 C 
BRANCH  42  43
ATOM     43  C   UNL     1      49.142  15.147  17.224  0.00  0.00    +0.000 C 
BRANCH  43  44
ATOM     44  C   UNL     1      50.080  13.951  17.053  0.00  0.00    -0.000 C 
BRANCH  44  45
ATOM     45  C   UNL     1      51.266  14.356  16.174  0.00  0.00    +0.000 C 
BRANCH  45  46
ATOM     46  C   UNL     1      51.373  13.394  14.988  0.00  0.00    -0.000 C 
BRANCH  46  47
ATOM     47  C   UNL     1      50.155  12.470  14.967  0.00  0.00    -0.000 C 
BRANCH  47  48
ATOM     48  C   UNL     1      49.331  12.740  13.707  0.00  0.00    -0.006 C 
ATOM     49  C   UNL     1      47.843  12.603  14.031  0.00  0.00    +0.006 C 
ENDBRANCH  47  48
ENDBRANCH  46  47
ENDBRANCH  45  46
ENDBRANCH  44  45
ENDBRANCH  43  44
ENDBRANCH  42  43
ENDBRANCH  41  42
ENDBRANCH  40  41
ENDBRANCH  39  40
ENDBRANCH  38  39
ENDBRANCH  37  38
ENDBRANCH  36  37
ENDBRANCH  35  36
ENDBRANCH  34  35
ENDBRANCH  33  34
ENDBRANCH  32  33
ENDBRANCH  28  31
ENDBRANCH  27  28
ENDBRANCH  24  25
BRANCH  24  21
ATOM     21  C   UNL     1      45.172  23.220  21.100  0.00  0.00    +0.165 C 
ATOM     54  C   UNL     1      45.965  24.526  21.011  0.00  0.00    +0.076 C 
BRANCH  21  20
ATOM     19  C   UNL     1      46.979  21.639  20.662  0.00  0.00    -0.023 C 
ATOM     20  C   UNL     1      46.093  22.100  21.509  0.00  0.00    -0.080 C 
BRANCH  19  18
ATOM     18  C   UNL     1      47.899  20.517  21.070  0.00  0.00    +0.045 C 
BRANCH  18  17
ATOM     17  C   UNL     1      49.293  20.763  20.489  0.00  0.00    +0.010 C 
BRANCH  17  16
ATOM     16  C   UNL     1      49.221  20.734  18.961  0.00  0.00    +0.002 C 
BRANCH  16  15
ATOM     15  C   UNL     1      50.596  21.071  18.380  0.00  0.00    +0.001 C 
BRANCH  15  14
ATOM     14  C   UNL     1      51.075  19.914  17.500  0.00  0.00    +0.001 C 
BRANCH  14  13
ATOM     13  C   UNL     1      52.353  19.318  18.093  0.00  0.00    +0.000 C 
BRANCH  13  12
ATOM     12  C   UNL     1      52.127  17.838  18.408  0.00  0.00    +0.000 C 
BRANCH  12  11
ATOM     11  C   UNL     1      51.850  17.670  19.902  0.00  0.00    +0.000 C 
BRANCH  11  10
ATOM     10  C   UNL     1      50.443  17.102  20.100  0.00  0.00    -0.000 C 
BRANCH  10   9
ATOM      9  C   UNL     1      49.977  17.379  21.531  0.00  0.00    +0.000 C 
BRANCH   9   8
ATOM      8  C   UNL     1      48.765  16.502  21.851  0.00  0.00    -0.000 C 
BRANCH   8   7
ATOM      7  C   UNL     1      48.632  15.408  20.789  0.00  0.00    +0.000 C 
BRANCH   7   6
ATOM      6  C   UNL     1      48.085  14.134  21.436  0.00  0.00    +0.000 C 
BRANCH   6   5
ATOM      5  C   UNL     1      49.216  13.119  21.599  0.00  0.00    +0.000 C 
BRANCH   5   4
ATOM      4  C   UNL     1      50.377  13.496  20.676  0.00  0.00    -0.000 C 
BRANCH   4   3
ATOM      3  C   UNL     1      50.989  12.226  20.081  0.00  0.00    -0.000 C 
BRANCH   3   2
ATOM      1  C   UNL     1      52.688  14.014  19.676  0.00  0.00    +0.006 C 
ATOM      2  C   UNL     1      52.434  12.505  19.661  0.00  0.00    -0.006 C 
ENDBRANCH   3   2
ENDBRANCH   4   3
ENDBRANCH   5   4
ENDBRANCH   6   5
ENDBRANCH   7   6
ENDBRANCH   8   7
ENDBRANCH   9   8
ENDBRANCH  10   9
ENDBRANCH  11  10
ENDBRANCH  12  11
ENDBRANCH  13  12
ENDBRANCH  14  13
ENDBRANCH  15  14
ENDBRANCH  16  15
ENDBRANCH  17  16
ENDBRANCH  18  17
ENDBRANCH  19  18
ENDBRANCH  21  20
BRANCH  21  22
ATOM     22  O   UNL     1      44.132  23.360  22.070  0.00  0.00    -0.525 OA
ATOM     23  H   UNL     1      44.421  23.213  22.981  0.00  0.00    +0.366 HD
ENDBRANCH  21  22
ENDBRANCH  24  21
BRANCH  24  51
ATOM     51  C   UNL     1      44.306  24.206  18.974  0.00  0.00    +0.171 C 
BRANCH  51  52
ATOM     52  O   UNL     1      42.907  24.348  18.721  0.00  0.00    -0.551 OA
ATOM     53  H   UNL     1      42.528  25.171  19.057  0.00  0.00    +0.375 HD
ENDBRANCH  51  52
ENDBRANCH  24  51
TORSDOF 42
ENDMDL
MODEL 5
REMARK VINA RESULT:      -4.0      3.981      9.308
REMARK  Name = ZINC95485913
REMARK  45 active torsions:
REMARK  status: ('A' for Active; 'I' for Inactive)
REMARK    1  A    between atoms: C1_1  and  C2_2
REMARK    2  A    between atoms: C2_2  and  C3_3
REMARK    3  A    between atoms: C3_3  and  C4_4
REMARK    4  A    between atoms: C4_4  and  C5_5
REMARK    5  A    between atoms: C5_5  and  C6_6
REMARK    6  A    between atoms: C6_6  and  C7_7
REMARK    7  A    between atoms: C7_7  and  C8_8
REMARK    8  A    between atoms: C8_8  and  C9_9
REMARK    9  A    between atoms: C9_9  and  C10_10
REMARK   10  A    between atoms: C10_10  and  C11_11
REMARK   11  A    between atoms: C11_11  and  C12_12
REMARK   12  A    between atoms: C12_12  and  C13_13
REMARK   13  A    between atoms: C13_13  and  C14_14
REMARK   14  A    between atoms: C14_14  and  C15_15
REMARK   15  A    between atoms: C15_15  and  C16_16
REMARK   16  A    between atoms: C16_16  and  C17_17
REMARK   17  A    between atoms: C17_17  and  C18_18
REMARK   18  A    between atoms: C18_18  and  C19_19
REMARK   19  A    between atoms: C20_20  and  C21_21
REMARK   20  A    between atoms: C21_21  and  C22_22
REMARK   21  A    between atoms: C21_21  and  C23_23
REMARK   22  A    between atoms: C21_21  and  O4_52
REMARK   23  A    between atoms: C23_23  and  C24_25
REMARK   24  A    between atoms: C23_23  and  N1_27
REMARK   25  A    between atoms: C24_25  and  O1_26
REMARK   26  A    between atoms: C25_28  and  C26_30
REMARK   27  A    between atoms: C26_30  and  C27_32
REMARK   28  A    between atoms: C26_30  and  O3_51
REMARK   29  A    between atoms: C28_33  and  C29_34
REMARK   30  A    between atoms: C29_34  and  C30_35
REMARK   31  A    between atoms: C30_35  and  C31_36
REMARK   32  A    between atoms: C31_36  and  C32_37
REMARK   33  A    between atoms: C32_37  and  C33_38
REMARK   34  A    between atoms: C33_38  and  C34_39
REMARK   35  A    between atoms: C34_39  and  C35_40
REMARK   36  A    between atoms: C35_40  and  C36_41
REMARK   37  A    between atoms: C36_41  and  C37_42
REMARK   38  A    between atoms: C37_42  and  C38_43
REMARK   39  A    between atoms: C38_43  and  C39_44
REMARK   40  A    between atoms: C39_44  and  C40_45
REMARK   41  A    between atoms: C40_45  and  C41_46
REMARK   42  A    between atoms: C41_46  and  C42_47
REMARK   43  A    between atoms: C42_47  and  C43_48
REMARK   44  A    between atoms: C43_48  and  C44_49
REMARK   45  A    between atoms: C44_49  and  C45_50
REMARK                            x       y       z     vdW  Elec       q    Type
REMARK                         _______ _______ _______ _____ _____    ______ ____
ROOT
ATOM     24  CA  UNL     1      50.460  12.567  13.486  0.00  0.00    +0.232 C 
ENDROOT
BRANCH  24  25
ATOM     25  N   UNL     1      49.246  13.016  14.174  0.00  0.00    -0.708 N 
ATOM     26  H   UNL     1      48.990  13.950  14.143  0.00  0.00    +0.398 HD
ATOM     27  C   UNL     1      48.487  12.130  14.849  0.00  0.00    +0.493 C 
ATOM     50  O   UNL     1      48.809  10.962  14.887  0.00  0.00    -0.532 OA
BRANCH  27  28
ATOM     28  C   UNL     1      47.240  12.592  15.557  0.00  0.00    +0.252 C 
BRANCH  28  29
ATOM     29  O   UNL     1      46.906  11.663  16.589  0.00  0.00    -0.531 OA
ATOM     30  H   UNL     1      46.788  10.755  16.278  0.00  0.00    +0.385 HD
ENDBRANCH  28  29
BRANCH  28  31
ATOM     31  C   UNL     1      47.479  13.951  16.162  0.00  0.00    -0.085 C 
ATOM     32  C   UNL     1      46.564  14.502  16.920  0.00  0.00    -0.001 C 
BRANCH  32  33
ATOM     33  C   UNL     1      46.804  15.861  17.525  0.00  0.00    +0.048 C 
BRANCH  33  34
ATOM     34  C   UNL     1      45.810  16.094  18.665  0.00  0.00    +0.013 C 
BRANCH  34  35
ATOM     35  C   UNL     1      45.700  17.594  18.946  0.00  0.00    +0.001 C 
BRANCH  35  36
ATOM     36  C   UNL     1      45.930  17.851  20.437  0.00  0.00    +0.003 C 
BRANCH  36  37
ATOM     37  C   UNL     1      44.783  17.240  21.244  0.00  0.00    -0.000 C 
BRANCH  37  38
ATOM     38  C   UNL     1      43.856  18.352  21.737  0.00  0.00    +0.001 C 
BRANCH  38  39
ATOM     39  C   UNL     1      42.431  17.810  21.863  0.00  0.00    -0.000 C 
BRANCH  39  40
ATOM     40  C   UNL     1      41.449  18.808  21.248  0.00  0.00    +0.000 C 
BRANCH  40  41
ATOM     41  C   UNL     1      41.983  19.284  19.896  0.00  0.00    +0.000 C 
BRANCH  41  42
ATOM     42  C   UNL     1      40.926  20.147  19.204  0.00  0.00    -0.000 C 
BRANCH  42  43
ATOM     43  C   UNL     1      41.509  21.533  18.917  0.00  0.00    +0.000 C 
BRANCH  43  44
ATOM     44  C   UNL     1      42.990  21.552  19.302  0.00  0.00    -0.000 C 
BRANCH  44  45
ATOM     45  C   UNL     1      43.419  22.991  19.600  0.00  0.00    +0.000 C 
BRANCH  45  46
ATOM     46  C   UNL     1      44.918  23.022  19.909  0.00  0.00    -0.000 C 
BRANCH  46  47
ATOM     47  C   UNL     1      45.480  21.600  19.854  0.00  0.00    -0.000 C 
BRANCH  47  48
ATOM     48  C   UNL     1      46.600  21.455  20.887  0.00  0.00    -0.006 C 
ATOM     49  C   UNL     1      45.991  21.325  22.284  0.00  0.00    +0.006 C 
ENDBRANCH  47  48
ENDBRANCH  46  47
ENDBRANCH  45  46
ENDBRANCH  44  45
ENDBRANCH  43  44
ENDBRANCH  42  43
ENDBRANCH  41  42
ENDBRANCH  40  41
ENDBRANCH  39  40
ENDBRANCH  38  39
ENDBRANCH  37  38
ENDBRANCH  36  37
ENDBRANCH  35  36
ENDBRANCH  34  35
ENDBRANCH  33  34
ENDBRANCH  32  33
ENDBRANCH  28  31
ENDBRANCH  27  28
ENDBRANCH  24  25
BRANCH  24  21
ATOM     21  C   UNL     1      51.690  13.032  14.267  0.00  0.00    +0.165 C 
ATOM     54  C   UNL     1      52.456  11.813  14.785  0.00  0.00    +0.076 C 
BRANCH  21  20
ATOM     19  C   UNL     1      51.407  13.446  16.656  0.00  0.00    -0.023 C 
ATOM     20  C   UNL     1      51.254  13.884  15.431  0.00  0.00    -0.080 C 
BRANCH  19  18
ATOM     18  C   UNL     1      50.970  14.297  17.821  0.00  0.00    +0.045 C 
BRANCH  18  17
ATOM     17  C   UNL     1      51.233  13.549  19.128  0.00  0.00    +0.010 C 
BRANCH  17  16
ATOM     16  C   UNL     1      50.278  12.359  19.237  0.00  0.00    +0.002 C 
BRANCH  16  15
ATOM     15  C   UNL     1      48.837  12.868  19.320  0.00  0.00    +0.001 C 
BRANCH  15  14
ATOM     14  C   UNL     1      48.365  12.829  20.774  0.00  0.00    +0.001 C 
BRANCH  14  13
ATOM     13  C   UNL     1      47.793  14.194  21.162  0.00  0.00    +0.000 C 
BRANCH  13  12
ATOM     12  C   UNL     1      48.935  15.135  21.549  0.00  0.00    +0.000 C 
BRANCH  12  11
ATOM     11  C   UNL     1      49.062  16.242  20.503  0.00  0.00    +0.000 C 
BRANCH  11  10
ATOM     10  C   UNL     1      50.389  16.979  20.697  0.00  0.00    -0.000 C 
BRANCH  10   9
ATOM      9  C   UNL     1      50.831  17.593  19.367  0.00  0.00    +0.000 C 
BRANCH   9   8
ATOM      8  C   UNL     1      49.610  17.789  18.465  0.00  0.00    -0.000 C 
BRANCH   8   7
ATOM      7  C   UNL     1      50.049  17.759  17.000  0.00  0.00    +0.000 C 
BRANCH   7   6
ATOM      6  C   UNL     1      51.556  18.012  16.914  0.00  0.00    +0.000 C 
BRANCH   6   5
ATOM      5  C   UNL     1      51.854  18.912  15.714  0.00  0.00    +0.000 C 
BRANCH   5   4
ATOM      4  C   UNL     1      52.093  20.344  16.198  0.00  0.00    -0.000 C 
BRANCH   4   3
ATOM      3  C   UNL     1      52.475  20.324  17.680  0.00  0.00    -0.000 C 
BRANCH   3   2
ATOM      1  C   UNL     1      52.044  21.453  19.868  0.00  0.00    +0.006 C 
ATOM      2  C   UNL     1      51.478  21.171  18.474  0.00  0.00    -0.006 C 
ENDBRANCH   3   2
ENDBRANCH   4   3
ENDBRANCH   5   4
ENDBRANCH   6   5
ENDBRANCH   7   6
ENDBRANCH   8   7
ENDBRANCH   9   8
ENDBRANCH  10   9
ENDBRANCH  11  10
ENDBRANCH  12  11
ENDBRANCH  13  12
ENDBRANCH  14  13
ENDBRANCH  15  14
ENDBRANCH  16  15
ENDBRANCH  17  16
ENDBRANCH  18  17
ENDBRANCH  19  18
ENDBRANCH  21  20
BRANCH  21  22
ATOM     22  O   UNL     1      52.538  13.797  13.408  0.00  0.00    -0.525 OA
ATOM     23  H   UNL     1      52.069  14.452  12.873  0.00  0.00    +0.366 HD
ENDBRANCH  21  22
ENDBRANCH  24  21
BRANCH  24  51
ATOM     51  C   UNL     1      50.495  13.159  12.076  0.00  0.00    +0.171 C 
BRANCH  51  52
ATOM     52  O   UNL     1      51.457  12.456  11.287  0.00  0.00    -0.551 OA
ATOM     53  H   UNL     1      52.002  13.027  10.730  0.00  0.00    +0.375 HD
ENDBRANCH  51  52
ENDBRANCH  24  51
TORSDOF 42
ENDMDL
MODEL 6
REMARK VINA RESULT:      -3.9      3.287      7.505
REMARK  Name = ZINC95485913
REMARK  45 active torsions:
REMARK  status: ('A' for Active; 'I' for Inactive)
REMARK    1  A    between atoms: C1_1  and  C2_2
REMARK    2  A    between atoms: C2_2  and  C3_3
REMARK    3  A    between atoms: C3_3  and  C4_4
REMARK    4  A    between atoms: C4_4  and  C5_5
REMARK    5  A    between atoms: C5_5  and  C6_6
REMARK    6  A    between atoms: C6_6  and  C7_7
REMARK    7  A    between atoms: C7_7  and  C8_8
REMARK    8  A    between atoms: C8_8  and  C9_9
REMARK    9  A    between atoms: C9_9  and  C10_10
REMARK   10  A    between atoms: C10_10  and  C11_11
REMARK   11  A    between atoms: C11_11  and  C12_12
REMARK   12  A    between atoms: C12_12  and  C13_13
REMARK   13  A    between atoms: C13_13  and  C14_14
REMARK   14  A    between atoms: C14_14  and  C15_15
REMARK   15  A    between atoms: C15_15  and  C16_16
REMARK   16  A    between atoms: C16_16  and  C17_17
REMARK   17  A    between atoms: C17_17  and  C18_18
REMARK   18  A    between atoms: C18_18  and  C19_19
REMARK   19  A    between atoms: C20_20  and  C21_21
REMARK   20  A    between atoms: C21_21  and  C22_22
REMARK   21  A    between atoms: C21_21  and  C23_23
REMARK   22  A    between atoms: C21_21  and  O4_52
REMARK   23  A    between atoms: C23_23  and  C24_25
REMARK   24  A    between atoms: C23_23  and  N1_27
REMARK   25  A    between atoms: C24_25  and  O1_26
REMARK   26  A    between atoms: C25_28  and  C26_30
REMARK   27  A    between atoms: C26_30  and  C27_32
REMARK   28  A    between atoms: C26_30  and  O3_51
REMARK   29  A    between atoms: C28_33  and  C29_34
REMARK   30  A    between atoms: C29_34  and  C30_35
REMARK   31  A    between atoms: C30_35  and  C31_36
REMARK   32  A    between atoms: C31_36  and  C32_37
REMARK   33  A    between atoms: C32_37  and  C33_38
REMARK   34  A    between atoms: C33_38  and  C34_39
REMARK   35  A    between atoms: C34_39  and  C35_40
REMARK   36  A    between atoms: C35_40  and  C36_41
REMARK   37  A    between atoms: C36_41  and  C37_42
REMARK   38  A    between atoms: C37_42  and  C38_43
REMARK   39  A    between atoms: C38_43  and  C39_44
REMARK   40  A    between atoms: C39_44  and  C40_45
REMARK   41  A    between atoms: C40_45  and  C41_46
REMARK   42  A    between atoms: C41_46  and  C42_47
REMARK   43  A    between atoms: C42_47  and  C43_48
REMARK   44  A    between atoms: C43_48  and  C44_49
REMARK   45  A    between atoms: C44_49  and  C45_50
REMARK                            x       y       z     vdW  Elec       q    Type
REMARK                         _______ _______ _______ _____ _____    ______ ____
ROOT
ATOM     24  CA  UNL     1      52.123  19.191  17.482  0.00  0.00    +0.232 C 
ENDROOT
BRANCH  24  25
ATOM     25  N   UNL     1      51.478  18.186  18.333  0.00  0.00    -0.708 N 
ATOM     26  H   UNL     1      50.512  18.148  18.389  0.00  0.00    +0.398 HD
ATOM     27  C   UNL     1      52.231  17.317  19.037  0.00  0.00    +0.493 C 
ATOM     50  O   UNL     1      53.439  17.367  18.966  0.00  0.00    -0.532 OA
BRANCH  27  28
ATOM     28  C   UNL     1      51.568  16.285  19.912  0.00  0.00    +0.252 C 
BRANCH  28  29
ATOM     29  O   UNL     1      51.765  16.628  21.285  0.00  0.00    -0.531 OA
ATOM     30  H   UNL     1      51.751  15.870  21.885  0.00  0.00    +0.385 HD
ENDBRANCH  28  29
BRANCH  28  31
ATOM     31  C   UNL     1      50.091  16.244  19.611  0.00  0.00    -0.085 C 
ATOM     32  C   UNL     1      49.380  15.202  19.961  0.00  0.00    -0.001 C 
BRANCH  32  33
ATOM     33  C   UNL     1      47.904  15.161  19.660  0.00  0.00    +0.048 C 
BRANCH  33  34
ATOM     34  C   UNL     1      47.138  14.747  20.918  0.00  0.00    +0.013 C 
BRANCH  34  35
ATOM     35  C   UNL     1      45.885  13.965  20.519  0.00  0.00    +0.001 C 
BRANCH  35  36
ATOM     36  C   UNL     1      45.792  13.896  18.993  0.00  0.00    +0.003 C 
BRANCH  36  37
ATOM     37  C   UNL     1      44.751  12.849  18.592  0.00  0.00    -0.000 C 
BRANCH  37  38
ATOM     38  C   UNL     1      45.045  12.354  17.175  0.00  0.00    +0.001 C 
BRANCH  38  39
ATOM     39  C   UNL     1      46.523  12.577  16.853  0.00  0.00    -0.000 C 
BRANCH  39  40
ATOM     40  C   UNL     1      47.141  11.267  16.359  0.00  0.00    +0.000 C 
BRANCH  40  41
ATOM     41  C   UNL     1      47.616  11.440  14.915  0.00  0.00    +0.000 C 
BRANCH  41  42
ATOM     42  C   UNL     1      48.302  12.798  14.761  0.00  0.00    -0.000 C 
BRANCH  42  43
ATOM     43  C   UNL     1      49.708  12.598  14.189  0.00  0.00    +0.000 C 
BRANCH  43  44
ATOM     44  C   UNL     1      50.725  13.322  15.074  0.00  0.00    -0.000 C 
BRANCH  44  45
ATOM     45  C   UNL     1      50.119  13.557  16.459  0.00  0.00    +0.000 C 
BRANCH  45  46
ATOM     46  C   UNL     1      51.053  12.986  17.528  0.00  0.00    -0.000 C 
BRANCH  46  47
ATOM     47  C   UNL     1      50.511  11.641  18.014  0.00  0.00    -0.000 C 
BRANCH  47  48
ATOM     48  C   UNL     1      50.192  11.729  19.508  0.00  0.00    -0.006 C 
ATOM     49  C   UNL     1      48.691  11.522  19.721  0.00  0.00    +0.006 C 
ENDBRANCH  47  48
ENDBRANCH  46  47
ENDBRANCH  45  46
ENDBRANCH  44  45
ENDBRANCH  43  44
ENDBRANCH  42  43
ENDBRANCH  41  42
ENDBRANCH  40  41
ENDBRANCH  39  40
ENDBRANCH  38  39
ENDBRANCH  37  38
ENDBRANCH  36  37
ENDBRANCH  35  36
ENDBRANCH  34  35
ENDBRANCH  33  34
ENDBRANCH  32  33
ENDBRANCH  28  31
ENDBRANCH  27  28
ENDBRANCH  24  25
BRANCH  24  21
ATOM     21  C   UNL     1      51.669  20.588  17.910  0.00  0.00    +0.165 C 
ATOM     54  C   UNL     1      52.534  21.070  19.076  0.00  0.00    +0.076 C 
BRANCH  21  20
ATOM     19  C   UNL     1      49.900  20.842  19.572  0.00  0.00    -0.023 C 
ATOM     20  C   UNL     1      50.226  20.538  18.341  0.00  0.00    -0.080 C 
BRANCH  19  18
ATOM     18  C   UNL     1      48.457  20.791  20.005  0.00  0.00    +0.045 C 
BRANCH  18  17
ATOM     17  C   UNL     1      47.644  20.000  18.979  0.00  0.00    +0.010 C 
BRANCH  17  16
ATOM     16  C   UNL     1      47.073  18.744  19.639  0.00  0.00    +0.002 C 
BRANCH  16  15
ATOM     15  C   UNL     1      45.989  18.143  18.742  0.00  0.00    +0.001 C 
BRANCH  15  14
ATOM     14  C   UNL     1      44.919  17.478  19.609  0.00  0.00    +0.001 C 
BRANCH  14  13
ATOM     13  C   UNL     1      45.150  17.846  21.076  0.00  0.00    +0.000 C 
BRANCH  13  12
ATOM     12  C   UNL     1      43.951  17.392  21.911  0.00  0.00    +0.000 C 
BRANCH  12  11
ATOM     11  C   UNL     1      42.961  18.549  22.053  0.00  0.00    +0.000 C 
BRANCH  11  10
ATOM     10  C   UNL     1      41.573  18.091  21.597  0.00  0.00    -0.000 C 
BRANCH  10   9
ATOM      9  C   UNL     1      40.842  19.262  20.938  0.00  0.00    +0.000 C 
BRANCH   9   8
ATOM      8  C   UNL     1      41.304  19.399  19.485  0.00  0.00    -0.000 C 
BRANCH   8   7
ATOM      7  C   UNL     1      40.961  20.799  18.971  0.00  0.00    +0.000 C 
BRANCH   7   6
ATOM      6  C   UNL     1      42.166  21.722  19.165  0.00  0.00    +0.000 C 
BRANCH   6   5
ATOM      5  C   UNL     1      43.454  20.899  19.099  0.00  0.00    +0.000 C 
BRANCH   5   4
ATOM      4  C   UNL     1      44.393  21.331  20.227  0.00  0.00    -0.000 C 
BRANCH   4   3
ATOM      3  C   UNL     1      45.043  22.669  19.867  0.00  0.00    -0.000 C 
BRANCH   3   2
ATOM      1  C   UNL     1      45.932  22.269  22.168  0.00  0.00    +0.006 C 
ATOM      2  C   UNL     1      45.567  23.340  21.138  0.00  0.00    -0.006 C 
ENDBRANCH   3   2
ENDBRANCH   4   3
ENDBRANCH   5   4
ENDBRANCH   6   5
ENDBRANCH   7   6
ENDBRANCH   8   7
ENDBRANCH   9   8
ENDBRANCH  10   9
ENDBRANCH  11  10
ENDBRANCH  12  11
ENDBRANCH  13  12
ENDBRANCH  14  13
ENDBRANCH  15  14
ENDBRANCH  16  15
ENDBRANCH  17  16
ENDBRANCH  18  17
ENDBRANCH  19  18
ENDBRANCH  21  20
BRANCH  21  22
ATOM     22  O   UNL     1      51.806  21.491  16.810  0.00  0.00    -0.525 OA
ATOM     23  H   UNL     1      51.670  22.419  17.043  0.00  0.00    +0.366 HD
ENDBRANCH  21  22
ENDBRANCH  24  21
BRANCH  24  51
ATOM     51  C   UNL     1      51.731  18.950  16.023  0.00  0.00    +0.171 C 
BRANCH  51  52
ATOM     52  O   UNL     1      52.270  17.702  15.584  0.00  0.00    -0.551 OA
ATOM     53  H   UNL     1      51.974  17.433  14.705  0.00  0.00    +0.375 HD
ENDBRANCH  51  52
ENDBRANCH  24  51
TORSDOF 42
ENDMDL
MODEL 7
REMARK VINA RESULT:      -3.8      4.148      9.854
REMARK  Name = ZINC95485913
REMARK  45 active torsions:
REMARK  status: ('A' for Active; 'I' for Inactive)
REMARK    1  A    between atoms: C1_1  and  C2_2
REMARK    2  A    between atoms: C2_2  and  C3_3
REMARK    3  A    between atoms: C3_3  and  C4_4
REMARK    4  A    between atoms: C4_4  and  C5_5
REMARK    5  A    between atoms: C5_5  and  C6_6
REMARK    6  A    between atoms: C6_6  and  C7_7
REMARK    7  A    between atoms: C7_7  and  C8_8
REMARK    8  A    between atoms: C8_8  and  C9_9
REMARK    9  A    between atoms: C9_9  and  C10_10
REMARK   10  A    between atoms: C10_10  and  C11_11
REMARK   11  A    between atoms: C11_11  and  C12_12
REMARK   12  A    between atoms: C12_12  and  C13_13
REMARK   13  A    between atoms: C13_13  and  C14_14
REMARK   14  A    between atoms: C14_14  and  C15_15
REMARK   15  A    between atoms: C15_15  and  C16_16
REMARK   16  A    between atoms: C16_16  and  C17_17
REMARK   17  A    between atoms: C17_17  and  C18_18
REMARK   18  A    between atoms: C18_18  and  C19_19
REMARK   19  A    between atoms: C20_20  and  C21_21
REMARK   20  A    between atoms: C21_21  and  C22_22
REMARK   21  A    between atoms: C21_21  and  C23_23
REMARK   22  A    between atoms: C21_21  and  O4_52
REMARK   23  A    between atoms: C23_23  and  C24_25
REMARK   24  A    between atoms: C23_23  and  N1_27
REMARK   25  A    between atoms: C24_25  and  O1_26
REMARK   26  A    between atoms: C25_28  and  C26_30
REMARK   27  A    between atoms: C26_30  and  C27_32
REMARK   28  A    between atoms: C26_30  and  O3_51
REMARK   29  A    between atoms: C28_33  and  C29_34
REMARK   30  A    between atoms: C29_34  and  C30_35
REMARK   31  A    between atoms: C30_35  and  C31_36
REMARK   32  A    between atoms: C31_36  and  C32_37
REMARK   33  A    between atoms: C32_37  and  C33_38
REMARK   34  A    between atoms: C33_38  and  C34_39
REMARK   35  A    between atoms: C34_39  and  C35_40
REMARK   36  A    between atoms: C35_40  and  C36_41
REMARK   37  A    between atoms: C36_41  and  C37_42
REMARK   38  A    between atoms: C37_42  and  C38_43
REMARK   39  A    between atoms: C38_43  and  C39_44
REMARK   40  A    between atoms: C39_44  and  C40_45
REMARK   41  A    between atoms: C40_45  and  C41_46
REMARK   42  A    between atoms: C41_46  and  C42_47
REMARK   43  A    between atoms: C42_47  and  C43_48
REMARK   44  A    between atoms: C43_48  and  C44_49
REMARK   45  A    between atoms: C44_49  and  C45_50
REMARK                            x       y       z     vdW  Elec       q    Type
REMARK                         _______ _______ _______ _____ _____    ______ ____
ROOT
ATOM     24  CA  UNL     1      50.191  12.726  14.773  0.00  0.00    +0.232 C 
ENDROOT
BRANCH  24  25
ATOM     25  N   UNL     1      50.838  12.071  15.914  0.00  0.00    -0.708 N 
ATOM     26  H   UNL     1      50.891  11.104  15.951  0.00  0.00    +0.398 HD
ATOM     27  C   UNL     1      51.360  12.815  16.910  0.00  0.00    +0.493 C 
ATOM     50  O   UNL     1      51.293  14.024  16.863  0.00  0.00    -0.532 OA
BRANCH  27  28
ATOM     28  C   UNL     1      52.025  12.141  18.083  0.00  0.00    +0.252 C 
BRANCH  28  29
ATOM     29  O   UNL     1      53.210  11.477  17.640  0.00  0.00    -0.531 OA
ATOM     30  H   UNL     1      53.205  10.521  17.790  0.00  0.00    +0.385 HD
ENDBRANCH  28  29
BRANCH  28  31
ATOM     31  C   UNL     1      52.386  13.175  19.118  0.00  0.00    -0.085 C 
ATOM     32  C   UNL     1      53.644  13.449  19.360  0.00  0.00    -0.001 C 
BRANCH  32  33
ATOM     33  C   UNL     1      54.005  14.483  20.395  0.00  0.00    +0.048 C 
BRANCH  33  34
ATOM     34  C   UNL     1      52.910  15.549  20.455  0.00  0.00    +0.013 C 
BRANCH  34  35
ATOM     35  C   UNL     1      53.292  16.723  19.552  0.00  0.00    +0.001 C 
BRANCH  35  36
ATOM     36  C   UNL     1      52.022  17.401  19.033  0.00  0.00    +0.003 C 
BRANCH  36  37
ATOM     37  C   UNL     1      51.903  17.175  17.524  0.00  0.00    -0.000 C 
BRANCH  37  38
ATOM     38  C   UNL     1      50.950  18.212  16.927  0.00  0.00    +0.001 C 
BRANCH  38  39
ATOM     39  C   UNL     1      51.584  18.828  15.679  0.00  0.00    -0.000 C 
BRANCH  39  40
ATOM     40  C   UNL     1      52.258  20.150  16.050  0.00  0.00    +0.000 C 
BRANCH  40  41
ATOM     41  C   UNL     1      51.404  20.887  17.084  0.00  0.00    +0.000 C 
BRANCH  41  42
ATOM     42  C   UNL     1      52.189  21.027  18.389  0.00  0.00    -0.000 C 
BRANCH  42  43
ATOM     43  C   UNL     1      51.222  21.324  19.537  0.00  0.00    +0.000 C 
BRANCH  43  44
ATOM     44  C   UNL     1      49.835  20.781  19.186  0.00  0.00    -0.000 C 
BRANCH  44  45
ATOM     45  C   UNL     1      49.461  19.669  20.168  0.00  0.00    +0.000 C 
BRANCH  45  46
ATOM     46  C   UNL     1      48.007  19.847  20.613  0.00  0.00    -0.000 C 
BRANCH  46  47
ATOM     47  C   UNL     1      47.787  21.290  21.071  0.00  0.00    -0.000 C 
BRANCH  47  48
ATOM     48  C   UNL     1      46.299  21.516  21.345  0.00  0.00    -0.006 C 
ATOM     49  C   UNL     1      45.643  22.142  20.114  0.00  0.00    +0.006 C 
ENDBRANCH  47  48
ENDBRANCH  46  47
ENDBRANCH  45  46
ENDBRANCH  44  45
ENDBRANCH  43  44
ENDBRANCH  42  43
ENDBRANCH  41  42
ENDBRANCH  40  41
ENDBRANCH  39  40
ENDBRANCH  38  39
ENDBRANCH  37  38
ENDBRANCH  36  37
ENDBRANCH  35  36
ENDBRANCH  34  35
ENDBRANCH  33  34
ENDBRANCH  32  33
ENDBRANCH  28  31
ENDBRANCH  27  28
ENDBRANCH  24  25
BRANCH  24  21
ATOM     21  C   UNL     1      48.809  12.108  14.549  0.00  0.00    +0.165 C 
ATOM     54  C   UNL     1      48.085  12.871  13.438  0.00  0.00    +0.076 C 
BRANCH  21  20
ATOM     19  C   UNL     1      46.937  11.454  15.972  0.00  0.00    -0.023 C 
ATOM     20  C   UNL     1      48.007  12.194  15.822  0.00  0.00    -0.080 C 
BRANCH  19  18
ATOM     18  C   UNL     1      46.134  11.540  17.245  0.00  0.00    +0.045 C 
BRANCH  18  17
ATOM     17  C   UNL     1      45.936  13.007  17.626  0.00  0.00    +0.010 C 
BRANCH  17  16
ATOM     16  C   UNL     1      45.071  13.095  18.885  0.00  0.00    +0.002 C 
BRANCH  16  15
ATOM     15  C   UNL     1      45.700  14.084  19.869  0.00  0.00    +0.001 C 
BRANCH  15  14
ATOM     14  C   UNL     1      47.219  14.088  19.688  0.00  0.00    +0.001 C 
BRANCH  14  13
ATOM     13  C   UNL     1      47.818  15.286  20.428  0.00  0.00    +0.000 C 
BRANCH  13  12
ATOM     12  C   UNL     1      48.446  16.248  19.418  0.00  0.00    +0.000 C 
BRANCH  12  11
ATOM     11  C   UNL     1      48.395  15.627  18.022  0.00  0.00    +0.000 C 
BRANCH  11  10
ATOM     10  C   UNL     1      47.714  16.598  17.055  0.00  0.00    -0.000 C 
BRANCH  10   9
ATOM      9  C   UNL     1      46.310  16.927  17.567  0.00  0.00    +0.000 C 
BRANCH   9   8
ATOM      8  C   UNL     1      46.174  18.440  17.747  0.00  0.00    -0.000 C 
BRANCH   8   7
ATOM      7  C   UNL     1      45.125  18.733  18.823  0.00  0.00    +0.000 C 
BRANCH   7   6
ATOM      6  C   UNL     1      44.855  17.461  19.630  0.00  0.00    +0.000 C 
BRANCH   6   5
ATOM      5  C   UNL     1      43.978  17.800  20.836  0.00  0.00    +0.000 C 
BRANCH   5   4
ATOM      4  C   UNL     1      43.448  19.229  20.695  0.00  0.00    -0.000 C 
BRANCH   4   3
ATOM      3  C   UNL     1      41.918  19.208  20.694  0.00  0.00    -0.000 C 
BRANCH   3   2
ATOM      1  C   UNL     1      40.535  20.741  19.287  0.00  0.00    +0.006 C 
ATOM      2  C   UNL     1      41.405  19.483  19.279  0.00  0.00    -0.006 C 
ENDBRANCH   3   2
ENDBRANCH   4   3
ENDBRANCH   5   4
ENDBRANCH   6   5
ENDBRANCH   7   6
ENDBRANCH   8   7
ENDBRANCH   9   8
ENDBRANCH  10   9
ENDBRANCH  11  10
ENDBRANCH  12  11
ENDBRANCH  13  12
ENDBRANCH  14  13
ENDBRANCH  15  14
ENDBRANCH  16  15
ENDBRANCH  17  16
ENDBRANCH  18  17
ENDBRANCH  19  18
ENDBRANCH  21  20
BRANCH  21  22
ATOM     22  O   UNL     1      48.956  10.738  14.169  0.00  0.00    -0.525 OA
ATOM     23  H   UNL     1      49.515  10.222  14.765  0.00  0.00    +0.366 HD
ENDBRANCH  21  22
ENDBRANCH  24  21
BRANCH  24  51
ATOM     51  C   UNL     1      51.047  12.531  13.521  0.00  0.00    +0.171 C 
BRANCH  51  52
ATOM     52  O   UNL     1      51.842  11.352  13.665  0.00  0.00    -0.551 OA
ATOM     53  H   UNL     1      52.367  11.134  12.884  0.00  0.00    +0.375 HD
ENDBRANCH  51  52
ENDBRANCH  24  51
TORSDOF 42
ENDMDL
MODEL 8
REMARK VINA RESULT:      -3.8      1.595      3.187
REMARK  Name = ZINC95485913
REMARK  45 active torsions:
REMARK  status: ('A' for Active; 'I' for Inactive)
REMARK    1  A    between atoms: C1_1  and  C2_2
REMARK    2  A    between atoms: C2_2  and  C3_3
REMARK    3  A    between atoms: C3_3  and  C4_4
REMARK    4  A    between atoms: C4_4  and  C5_5
REMARK    5  A    between atoms: C5_5  and  C6_6
REMARK    6  A    between atoms: C6_6  and  C7_7
REMARK    7  A    between atoms: C7_7  and  C8_8
REMARK    8  A    between atoms: C8_8  and  C9_9
REMARK    9  A    between atoms: C9_9  and  C10_10
REMARK   10  A    between atoms: C10_10  and  C11_11
REMARK   11  A    between atoms: C11_11  and  C12_12
REMARK   12  A    between atoms: C12_12  and  C13_13
REMARK   13  A    between atoms: C13_13  and  C14_14
REMARK   14  A    between atoms: C14_14  and  C15_15
REMARK   15  A    between atoms: C15_15  and  C16_16
REMARK   16  A    between atoms: C16_16  and  C17_17
REMARK   17  A    between atoms: C17_17  and  C18_18
REMARK   18  A    between atoms: C18_18  and  C19_19
REMARK   19  A    between atoms: C20_20  and  C21_21
REMARK   20  A    between atoms: C21_21  and  C22_22
REMARK   21  A    between atoms: C21_21  and  C23_23
REMARK   22  A    between atoms: C21_21  and  O4_52
REMARK   23  A    between atoms: C23_23  and  C24_25
REMARK   24  A    between atoms: C23_23  and  N1_27
REMARK   25  A    between atoms: C24_25  and  O1_26
REMARK   26  A    between atoms: C25_28  and  C26_30
REMARK   27  A    between atoms: C26_30  and  C27_32
REMARK   28  A    between atoms: C26_30  and  O3_51
REMARK   29  A    between atoms: C28_33  and  C29_34
REMARK   30  A    between atoms: C29_34  and  C30_35
REMARK   31  A    between atoms: C30_35  and  C31_36
REMARK   32  A    between atoms: C31_36  and  C32_37
REMARK   33  A    between atoms: C32_37  and  C33_38
REMARK   34  A    between atoms: C33_38  and  C34_39
REMARK   35  A    between atoms: C34_39  and  C35_40
REMARK   36  A    between atoms: C35_40  and  C36_41
REMARK   37  A    between atoms: C36_41  and  C37_42
REMARK   38  A    between atoms: C37_42  and  C38_43
REMARK   39  A    between atoms: C38_43  and  C39_44
REMARK   40  A    between atoms: C39_44  and  C40_45
REMARK   41  A    between atoms: C40_45  and  C41_46
REMARK   42  A    between atoms: C41_46  and  C42_47
REMARK   43  A    between atoms: C42_47  and  C43_48
REMARK   44  A    between atoms: C43_48  and  C44_49
REMARK   45  A    between atoms: C44_49  and  C45_50
REMARK                            x       y       z     vdW  Elec       q    Type
REMARK                         _______ _______ _______ _____ _____    ______ ____
ROOT
ATOM     24  CA  UNL     1      44.595  22.872  19.679  0.00  0.00    +0.232 C 
ENDROOT
BRANCH  24  25
ATOM     25  N   UNL     1      43.306  22.188  19.821  0.00  0.00    -0.708 N 
ATOM     26  H   UNL     1      42.578  22.620  20.291  0.00  0.00    +0.398 HD
ATOM     27  C   UNL     1      43.137  20.957  19.299  0.00  0.00    +0.493 C 
ATOM     50  O   UNL     1      44.049  20.416  18.712  0.00  0.00    -0.532 OA
BRANCH  27  28
ATOM     28  C   UNL     1      41.812  20.253  19.445  0.00  0.00    +0.252 C 
BRANCH  28  29
ATOM     29  O   UNL     1      41.243  20.037  18.153  0.00  0.00    -0.531 OA
ATOM     30  H   UNL     1      41.045  19.110  17.960  0.00  0.00    +0.385 HD
ENDBRANCH  28  29
BRANCH  28  31
ATOM     31  C   UNL     1      42.020  18.927  20.131  0.00  0.00    -0.085 C 
ATOM     32  C   UNL     1      42.452  18.889  21.367  0.00  0.00    -0.001 C 
BRANCH  32  33
ATOM     33  C   UNL     1      42.659  17.563  22.053  0.00  0.00    +0.048 C 
BRANCH  33  34
ATOM     34  C   UNL     1      44.158  17.285  22.183  0.00  0.00    +0.013 C 
BRANCH  34  35
ATOM     35  C   UNL     1      44.511  16.018  21.402  0.00  0.00    +0.001 C 
BRANCH  35  36
ATOM     36  C   UNL     1      45.173  16.403  20.078  0.00  0.00    +0.003 C 
BRANCH  36  37
ATOM     37  C   UNL     1      46.524  17.065  20.356  0.00  0.00    -0.000 C 
BRANCH  37  38
ATOM     38  C   UNL     1      47.005  17.792  19.099  0.00  0.00    +0.001 C 
BRANCH  38  39
ATOM     39  C   UNL     1      48.444  17.375  18.787  0.00  0.00    -0.000 C 
BRANCH  39  40
ATOM     40  C   UNL     1      48.552  16.978  17.314  0.00  0.00    +0.000 C 
BRANCH  40  41
ATOM     41  C   UNL     1      47.999  15.565  17.123  0.00  0.00    +0.000 C 
BRANCH  41  42
ATOM     42  C   UNL     1      48.602  14.634  18.176  0.00  0.00    -0.000 C 
BRANCH  42  43
ATOM     43  C   UNL     1      47.535  13.648  18.657  0.00  0.00    +0.000 C 
BRANCH  43  44
ATOM     44  C   UNL     1      46.252  13.854  17.848  0.00  0.00    -0.000 C 
BRANCH  44  45
ATOM     45  C   UNL     1      45.900  12.559  17.114  0.00  0.00    +0.000 C 
BRANCH  45  46
ATOM     46  C   UNL     1      46.865  11.451  17.542  0.00  0.00    -0.000 C 
BRANCH  46  47
ATOM     47  C   UNL     1      47.466  10.790  16.301  0.00  0.00    -0.000 C 
BRANCH  47  48
ATOM     48  C   UNL     1      48.173  11.848  15.451  0.00  0.00    -0.006 C 
ATOM     49  C   UNL     1      49.345  11.206  14.707  0.00  0.00    +0.006 C 
ENDBRANCH  47  48
ENDBRANCH  46  47
ENDBRANCH  45  46
ENDBRANCH  44  45
ENDBRANCH  43  44
ENDBRANCH  42  43
ENDBRANCH  41  42
ENDBRANCH  40  41
ENDBRANCH  39  40
ENDBRANCH  38  39
ENDBRANCH  37  38
ENDBRANCH  36  37
ENDBRANCH  35  36
ENDBRANCH  34  35
ENDBRANCH  33  34
ENDBRANCH  32  33
ENDBRANCH  28  31
ENDBRANCH  27  28
ENDBRANCH  24  25
BRANCH  24  21
ATOM     21  C   UNL     1      45.215  23.082  21.062  0.00  0.00    +0.165 C 
ATOM     54  C   UNL     1      46.080  24.345  21.046  0.00  0.00    +0.076 C 
BRANCH  21  20
ATOM     19  C   UNL     1      47.288  21.798  20.945  0.00  0.00    -0.023 C 
ATOM     20  C   UNL     1      46.069  21.892  21.416  0.00  0.00    -0.080 C 
BRANCH  19  18
ATOM     18  C   UNL     1      48.142  20.608  21.299  0.00  0.00    +0.045 C 
BRANCH  18  17
ATOM     17  C   UNL     1      49.473  20.695  20.552  0.00  0.00    +0.010 C 
BRANCH  17  16
ATOM     16  C   UNL     1      49.210  20.790  19.048  0.00  0.00    +0.002 C 
BRANCH  16  15
ATOM     15  C   UNL     1      50.515  21.118  18.321  0.00  0.00    +0.001 C 
BRANCH  15  14
ATOM     14  C   UNL     1      50.964  19.906  17.503  0.00  0.00    +0.001 C 
BRANCH  14  13
ATOM     13  C   UNL     1      52.323  19.421  18.012  0.00  0.00    +0.000 C 
BRANCH  13  12
ATOM     12  C   UNL     1      52.123  18.219  18.936  0.00  0.00    +0.000 C 
BRANCH  12  11
ATOM     11  C   UNL     1      52.161  16.931  18.114  0.00  0.00    +0.000 C 
BRANCH  11  10
ATOM     10  C   UNL     1      52.627  15.773  18.999  0.00  0.00    -0.000 C 
BRANCH  10   9
ATOM      9  C   UNL     1      54.112  15.946  19.324  0.00  0.00    +0.000 C 
BRANCH   9   8
ATOM      8  C   UNL     1      54.527  14.916  20.378  0.00  0.00    -0.000 C 
BRANCH   8   7
ATOM      7  C   UNL     1      55.398  13.841  19.725  0.00  0.00    +0.000 C 
BRANCH   7   6
ATOM      6  C   UNL     1      55.632  12.702  20.719  0.00  0.00    +0.000 C 
BRANCH   6   5
ATOM      5  C   UNL     1      55.198  11.378  20.088  0.00  0.00    +0.000 C 
BRANCH   5   4
ATOM      4  C   UNL     1      54.313  11.659  18.872  0.00  0.00    -0.000 C 
BRANCH   4   3
ATOM      3  C   UNL     1      52.913  11.094  19.119  0.00  0.00    -0.000 C 
BRANCH   3   2
ATOM      1  C   UNL     1      50.558  11.404  18.342  0.00  0.00    +0.006 C 
ATOM      2  C   UNL     1      51.865  12.121  18.685  0.00  0.00    -0.006 C 
ENDBRANCH   3   2
ENDBRANCH   4   3
ENDBRANCH   5   4
ENDBRANCH   6   5
ENDBRANCH   7   6
ENDBRANCH   8   7
ENDBRANCH   9   8
ENDBRANCH  10   9
ENDBRANCH  11  10
ENDBRANCH  12  11
ENDBRANCH  13  12
ENDBRANCH  14  13
ENDBRANCH  15  14
ENDBRANCH  16  15
ENDBRANCH  17  16
ENDBRANCH  18  17
ENDBRANCH  19  18
ENDBRANCH  21  20
BRANCH  21  22
ATOM     22  O   UNL     1      44.176  23.230  22.032  0.00  0.00    -0.525 OA
ATOM     23  H   UNL     1      43.617  22.447  22.132  0.00  0.00    +0.366 HD
ENDBRANCH  21  22
ENDBRANCH  24  21
BRANCH  24  51
ATOM     51  C   UNL     1      44.380  24.228  19.004  0.00  0.00    +0.171 C 
BRANCH  51  52
ATOM     52  O   UNL     1      42.987  24.417  18.747  0.00  0.00    -0.551 OA
ATOM     53  H   UNL     1      42.410  23.836  19.260  0.00  0.00    +0.375 HD
ENDBRANCH  51  52
ENDBRANCH  24  51
TORSDOF 42
ENDMDL
MODEL 9
REMARK VINA RESULT:      -3.8      4.600      9.943
REMARK  Name = ZINC95485913
REMARK  45 active torsions:
REMARK  status: ('A' for Active; 'I' for Inactive)
REMARK    1  A    between atoms: C1_1  and  C2_2
REMARK    2  A    between atoms: C2_2  and  C3_3
REMARK    3  A    between atoms: C3_3  and  C4_4
REMARK    4  A    between atoms: C4_4  and  C5_5
REMARK    5  A    between atoms: C5_5  and  C6_6
REMARK    6  A    between atoms: C6_6  and  C7_7
REMARK    7  A    between atoms: C7_7  and  C8_8
REMARK    8  A    between atoms: C8_8  and  C9_9
REMARK    9  A    between atoms: C9_9  and  C10_10
REMARK   10  A    between atoms: C10_10  and  C11_11
REMARK   11  A    between atoms: C11_11  and  C12_12
REMARK   12  A    between atoms: C12_12  and  C13_13
REMARK   13  A    between atoms: C13_13  and  C14_14
REMARK   14  A    between atoms: C14_14  and  C15_15
REMARK   15  A    between atoms: C15_15  and  C16_16
REMARK   16  A    between atoms: C16_16  and  C17_17
REMARK   17  A    between atoms: C17_17  and  C18_18
REMARK   18  A    between atoms: C18_18  and  C19_19
REMARK   19  A    between atoms: C20_20  and  C21_21
REMARK   20  A    between atoms: C21_21  and  C22_22
REMARK   21  A    between atoms: C21_21  and  C23_23
REMARK   22  A    between atoms: C21_21  and  O4_52
REMARK   23  A    between atoms: C23_23  and  C24_25
REMARK   24  A    between atoms: C23_23  and  N1_27
REMARK   25  A    between atoms: C24_25  and  O1_26
REMARK   26  A    between atoms: C25_28  and  C26_30
REMARK   27  A    between atoms: C26_30  and  C27_32
REMARK   28  A    between atoms: C26_30  and  O3_51
REMARK   29  A    between atoms: C28_33  and  C29_34
REMARK   30  A    between atoms: C29_34  and  C30_35
REMARK   31  A    between atoms: C30_35  and  C31_36
REMARK   32  A    between atoms: C31_36  and  C32_37
REMARK   33  A    between atoms: C32_37  and  C33_38
REMARK   34  A    between atoms: C33_38  and  C34_39
REMARK   35  A    between atoms: C34_39  and  C35_40
REMARK   36  A    between atoms: C35_40  and  C36_41
REMARK   37  A    between atoms: C36_41  and  C37_42
REMARK   38  A    between atoms: C37_42  and  C38_43
REMARK   39  A    between atoms: C38_43  and  C39_44
REMARK   40  A    between atoms: C39_44  and  C40_45
REMARK   41  A    between atoms: C40_45  and  C41_46
REMARK   42  A    between atoms: C41_46  and  C42_47
REMARK   43  A    between atoms: C42_47  and  C43_48
REMARK   44  A    between atoms: C43_48  and  C44_49
REMARK   45  A    between atoms: C44_49  and  C45_50
REMARK                            x       y       z     vdW  Elec       q    Type
REMARK                         _______ _______ _______ _____ _____    ______ ____
ROOT
ATOM     24  CA  UNL     1      50.215  12.563  14.754  0.00  0.00    +0.232 C 
ENDROOT
BRANCH  24  25
ATOM     25  N   UNL     1      51.035  11.620  15.520  0.00  0.00    -0.708 N 
ATOM     26  H   UNL     1      51.048  10.682  15.278  0.00  0.00    +0.398 HD
ATOM     27  C   UNL     1      51.772  12.059  16.560  0.00  0.00    +0.493 C 
ATOM     50  O   UNL     1      51.755  13.233  16.862  0.00  0.00    -0.532 OA
BRANCH  27  28
ATOM     28  C   UNL     1      52.615  11.089  17.347  0.00  0.00    +0.252 C 
BRANCH  28  29
ATOM     29  O   UNL     1      53.517  10.419  16.465  0.00  0.00    -0.531 OA
ATOM     30  H   UNL     1      54.228   9.943  16.917  0.00  0.00    +0.385 HD
ENDBRANCH  28  29
BRANCH  28  31
ATOM     31  C   UNL     1      53.398  11.839  18.394  0.00  0.00    -0.085 C 
ATOM     32  C   UNL     1      54.451  11.288  18.944  0.00  0.00    -0.001 C 
BRANCH  32  33
ATOM     33  C   UNL     1      55.235  12.037  19.991  0.00  0.00    +0.048 C 
BRANCH  33  34
ATOM     34  C   UNL     1      54.662  13.447  20.145  0.00  0.00    +0.013 C 
BRANCH  34  35
ATOM     35  C   UNL     1      55.732  14.475  19.778  0.00  0.00    +0.001 C 
BRANCH  35  36
ATOM     36  C   UNL     1      55.131  15.881  19.840  0.00  0.00    +0.003 C 
BRANCH  36  37
ATOM     37  C   UNL     1      53.753  15.876  19.176  0.00  0.00    -0.000 C 
BRANCH  37  38
ATOM     38  C   UNL     1      52.888  16.981  19.786  0.00  0.00    +0.001 C 
BRANCH  38  39
ATOM     39  C   UNL     1      52.826  16.800  21.304  0.00  0.00    -0.000 C 
BRANCH  39  40
ATOM     40  C   UNL     1      51.787  17.757  21.890  0.00  0.00    +0.000 C 
BRANCH  40  41
ATOM     41  C   UNL     1      50.940  18.346  20.760  0.00  0.00    +0.000 C 
BRANCH  41  42
ATOM     42  C   UNL     1      50.025  19.436  21.322  0.00  0.00    -0.000 C 
BRANCH  42  43
ATOM     43  C   UNL     1      50.156  20.701  20.472  0.00  0.00    +0.000 C 
BRANCH  43  44
ATOM     44  C   UNL     1      51.088  20.425  19.290  0.00  0.00    -0.000 C 
BRANCH  44  45
ATOM     45  C   UNL     1      50.648  21.264  18.088  0.00  0.00    +0.000 C 
BRANCH  45  46
ATOM     46  C   UNL     1      51.481  20.877  16.863  0.00  0.00    -0.000 C 
BRANCH  46  47
ATOM     47  C   UNL     1      52.060  19.475  17.063  0.00  0.00    -0.000 C 
BRANCH  47  48
ATOM     48  C   UNL     1      51.796  18.632  15.814  0.00  0.00    -0.006 C 
ATOM     49  C   UNL     1      51.939  17.149  16.160  0.00  0.00    +0.006 C 
ENDBRANCH  47  48
ENDBRANCH  46  47
ENDBRANCH  45  46
ENDBRANCH  44  45
ENDBRANCH  43  44
ENDBRANCH  42  43
ENDBRANCH  41  42
ENDBRANCH  40  41
ENDBRANCH  39  40
ENDBRANCH  38  39
ENDBRANCH  37  38
ENDBRANCH  36  37
ENDBRANCH  35  36
ENDBRANCH  34  35
ENDBRANCH  33  34
ENDBRANCH  32  33
ENDBRANCH  28  31
ENDBRANCH  27  28
ENDBRANCH  24  25
BRANCH  24  21
ATOM     21  C   UNL     1      48.777  12.045  14.680  0.00  0.00    +0.165 C 
ATOM     54  C   UNL     1      47.982  12.889  13.683  0.00  0.00    +0.076 C 
BRANCH  21  20
ATOM     19  C   UNL     1      46.915  11.707  16.222  0.00  0.00    -0.023 C 
ATOM     20  C   UNL     1      48.138  12.139  16.042  0.00  0.00    -0.080 C 
BRANCH  19  18
ATOM     18  C   UNL     1      46.276  11.802  17.584  0.00  0.00    +0.045 C 
BRANCH  18  17
ATOM     17  C   UNL     1      45.764  13.226  17.809  0.00  0.00    +0.010 C 
BRANCH  17  16
ATOM     16  C   UNL     1      45.099  13.317  19.184  0.00  0.00    +0.002 C 
BRANCH  16  15
ATOM     15  C   UNL     1      45.421  14.672  19.818  0.00  0.00    +0.001 C 
BRANCH  15  14
ATOM     14  C   UNL     1      46.299  14.463  21.053  0.00  0.00    +0.001 C 
BRANCH  14  13
ATOM     13  C   UNL     1      46.678  15.821  21.646  0.00  0.00    +0.000 C 
BRANCH  13  12
ATOM     12  C   UNL     1      48.093  16.195  21.202  0.00  0.00    +0.000 C 
BRANCH  12  11
ATOM     11  C   UNL     1      48.973  14.944  21.195  0.00  0.00    +0.000 C 
BRANCH  11  10
ATOM     10  C   UNL     1      49.817  14.921  19.918  0.00  0.00    -0.000 C 
BRANCH  10   9
ATOM      9  C   UNL     1      48.968  14.404  18.755  0.00  0.00    +0.000 C 
BRANCH   9   8
ATOM      8  C   UNL     1      49.182  15.298  17.531  0.00  0.00    -0.000 C 
BRANCH   8   7
ATOM      7  C   UNL     1      48.111  16.391  17.505  0.00  0.00    +0.000 C 
BRANCH   7   6
ATOM      6  C   UNL     1      48.752  17.741  17.834  0.00  0.00    +0.000 C 
BRANCH   6   5
ATOM      5  C   UNL     1      47.731  18.630  18.546  0.00  0.00    +0.000 C 
BRANCH   5   4
ATOM      4  C   UNL     1      46.334  18.026  18.390  0.00  0.00    -0.000 C 
BRANCH   4   3
ATOM      3  C   UNL     1      45.294  19.148  18.365  0.00  0.00    -0.000 C 
BRANCH   3   2
ATOM      1  C   UNL     1      44.898  21.463  19.219  0.00  0.00    +0.006 C 
ATOM      2  C   UNL     1      45.962  20.471  18.744  0.00  0.00    -0.006 C 
ENDBRANCH   3   2
ENDBRANCH   4   3
ENDBRANCH   5   4
ENDBRANCH   6   5
ENDBRANCH   7   6
ENDBRANCH   8   7
ENDBRANCH   9   8
ENDBRANCH  10   9
ENDBRANCH  11  10
ENDBRANCH  12  11
ENDBRANCH  13  12
ENDBRANCH  14  13
ENDBRANCH  15  14
ENDBRANCH  16  15
ENDBRANCH  17  16
ENDBRANCH  18  17
ENDBRANCH  19  18
ENDBRANCH  21  20
BRANCH  21  22
ATOM     22  O   UNL     1      48.784  10.682  14.251  0.00  0.00    -0.525 OA
ATOM     23  H   UNL     1      49.401  10.500  13.528  0.00  0.00    +0.366 HD
ENDBRANCH  21  22
ENDBRANCH  24  21
BRANCH  24  51
ATOM     51  C   UNL     1      50.782  12.700  13.340  0.00  0.00    +0.171 C 
BRANCH  51  52
ATOM     52  O   UNL     1      51.826  11.743  13.150  0.00  0.00    -0.551 OA
ATOM     53  H   UNL     1      52.326  11.863  12.332  0.00  0.00    +0.375 HD
ENDBRANCH  51  52
ENDBRANCH  24  51
TORSDOF 42
ENDMDL
