MODEL 1
REMARK VINA RESULT:      -6.2      0.000      0.000
REMARK  Name = ZINC95486182
REMARK  19 active torsions:
REMARK  status: ('A' for Active; 'I' for Inactive)
REMARK    1  A    between atoms: C1_1  and  C2_2
REMARK    2  A    between atoms: C5_5  and  C36_45
REMARK    3  A    between atoms: C7_7  and  C13_15
REMARK    4  A    between atoms: C8_8  and  O2_14
REMARK    5  A    between atoms: C10_10  and  O1_12
REMARK    6  A    between atoms: O1_12  and  C12_13
REMARK    7  A    between atoms: C15_17  and  C25_29
REMARK    8  A    between atoms: C18_20  and  C24_28
REMARK    9  A    between atoms: C20_22  and  O4_26
REMARK   10  A    between atoms: C22_24  and  O3_25
REMARK   11  A    between atoms: O4_26  and  C23_27
REMARK   12  A    between atoms: C29_33  and  O6_36
REMARK   13  A    between atoms: C30_34  and  O5_35
REMARK   14  A    between atoms: C31_37  and  C35_44
REMARK   15  A    between atoms: C32_40  and  C34_43
REMARK   16  A    between atoms: C37_46  and  O8_60
REMARK   17  A    between atoms: C39_48  and  O7_59
REMARK   18  A    between atoms: C43_52  and  C46_58
REMARK   19  A    between atoms: C44_55  and  C45_57
REMARK                            x       y       z     vdW  Elec       q    Type
REMARK                         _______ _______ _______ _____ _____    ______ ____
ROOT
ATOM      1  C   UNL     1      46.985  22.342  22.440  0.00  0.00    +0.097 C 
ATOM      2  C   UNL     1      47.680  21.135  21.866  0.00  0.00    -0.010 A 
ATOM      3  C   UNL     1      46.968  19.995  21.640  0.00  0.00    -0.047 A 
ATOM      4  C   UNL     1      47.604  18.866  21.106  0.00  0.00    +0.032 A 
ATOM      5  C   UNL     1      46.883  17.670  20.862  0.00  0.00    -0.078 A 
ATOM     24  C   UNL     1      47.533  16.572  20.336  0.00  0.00    +0.067 A 
ATOM     25  C   UNL     1      48.901  16.627  20.039  0.00  0.00    -0.105 A 
ATOM     59  C   UNL     1      49.629  17.789  20.269  0.00  0.00    +0.207 A 
ATOM     62  C   UNL     1      48.986  18.920  20.806  0.00  0.00    -0.109 A 
ATOM     63  C   UNL     1      49.699  20.112  21.049  0.00  0.00    +0.172 A 
ATOM     66  C   UNL     1      49.038  21.203  21.569  0.00  0.00    -0.094 A 
ENDROOT
BRANCH   5   6
ATOM      6  C   UNL     1      45.436  17.599  21.172  0.00  0.00    -0.056 A 
ATOM      7  C   UNL     1      44.946  16.579  21.991  0.00  0.00    +0.170 A 
ATOM     10  C   UNL     1      43.593  16.519  22.275  0.00  0.00    -0.017 A 
ATOM     11  C   UNL     1      42.733  17.467  21.747  0.00  0.00    +0.162 A 
ATOM     14  C   UNL     1      43.218  18.485  20.929  0.00  0.00    -0.162 A 
ATOM     15  C   UNL     1      42.239  19.489  20.376  0.00  0.00    +0.239 C 
ATOM     16  C   UNL     1      41.230  19.862  21.464  0.00  0.00    +0.094 C 
ATOM     17  N   UNL     1      42.939  20.708  19.946  0.00  0.00    -0.504 N 
ATOM     18  H   UNL     1      42.286  21.326  19.490  0.00  0.00    +0.434 HD
ATOM     19  H   UNL     1      43.347  21.171  20.744  0.00  0.00    +0.427 HD
ATOM     20  C   UNL     1      44.001  20.330  19.000  0.00  0.00    +0.179 C 
ATOM     21  C   UNL     1      43.443  19.361  17.956  0.00  0.00    +0.090 C 
ATOM     22  C   UNL     1      45.129  19.652  19.780  0.00  0.00    +0.132 C 
ATOM     23  C   UNL     1      44.563  18.558  20.648  0.00  0.00    -0.039 A 
BRANCH   7   8
ATOM      8  O   UNL     1      45.794  15.649  22.505  0.00  0.00    -0.478 OA
ATOM      9  H   UNL     1      45.360  14.983  23.056  0.00  0.00    +0.398 HD
ENDBRANCH   7   8
BRANCH  11  12
ATOM     12  O   UNL     1      41.405  17.404  22.029  0.00  0.00    -0.488 OA
ATOM     13  H   UNL     1      41.063  16.503  22.107  0.00  0.00    +0.401 HD
ENDBRANCH  11  12
ENDBRANCH   5   6
BRANCH  25  26
ATOM     26  C   UNL     1      49.579  15.436  19.475  0.00  0.00    -0.096 A 
ATOM     27  C   UNL     1      49.151  14.909  18.250  0.00  0.00    +0.084 A 
ATOM     28  C   UNL     1      49.770  13.800  17.707  0.00  0.00    -0.079 A 
ATOM     47  C   UNL     1      50.846  13.188  18.394  0.00  0.00    +0.028 A 
ATOM     48  C   UNL     1      51.492  12.061  17.865  0.00  0.00    -0.057 A 
ATOM     49  C   UNL     1      52.526  11.487  18.541  0.00  0.00    -0.009 A 
ATOM     50  C   UNL     1      53.210  10.277  17.963  0.00  0.00    +0.097 C 
ATOM     51  C   UNL     1      52.959  12.003  19.760  0.00  0.00    -0.097 A 
ATOM     52  C   UNL     1      52.351  13.108  20.312  0.00  0.00    +0.174 A 
ATOM     55  C   UNL     1      51.278  13.721  19.633  0.00  0.00    -0.108 A 
ATOM     56  C   UNL     1      50.637  14.855  20.164  0.00  0.00    +0.198 A 
BRANCH  28  29
ATOM     29  C   UNL     1      49.308  13.252  16.411  0.00  0.00    -0.033 A 
ATOM     30  C   UNL     1      50.153  13.286  15.297  0.00  0.00    -0.068 A 
ATOM     31  C   UNL     1      49.724  12.775  14.093  0.00  0.00    -0.121 A 
ATOM     32  C   UNL     1      50.603  12.782  12.870  0.00  0.00    +0.229 C 
ATOM     33  C   UNL     1      49.764  13.157  11.647  0.00  0.00    +0.099 C 
ATOM     34  N   UNL     1      51.692  13.752  13.024  0.00  0.00    -0.503 N 
ATOM     35  H   UNL     1      51.309  14.686  13.056  0.00  0.00    +0.431 HD
ATOM     36  H   UNL     1      52.327  13.673  12.244  0.00  0.00    +0.434 HD
ATOM     37  C   UNL     1      52.410  13.471  14.276  0.00  0.00    +0.178 C 
ATOM     38  C   UNL     1      52.717  11.975  14.368  0.00  0.00    +0.087 C 
ATOM     39  C   UNL     1      48.450  12.230  13.987  0.00  0.00    +0.042 A 
ATOM     40  C   UNL     1      47.604  12.191  15.081  0.00  0.00    +0.102 A 
ATOM     43  C   UNL     1      51.524  13.890  15.450  0.00  0.00    +0.128 C 
ATOM     44  C   UNL     1      48.031  12.697  16.304  0.00  0.00    +0.128 A 
BRANCH  40  41
ATOM     41  O   UNL     1      46.361  11.655  14.963  0.00  0.00    -0.484 OA
ATOM     42  H   UNL     1      46.307  10.725  15.222  0.00  0.00    +0.405 HD
ENDBRANCH  40  41
BRANCH  44  45
ATOM     45  O   UNL     1      47.210  12.656  17.386  0.00  0.00    -0.478 OA
ATOM     46  H   UNL     1      47.224  11.812  17.859  0.00  0.00    +0.404 HD
ENDBRANCH  44  45
ENDBRANCH  28  29
BRANCH  52  53
ATOM     53  O   UNL     1      52.781  13.604  21.501  0.00  0.00    -0.292 OA
ATOM     54  C   UNL     1      54.188  13.803  21.650  0.00  0.00    +0.249 C 
ENDBRANCH  52  53
BRANCH  56  57
ATOM     57  O   UNL     1      51.047  15.378  21.348  0.00  0.00    -0.460 OA
ATOM     58  H   UNL     1      51.989  15.253  21.527  0.00  0.00    +0.386 HD
ENDBRANCH  56  57
ENDBRANCH  25  26
BRANCH  59  60
ATOM     60  O   UNL     1      50.954  17.832  19.979  0.00  0.00    -0.465 OA
ATOM     61  H   UNL     1      51.504  18.166  20.701  0.00  0.00    +0.395 HD
ENDBRANCH  59  60
BRANCH  63  64
ATOM     64  O   UNL     1      51.026  20.186  20.770  0.00  0.00    -0.291 OA
ATOM     65  C   UNL     1      51.786  21.164  21.482  0.00  0.00    +0.250 C 
ENDBRANCH  63  64
TORSDOF 11
ENDMDL
MODEL 2
REMARK VINA RESULT:      -4.7      2.886      6.772
REMARK  Name = ZINC95486182
REMARK  19 active torsions:
REMARK  status: ('A' for Active; 'I' for Inactive)
REMARK    1  A    between atoms: C1_1  and  C2_2
REMARK    2  A    between atoms: C5_5  and  C36_45
REMARK    3  A    between atoms: C7_7  and  C13_15
REMARK    4  A    between atoms: C8_8  and  O2_14
REMARK    5  A    between atoms: C10_10  and  O1_12
REMARK    6  A    between atoms: O1_12  and  C12_13
REMARK    7  A    between atoms: C15_17  and  C25_29
REMARK    8  A    between atoms: C18_20  and  C24_28
REMARK    9  A    between atoms: C20_22  and  O4_26
REMARK   10  A    between atoms: C22_24  and  O3_25
REMARK   11  A    between atoms: O4_26  and  C23_27
REMARK   12  A    between atoms: C29_33  and  O6_36
REMARK   13  A    between atoms: C30_34  and  O5_35
REMARK   14  A    between atoms: C31_37  and  C35_44
REMARK   15  A    between atoms: C32_40  and  C34_43
REMARK   16  A    between atoms: C37_46  and  O8_60
REMARK   17  A    between atoms: C39_48  and  O7_59
REMARK   18  A    between atoms: C43_52  and  C46_58
REMARK   19  A    between atoms: C44_55  and  C45_57
REMARK                            x       y       z     vdW  Elec       q    Type
REMARK                         _______ _______ _______ _____ _____    ______ ____
ROOT
ATOM      1  C   UNL     1      43.047  11.766  17.183  0.00  0.00    +0.097 C 
ATOM      2  C   UNL     1      44.480  12.208  17.335  0.00  0.00    -0.010 A 
ATOM      3  C   UNL     1      44.790  13.176  18.242  0.00  0.00    -0.047 A 
ATOM      4  C   UNL     1      46.119  13.596  18.393  0.00  0.00    +0.032 A 
ATOM      5  C   UNL     1      46.464  14.601  19.331  0.00  0.00    -0.078 A 
ATOM     24  C   UNL     1      47.781  14.996  19.459  0.00  0.00    +0.067 A 
ATOM     25  C   UNL     1      48.781  14.413  18.670  0.00  0.00    -0.105 A 
ATOM     59  C   UNL     1      48.466  13.426  17.745  0.00  0.00    +0.207 A 
ATOM     62  C   UNL     1      47.131  13.008  17.597  0.00  0.00    -0.109 A 
ATOM     63  C   UNL     1      46.782  12.008  16.665  0.00  0.00    +0.172 A 
ATOM     66  C   UNL     1      45.466  11.618  16.551  0.00  0.00    -0.094 A 
ENDROOT
BRANCH   5   6
ATOM      6  C   UNL     1      45.416  15.225  20.171  0.00  0.00    -0.056 A 
ATOM      7  C   UNL     1      44.646  14.435  21.029  0.00  0.00    +0.170 A 
ATOM     10  C   UNL     1      43.668  15.026  21.810  0.00  0.00    -0.017 A 
ATOM     11  C   UNL     1      43.457  16.393  21.737  0.00  0.00    +0.162 A 
ATOM     14  C   UNL     1      44.222  17.183  20.881  0.00  0.00    -0.162 A 
ATOM     15  C   UNL     1      43.949  18.664  20.836  0.00  0.00    +0.239 C 
ATOM     16  C   UNL     1      43.703  19.175  22.257  0.00  0.00    +0.094 C 
ATOM     17  N   UNL     1      45.099  19.383  20.270  0.00  0.00    -0.504 N 
ATOM     18  H   UNL     1      44.863  20.357  20.156  0.00  0.00    +0.434 HD
ATOM     19  H   UNL     1      45.896  19.296  20.883  0.00  0.00    +0.427 HD
ATOM     20  C   UNL     1      45.419  18.798  18.959  0.00  0.00    +0.179 C 
ATOM     21  C   UNL     1      44.139  18.638  18.137  0.00  0.00    +0.090 C 
ATOM     22  C   UNL     1      46.061  17.427  19.181  0.00  0.00    +0.132 C 
ATOM     23  C   UNL     1      45.203  16.606  20.107  0.00  0.00    -0.039 A 
BRANCH   7   8
ATOM      8  O   UNL     1      44.856  13.094  21.096  0.00  0.00    -0.478 OA
ATOM      9  H   UNL     1      45.623  12.842  21.627  0.00  0.00    +0.398 HD
ENDBRANCH   7   8
BRANCH  11  12
ATOM     12  O   UNL     1      42.495  16.968  22.505  0.00  0.00    -0.488 OA
ATOM     13  H   UNL     1      42.558  17.931  22.557  0.00  0.00    +0.401 HD
ENDBRANCH  11  12
ENDBRANCH   5   6
BRANCH  25  26
ATOM     26  C   UNL     1      50.188  14.853  18.825  0.00  0.00    -0.096 A 
ATOM     27  C   UNL     1      50.499  16.218  18.769  0.00  0.00    +0.084 A 
ATOM     28  C   UNL     1      51.803  16.648  18.911  0.00  0.00    -0.079 A 
ATOM     47  C   UNL     1      52.838  15.702  19.115  0.00  0.00    +0.028 A 
ATOM     48  C   UNL     1      54.171  16.113  19.262  0.00  0.00    -0.057 A 
ATOM     49  C   UNL     1      55.151  15.188  19.459  0.00  0.00    -0.009 A 
ATOM     50  C   UNL     1      56.579  15.641  19.615  0.00  0.00    +0.097 C 
ATOM     51  C   UNL     1      54.853  13.829  19.517  0.00  0.00    -0.097 A 
ATOM     52  C   UNL     1      53.557  13.387  19.377  0.00  0.00    +0.174 A 
ATOM     55  C   UNL     1      52.523  14.323  19.172  0.00  0.00    -0.108 A 
ATOM     56  C   UNL     1      51.186  13.908  19.031  0.00  0.00    +0.198 A 
BRANCH  28  29
ATOM     29  C   UNL     1      52.119  18.094  18.848  0.00  0.00    -0.033 A 
ATOM     30  C   UNL     1      52.153  18.853  20.022  0.00  0.00    -0.068 A 
ATOM     31  C   UNL     1      52.448  20.196  19.964  0.00  0.00    -0.121 A 
ATOM     32  C   UNL     1      52.504  21.050  21.204  0.00  0.00    +0.229 C 
ATOM     33  C   UNL     1      51.851  22.403  20.915  0.00  0.00    +0.099 C 
ATOM     34  N   UNL     1      51.796  20.399  22.311  0.00  0.00    -0.503 N 
ATOM     35  H   UNL     1      50.811  20.344  22.095  0.00  0.00    +0.431 HD
ATOM     36  H   UNL     1      51.929  20.932  23.156  0.00  0.00    +0.434 HD
ATOM     37  C   UNL     1      52.337  19.043  22.492  0.00  0.00    +0.178 C 
ATOM     38  C   UNL     1      53.865  19.096  22.505  0.00  0.00    +0.087 C 
ATOM     39  C   UNL     1      52.709  20.795  18.738  0.00  0.00    +0.042 A 
ATOM     40  C   UNL     1      52.678  20.055  17.569  0.00  0.00    +0.102 A 
ATOM     43  C   UNL     1      51.859  18.169  21.332  0.00  0.00    +0.128 C 
ATOM     44  C   UNL     1      52.389  18.696  17.618  0.00  0.00    +0.128 A 
BRANCH  40  41
ATOM     41  O   UNL     1      52.935  20.654  16.376  0.00  0.00    -0.484 OA
ATOM     42  H   UNL     1      53.677  20.266  15.893  0.00  0.00    +0.405 HD
ENDBRANCH  40  41
BRANCH  44  45
ATOM     45  O   UNL     1      52.365  17.960  16.476  0.00  0.00    -0.478 OA
ATOM     46  H   UNL     1      52.062  17.049  16.601  0.00  0.00    +0.404 HD
ENDBRANCH  44  45
ENDBRANCH  28  29
BRANCH  52  53
ATOM     53  O   UNL     1      53.276  12.059  19.435  0.00  0.00    -0.292 OA
ATOM     54  C   UNL     1      54.284  11.162  18.964  0.00  0.00    +0.249 C 
ENDBRANCH  52  53
BRANCH  56  57
ATOM     57  O   UNL     1      50.873  12.589  19.089  0.00  0.00    -0.460 OA
ATOM     58  H   UNL     1      51.594  12.001  18.826  0.00  0.00    +0.386 HD
ENDBRANCH  56  57
ENDBRANCH  25  26
BRANCH  59  60
ATOM     60  O   UNL     1      49.443  12.868  16.985  0.00  0.00    -0.465 OA
ATOM     61  H   UNL     1      49.618  11.939  17.189  0.00  0.00    +0.395 HD
ENDBRANCH  59  60
BRANCH  63  64
ATOM     64  O   UNL     1      47.737  11.431  15.891  0.00  0.00    -0.291 OA
ATOM     65  C   UNL     1      47.882  11.929  14.560  0.00  0.00    +0.250 C 
ENDBRANCH  63  64
TORSDOF 11
ENDMDL
MODEL 3
REMARK VINA RESULT:      -4.0      2.360      4.475
REMARK  Name = ZINC95486182
REMARK  19 active torsions:
REMARK  status: ('A' for Active; 'I' for Inactive)
REMARK    1  A    between atoms: C1_1  and  C2_2
REMARK    2  A    between atoms: C5_5  and  C36_45
REMARK    3  A    between atoms: C7_7  and  C13_15
REMARK    4  A    between atoms: C8_8  and  O2_14
REMARK    5  A    between atoms: C10_10  and  O1_12
REMARK    6  A    between atoms: O1_12  and  C12_13
REMARK    7  A    between atoms: C15_17  and  C25_29
REMARK    8  A    between atoms: C18_20  and  C24_28
REMARK    9  A    between atoms: C20_22  and  O4_26
REMARK   10  A    between atoms: C22_24  and  O3_25
REMARK   11  A    between atoms: O4_26  and  C23_27
REMARK   12  A    between atoms: C29_33  and  O6_36
REMARK   13  A    between atoms: C30_34  and  O5_35
REMARK   14  A    between atoms: C31_37  and  C35_44
REMARK   15  A    between atoms: C32_40  and  C34_43
REMARK   16  A    between atoms: C37_46  and  O8_60
REMARK   17  A    between atoms: C39_48  and  O7_59
REMARK   18  A    between atoms: C43_52  and  C46_58
REMARK   19  A    between atoms: C44_55  and  C45_57
REMARK                            x       y       z     vdW  Elec       q    Type
REMARK                         _______ _______ _______ _____ _____    ______ ____
ROOT
ATOM      1  C   UNL     1      52.394  22.638  20.536  0.00  0.00    +0.097 C 
ATOM      2  C   UNL     1      51.877  21.311  20.044  0.00  0.00    -0.010 A 
ATOM      3  C   UNL     1      50.565  20.993  20.227  0.00  0.00    -0.047 A 
ATOM      4  C   UNL     1      50.073  19.761  19.774  0.00  0.00    +0.032 A 
ATOM      5  C   UNL     1      48.711  19.409  19.954  0.00  0.00    -0.078 A 
ATOM     24  C   UNL     1      48.253  18.190  19.498  0.00  0.00    +0.067 A 
ATOM     25  C   UNL     1      49.120  17.294  18.859  0.00  0.00    -0.105 A 
ATOM     59  C   UNL     1      50.458  17.617  18.671  0.00  0.00    +0.207 A 
ATOM     62  C   UNL     1      50.948  18.855  19.128  0.00  0.00    -0.109 A 
ATOM     63  C   UNL     1      52.301  19.210  18.951  0.00  0.00    +0.172 A 
ATOM     66  C   UNL     1      52.746  20.432  19.405  0.00  0.00    -0.094 A 
ENDROOT
BRANCH   5   6
ATOM      6  C   UNL     1      47.785  20.347  20.628  0.00  0.00    -0.056 A 
ATOM      7  C   UNL     1      48.161  20.960  21.826  0.00  0.00    +0.170 A 
ATOM     10  C   UNL     1      47.289  21.835  22.451  0.00  0.00    -0.017 A 
ATOM     11  C   UNL     1      46.052  22.098  21.888  0.00  0.00    +0.162 A 
ATOM     14  C   UNL     1      45.673  21.487  20.694  0.00  0.00    -0.162 A 
ATOM     15  C   UNL     1      44.313  21.803  20.126  0.00  0.00    +0.239 C 
ATOM     16  C   UNL     1      44.035  23.299  20.287  0.00  0.00    +0.094 C 
ATOM     17  N   UNL     1      44.261  21.466  18.697  0.00  0.00    -0.504 N 
ATOM     18  H   UNL     1      43.320  21.591  18.356  0.00  0.00    +0.434 HD
ATOM     19  H   UNL     1      44.891  22.061  18.179  0.00  0.00    +0.427 HD
ATOM     20  C   UNL     1      44.662  20.061  18.531  0.00  0.00    +0.179 C 
ATOM     21  C   UNL     1      43.924  19.188  19.548  0.00  0.00    +0.090 C 
ATOM     22  C   UNL     1      46.171  19.954  18.761  0.00  0.00    +0.132 C 
ATOM     23  C   UNL     1      46.537  20.623  20.061  0.00  0.00    -0.039 A 
BRANCH   7   8
ATOM      8  O   UNL     1      49.376  20.698  22.376  0.00  0.00    -0.478 OA
ATOM      9  H   UNL     1      50.055  21.352  22.160  0.00  0.00    +0.398 HD
ENDBRANCH   7   8
BRANCH  11  12
ATOM     12  O   UNL     1      45.199  22.957  22.505  0.00  0.00    -0.488 OA
ATOM     13  H   UNL     1      44.314  22.979  22.117  0.00  0.00    +0.401 HD
ENDBRANCH  11  12
ENDBRANCH   5   6
BRANCH  25  26
ATOM     26  C   UNL     1      48.605  15.990  18.378  0.00  0.00    -0.096 A 
ATOM     27  C   UNL     1      49.404  15.190  17.551  0.00  0.00    +0.084 A 
ATOM     28  C   UNL     1      48.943  13.972  17.093  0.00  0.00    -0.079 A 
ATOM     47  C   UNL     1      47.650  13.525  17.461  0.00  0.00    +0.028 A 
ATOM     48  C   UNL     1      47.158  12.292  17.010  0.00  0.00    -0.057 A 
ATOM     49  C   UNL     1      45.912  11.880  17.376  0.00  0.00    -0.009 A 
ATOM     50  C   UNL     1      45.395  10.553  16.884  0.00  0.00    +0.097 C 
ATOM     51  C   UNL     1      45.110  12.667  18.199  0.00  0.00    -0.097 A 
ATOM     52  C   UNL     1      45.558  13.883  18.662  0.00  0.00    +0.174 A 
ATOM     55  C   UNL     1      46.843  14.334  18.298  0.00  0.00    -0.108 A 
ATOM     56  C   UNL     1      47.336  15.568  18.757  0.00  0.00    +0.198 A 
BRANCH  28  29
ATOM     29  C   UNL     1      49.797  13.136  16.218  0.00  0.00    -0.033 A 
ATOM     30  C   UNL     1      50.933  12.511  16.741  0.00  0.00    -0.068 A 
ATOM     31  C   UNL     1      51.726  11.733  15.928  0.00  0.00    -0.121 A 
ATOM     32  C   UNL     1      52.953  11.034  16.452  0.00  0.00    +0.229 C 
ATOM     33  C   UNL     1      54.077  11.148  15.420  0.00  0.00    +0.099 C 
ATOM     34  N   UNL     1      53.393  11.639  17.713  0.00  0.00    -0.503 N 
ATOM     35  H   UNL     1      53.703  12.585  17.543  0.00  0.00    +0.431 HD
ATOM     36  H   UNL     1      54.150  11.098  18.101  0.00  0.00    +0.434 HD
ATOM     37  C   UNL     1      52.264  11.653  18.656  0.00  0.00    +0.178 C 
ATOM     38  C   UNL     1      51.592  10.278  18.675  0.00  0.00    +0.087 C 
ATOM     39  C   UNL     1      51.397  11.574  14.588  0.00  0.00    +0.042 A 
ATOM     40  C   UNL     1      50.275  12.188  14.058  0.00  0.00    +0.102 A 
ATOM     43  C   UNL     1      51.260  12.712  18.198  0.00  0.00    +0.128 C 
ATOM     44  C   UNL     1      49.464  12.968  14.872  0.00  0.00    +0.128 A 
BRANCH  40  41
ATOM     41  O   UNL     1      49.965  12.024  12.744  0.00  0.00    -0.484 OA
ATOM     42  H   UNL     1      49.051  12.250  12.525  0.00  0.00    +0.405 HD
ENDBRANCH  40  41
BRANCH  44  45
ATOM     45  O   UNL     1      48.356  13.569  14.362  0.00  0.00    -0.478 OA
ATOM     46  H   UNL     1      48.410  13.756  13.415  0.00  0.00    +0.404 HD
ENDBRANCH  44  45
ENDBRANCH  28  29
BRANCH  52  53
ATOM     53  O   UNL     1      44.768  14.643  19.464  0.00  0.00    -0.292 OA
ATOM     54  C   UNL     1      44.717  14.290  20.848  0.00  0.00    +0.249 C 
ENDBRANCH  52  53
BRANCH  56  57
ATOM     57  O   UNL     1      46.573  16.349  19.564  0.00  0.00    -0.460 OA
ATOM     58  H   UNL     1      45.667  16.474  19.249  0.00  0.00    +0.386 HD
ENDBRANCH  56  57
ENDBRANCH  25  26
BRANCH  59  60
ATOM     60  O   UNL     1      51.290  16.742  18.051  0.00  0.00    -0.465 OA
ATOM     61  H   UNL     1      51.707  17.094  17.253  0.00  0.00    +0.395 HD
ENDBRANCH  59  60
BRANCH  63  64
ATOM     64  O   UNL     1      53.158  18.356  18.335  0.00  0.00    -0.291 OA
ATOM     65  C   UNL     1      53.712  17.306  19.129  0.00  0.00    +0.250 C 
ENDBRANCH  63  64
TORSDOF 11
ENDMDL
