MODEL 1
REMARK VINA RESULT:      -6.2      0.000      0.000
REMARK  Name = ZINC95486372
REMARK  18 active torsions:
REMARK  status: ('A' for Active; 'I' for Inactive)
REMARK    1  A    between atoms: C1_1  and  C2_2
REMARK    2  A    between atoms: C2_2  and  C3_3
REMARK    3  A    between atoms: C3_3  and  C4_4
REMARK    4  A    between atoms: C3_3  and  C6_6
REMARK    5  A    between atoms: C4_4  and  C5_5
REMARK    6  A    between atoms: C6_6  and  C7_7
REMARK    7  A    between atoms: C7_7  and  C8_8
REMARK    8  A    between atoms: C8_8  and  C9_9
REMARK    9  A    between atoms: C9_9  and  C10_11
REMARK   10  A    between atoms: C9_9  and  C11_12
REMARK   11  A    between atoms: C15_18  and  C35_51
REMARK   12  A    between atoms: C27_31  and  O1_34
REMARK   13  A    between atoms: O1_34  and  C29_35
REMARK   14  A    between atoms: C30_37  and  O6_50
REMARK   15  A    between atoms: C31_39  and  O5_49
REMARK   16  A    between atoms: C32_41  and  O4_48
REMARK   17  A    between atoms: C33_43  and  C34_46
REMARK   18  A    between atoms: C34_46  and  O3_47
REMARK                            x       y       z     vdW  Elec       q    Type
REMARK                         _______ _______ _______ _____ _____    ______ ____
ROOT
ATOM      8  C   UNL     1      48.918  11.742  17.788  0.00  0.00    -0.009 C 
ATOM      9  C   UNL     1      49.026  12.240  16.324  0.00  0.00    +0.003 C 
ATOM     10  C   UNL     1      48.225  13.571  16.253  0.00  0.00    +0.012 C 
ATOM     11  C   UNL     1      47.318  13.474  17.494  0.00  0.00    +0.001 C 
ATOM     12  C   UNL     1      46.636  14.735  17.914  0.00  0.00    +0.027 C 
ATOM     13  C   UNL     1      47.207  16.052  17.421  0.00  0.00    +0.069 C 
ATOM     14  C   UNL     1      46.254  17.151  17.840  0.00  0.00    -0.059 C 
ATOM     15  C   UNL     1      45.665  17.154  19.016  0.00  0.00    -0.076 C 
ATOM     16  C   UNL     1      45.952  16.057  20.018  0.00  0.00    -0.078 C 
ATOM     17  C   UNL     1      45.027  15.934  21.221  0.00  0.00    +0.065 C 
ATOM     18  C   UNL     1      44.459  17.300  21.602  0.00  0.00    +0.033 C 
ATOM     19  C   UNL     1      43.706  17.866  20.394  0.00  0.00    +0.166 C 
ATOM     36  C   UNL     1      47.442  15.754  20.219  0.00  0.00    +0.030 C 
ATOM     37  C   UNL     1      44.721  18.283  19.333  0.00  0.00    +0.067 C 
ATOM     38  C   UNL     1      46.553  14.775  19.449  0.00  0.00    -0.091 C 
ATOM     39  C   UNL     1      46.370  13.404  20.090  0.00  0.00    +0.051 C 
ATOM     40  C   UNL     1      47.646  12.581  19.856  0.00  0.00    +0.028 C 
ATOM     41  C   UNL     1      48.302  12.935  18.548  0.00  0.00    -0.045 C 
ATOM     42  C   UNL     1      49.441  13.926  18.800  0.00  0.00    +0.018 C 
ENDROOT
BRANCH   8   7
ATOM      7  C   UNL     1      50.306  11.431  18.346  0.00  0.00    -0.008 C 
ATOM     43  C   UNL     1      50.206  10.277  19.345  0.00  0.00    +0.010 C 
BRANCH   7   6
ATOM      6  C   UNL     1      51.240  11.034  17.200  0.00  0.00    +0.003 C 
BRANCH   6   5
ATOM      5  C   UNL     1      52.505  11.892  17.254  0.00  0.00    +0.002 C 
BRANCH   5   4
ATOM      4  C   UNL     1      53.344  11.487  18.468  0.00  0.00    +0.005 C 
BRANCH   4   3
ATOM      3  C   UNL     1      53.886  12.742  19.154  0.00  0.00    -0.020 C 
BRANCH   3   2
ATOM      1  C   UNL     1      52.887  11.820  21.252  0.00  0.00    +0.004 C 
ATOM      2  C   UNL     1      53.023  13.068  20.376  0.00  0.00    +0.002 C 
ENDBRANCH   3   2
BRANCH   3  44
ATOM     44  C   UNL     1      55.329  12.498  19.600  0.00  0.00    +0.001 C 
ATOM     45  C   UNL     1      56.065  13.836  19.701  0.00  0.00    +0.005 C 
ENDBRANCH   3  44
ENDBRANCH   4   3
ENDBRANCH   5   4
ENDBRANCH   6   5
ENDBRANCH   7   6
ENDBRANCH   8   7
BRANCH  19  20
ATOM     20  O   UNL     1      42.940  19.003  20.799  0.00  0.00    -0.360 OA
BRANCH  20  21
ATOM     21  C   UNL     1      43.114  20.148  19.962  0.00  0.00    +0.292 C 
ATOM     22  C   UNL     1      41.744  20.676  19.528  0.00  0.00    +0.142 C 
ATOM     25  C   UNL     1      41.936  21.937  18.681  0.00  0.00    +0.161 C 
ATOM     28  C   UNL     1      42.725  22.969  19.493  0.00  0.00    +0.170 C 
ATOM     31  C   UNL     1      44.058  22.353  19.928  0.00  0.00    +0.190 C 
ATOM     35  O   UNL     1      43.807  21.167  20.685  0.00  0.00    -0.375 OA
BRANCH  22  23
ATOM     23  O   UNL     1      41.071  19.679  18.755  0.00  0.00    -0.556 OA
ATOM     24  H   UNL     1      40.633  19.000  19.286  0.00  0.00    +0.395 HD
ENDBRANCH  22  23
BRANCH  25  26
ATOM     26  O   UNL     1      40.660  22.478  18.331  0.00  0.00    -0.556 OA
ATOM     27  H   UNL     1      40.079  22.633  19.089  0.00  0.00    +0.395 HD
ENDBRANCH  25  26
BRANCH  28  29
ATOM     29  O   UNL     1      42.972  24.123  18.688  0.00  0.00    -0.551 OA
ATOM     30  H   UNL     1      43.621  23.981  17.984  0.00  0.00    +0.395 HD
ENDBRANCH  28  29
BRANCH  31  32
ATOM     32  C   UNL     1      44.826  23.356  20.791  0.00  0.00    +0.223 C 
BRANCH  32  33
ATOM     33  O   UNL     1      44.146  23.533  22.034  0.00  0.00    -0.565 OA
ATOM     34  H   UNL     1      43.202  23.319  22.000  0.00  0.00    +0.384 HD
ENDBRANCH  32  33
ENDBRANCH  31  32
ENDBRANCH  20  21
ENDBRANCH  19  20
TORSDOF 14
ENDMDL
MODEL 2
REMARK VINA RESULT:      -5.9      6.221     12.117
REMARK  Name = ZINC95486372
REMARK  18 active torsions:
REMARK  status: ('A' for Active; 'I' for Inactive)
REMARK    1  A    between atoms: C1_1  and  C2_2
REMARK    2  A    between atoms: C2_2  and  C3_3
REMARK    3  A    between atoms: C3_3  and  C4_4
REMARK    4  A    between atoms: C3_3  and  C6_6
REMARK    5  A    between atoms: C4_4  and  C5_5
REMARK    6  A    between atoms: C6_6  and  C7_7
REMARK    7  A    between atoms: C7_7  and  C8_8
REMARK    8  A    between atoms: C8_8  and  C9_9
REMARK    9  A    between atoms: C9_9  and  C10_11
REMARK   10  A    between atoms: C9_9  and  C11_12
REMARK   11  A    between atoms: C15_18  and  C35_51
REMARK   12  A    between atoms: C27_31  and  O1_34
REMARK   13  A    between atoms: O1_34  and  C29_35
REMARK   14  A    between atoms: C30_37  and  O6_50
REMARK   15  A    between atoms: C31_39  and  O5_49
REMARK   16  A    between atoms: C32_41  and  O4_48
REMARK   17  A    between atoms: C33_43  and  C34_46
REMARK   18  A    between atoms: C34_46  and  O3_47
REMARK                            x       y       z     vdW  Elec       q    Type
REMARK                         _______ _______ _______ _____ _____    ______ ____
ROOT
ATOM      8  C   UNL     1      46.261  20.692  22.048  0.00  0.00    -0.009 C 
ATOM      9  C   UNL     1      46.834  22.107  21.780  0.00  0.00    +0.003 C 
ATOM     10  C   UNL     1      48.240  21.900  21.150  0.00  0.00    +0.012 C 
ATOM     11  C   UNL     1      48.576  20.456  21.567  0.00  0.00    +0.001 C 
ATOM     12  C   UNL     1      49.726  19.815  20.860  0.00  0.00    +0.027 C 
ATOM     13  C   UNL     1      50.162  20.404  19.531  0.00  0.00    +0.069 C 
ATOM     14  C   UNL     1      51.430  19.692  19.108  0.00  0.00    -0.059 C 
ATOM     15  C   UNL     1      51.593  18.397  19.274  0.00  0.00    -0.076 C 
ATOM     16  C   UNL     1      50.485  17.558  19.874  0.00  0.00    -0.078 C 
ATOM     17  C   UNL     1      50.829  16.146  20.327  0.00  0.00    +0.065 C 
ATOM     18  C   UNL     1      51.960  15.571  19.476  0.00  0.00    +0.033 C 
ATOM     19  C   UNL     1      53.177  16.493  19.599  0.00  0.00    +0.166 C 
ATOM     36  C   UNL     1      49.100  17.802  19.260  0.00  0.00    +0.030 C 
ATOM     37  C   UNL     1      52.896  17.784  18.835  0.00  0.00    +0.067 C 
ATOM     38  C   UNL     1      49.425  18.319  20.664  0.00  0.00    -0.091 C 
ATOM     39  C   UNL     1      48.617  17.701  21.799  0.00  0.00    +0.051 C 
ATOM     40  C   UNL     1      47.210  18.319  21.791  0.00  0.00    +0.028 C 
ATOM     41  C   UNL     1      47.234  19.746  21.314  0.00  0.00    -0.045 C 
ATOM     42  C   UNL     1      46.853  19.795  19.831  0.00  0.00    +0.018 C 
ENDROOT
BRANCH   8   7
ATOM      7  C   UNL     1      44.861  20.564  21.450  0.00  0.00    -0.008 C 
ATOM     43  C   UNL     1      43.916  19.961  22.490  0.00  0.00    +0.010 C 
BRANCH   7   6
ATOM      6  C   UNL     1      44.352  21.949  21.042  0.00  0.00    +0.003 C 
BRANCH   6   5
ATOM      5  C   UNL     1      43.708  21.867  19.657  0.00  0.00    +0.002 C 
BRANCH   5   4
ATOM      4  C   UNL     1      43.261  20.429  19.386  0.00  0.00    +0.005 C 
BRANCH   4   3
ATOM      3  C   UNL     1      41.974  20.441  18.561  0.00  0.00    -0.020 C 
BRANCH   3   2
ATOM      1  C   UNL     1      41.311  19.056  20.532  0.00  0.00    +0.004 C 
ATOM      2  C   UNL     1      41.044  19.328  19.050  0.00  0.00    +0.002 C 
ENDBRANCH   3   2
BRANCH   3  44
ATOM     44  C   UNL     1      41.277  21.794  18.719  0.00  0.00    +0.001 C 
ATOM     45  C   UNL     1      39.763  21.605  18.603  0.00  0.00    +0.005 C 
ENDBRANCH   3  44
ENDBRANCH   4   3
ENDBRANCH   5   4
ENDBRANCH   6   5
ENDBRANCH   7   6
ENDBRANCH   8   7
BRANCH  19  20
ATOM     20  O   UNL     1      54.325  15.847  19.042  0.00  0.00    -0.360 OA
BRANCH  20  21
ATOM     21  C   UNL     1      55.201  15.278  20.018  0.00  0.00    +0.292 C 
ATOM     22  C   UNL     1      55.508  13.826  19.642  0.00  0.00    +0.142 C 
ATOM     25  C   UNL     1      56.493  13.241  20.658  0.00  0.00    +0.161 C 
ATOM     28  C   UNL     1      57.754  14.112  20.689  0.00  0.00    +0.170 C 
ATOM     31  C   UNL     1      57.360  15.553  21.024  0.00  0.00    +0.190 C 
ATOM     35  O   UNL     1      56.418  16.025  20.058  0.00  0.00    -0.375 OA
BRANCH  22  23
ATOM     23  O   UNL     1      54.298  13.063  19.657  0.00  0.00    -0.556 OA
ATOM     24  H   UNL     1      54.391  12.186  20.053  0.00  0.00    +0.395 HD
ENDBRANCH  22  23
BRANCH  25  26
ATOM     26  O   UNL     1      56.841  11.909  20.275  0.00  0.00    -0.556 OA
ATOM     27  H   UNL     1      56.695  11.251  20.969  0.00  0.00    +0.395 HD
ENDBRANCH  25  26
BRANCH  28  29
ATOM     29  O   UNL     1      58.652  13.617  21.684  0.00  0.00    -0.551 OA
ATOM     30  H   UNL     1      58.467  13.942  22.577  0.00  0.00    +0.395 HD
ENDBRANCH  28  29
BRANCH  31  32
ATOM     32  C   UNL     1      58.606  16.441  20.997  0.00  0.00    +0.223 C 
BRANCH  32  33
ATOM     33  O   UNL     1      58.525  17.341  19.891  0.00  0.00    -0.565 OA
ATOM     34  H   UNL     1      58.391  16.905  19.038  0.00  0.00    +0.384 HD
ENDBRANCH  32  33
ENDBRANCH  31  32
ENDBRANCH  20  21
ENDBRANCH  19  20
TORSDOF 14
ENDMDL
MODEL 3
REMARK VINA RESULT:      -5.9      2.224      3.956
REMARK  Name = ZINC95486372
REMARK  18 active torsions:
REMARK  status: ('A' for Active; 'I' for Inactive)
REMARK    1  A    between atoms: C1_1  and  C2_2
REMARK    2  A    between atoms: C2_2  and  C3_3
REMARK    3  A    between atoms: C3_3  and  C4_4
REMARK    4  A    between atoms: C3_3  and  C6_6
REMARK    5  A    between atoms: C4_4  and  C5_5
REMARK    6  A    between atoms: C6_6  and  C7_7
REMARK    7  A    between atoms: C7_7  and  C8_8
REMARK    8  A    between atoms: C8_8  and  C9_9
REMARK    9  A    between atoms: C9_9  and  C10_11
REMARK   10  A    between atoms: C9_9  and  C11_12
REMARK   11  A    between atoms: C15_18  and  C35_51
REMARK   12  A    between atoms: C27_31  and  O1_34
REMARK   13  A    between atoms: O1_34  and  C29_35
REMARK   14  A    between atoms: C30_37  and  O6_50
REMARK   15  A    between atoms: C31_39  and  O5_49
REMARK   16  A    between atoms: C32_41  and  O4_48
REMARK   17  A    between atoms: C33_43  and  C34_46
REMARK   18  A    between atoms: C34_46  and  O3_47
REMARK                            x       y       z     vdW  Elec       q    Type
REMARK                         _______ _______ _______ _____ _____    ______ ____
ROOT
ATOM      8  C   UNL     1      50.226  13.657  17.357  0.00  0.00    -0.009 C 
ATOM      9  C   UNL     1      51.159  14.497  16.447  0.00  0.00    +0.003 C 
ATOM     10  C   UNL     1      50.904  15.987  16.812  0.00  0.00    +0.012 C 
ATOM     11  C   UNL     1      49.528  15.925  17.502  0.00  0.00    +0.001 C 
ATOM     12  C   UNL     1      49.118  17.140  18.268  0.00  0.00    +0.027 C 
ATOM     13  C   UNL     1      50.203  18.113  18.694  0.00  0.00    +0.069 C 
ATOM     14  C   UNL     1      49.521  19.323  19.297  0.00  0.00    -0.059 C 
ATOM     15  C   UNL     1      48.469  19.215  20.080  0.00  0.00    -0.076 C 
ATOM     16  C   UNL     1      47.917  17.852  20.434  0.00  0.00    -0.078 C 
ATOM     17  C   UNL     1      46.537  17.788  21.075  0.00  0.00    +0.065 C 
ATOM     18  C   UNL     1      46.270  19.049  21.896  0.00  0.00    +0.033 C 
ATOM     19  C   UNL     1      46.384  20.264  20.970  0.00  0.00    +0.166 C 
ATOM     36  C   UNL     1      48.973  16.838  20.893  0.00  0.00    +0.030 C 
ATOM     37  C   UNL     1      47.854  20.479  20.618  0.00  0.00    +0.067 C 
ATOM     38  C   UNL     1      48.325  16.706  19.513  0.00  0.00    -0.091 C 
ATOM     39  C   UNL     1      47.477  15.458  19.296  0.00  0.00    +0.051 C 
ATOM     40  C   UNL     1      48.416  14.261  19.077  0.00  0.00    +0.028 C 
ATOM     41  C   UNL     1      49.688  14.674  18.385  0.00  0.00    -0.045 C 
ATOM     42  C   UNL     1      50.795  14.868  19.426  0.00  0.00    +0.018 C 
ENDROOT
BRANCH   8   7
ATOM      7  C   UNL     1      51.023  12.567  18.072  0.00  0.00    -0.008 C 
ATOM     43  C   UNL     1      50.105  11.382  18.377  0.00  0.00    +0.010 C 
BRANCH   7   6
ATOM      6  C   UNL     1      52.172  12.104  17.173  0.00  0.00    +0.003 C 
BRANCH   6   5
ATOM      5  C   UNL     1      51.712  10.910  16.333  0.00  0.00    +0.002 C 
BRANCH   5   4
ATOM      4  C   UNL     1      51.954  11.207  14.851  0.00  0.00    +0.005 C 
BRANCH   4   3
ATOM      3  C   UNL     1      50.646  11.037  14.077  0.00  0.00    -0.020 C 
BRANCH   3   2
ATOM      1  C   UNL     1      48.356  11.229  15.058  0.00  0.00    +0.004 C 
ATOM      2  C   UNL     1      49.609  10.354  14.971  0.00  0.00    +0.002 C 
ENDBRANCH   3   2
BRANCH   3  44
ATOM     44  C   UNL     1      50.125  12.409  13.647  0.00  0.00    +0.001 C 
ATOM     45  C   UNL     1      51.223  13.158  12.888  0.00  0.00    +0.005 C 
ENDBRANCH   3  44
ENDBRANCH   4   3
ENDBRANCH   5   4
ENDBRANCH   6   5
ENDBRANCH   7   6
ENDBRANCH   8   7
BRANCH  19  20
ATOM     20  O   UNL     1      45.876  21.422  21.637  0.00  0.00    -0.360 OA
BRANCH  20  21
ATOM     21  C   UNL     1      44.596  21.849  21.165  0.00  0.00    +0.292 C 
ATOM     22  C   UNL     1      44.767  23.075  20.264  0.00  0.00    +0.142 C 
ATOM     25  C   UNL     1      43.399  23.490  19.715  0.00  0.00    +0.161 C 
ATOM     28  C   UNL     1      42.779  22.304  18.970  0.00  0.00    +0.170 C 
ATOM     31  C   UNL     1      42.684  21.107  19.922  0.00  0.00    +0.190 C 
ATOM     35  O   UNL     1      43.986  20.794  20.420  0.00  0.00    -0.375 OA
BRANCH  22  23
ATOM     23  O   UNL     1      45.324  24.151  21.023  0.00  0.00    -0.556 OA
ATOM     24  H   UNL     1      45.371  23.978  21.973  0.00  0.00    +0.395 HD
ENDBRANCH  22  23
BRANCH  25  26
ATOM     26  O   UNL     1      43.558  24.590  18.816  0.00  0.00    -0.556 OA
ATOM     27  H   UNL     1      44.474  24.880  18.710  0.00  0.00    +0.395 HD
ENDBRANCH  25  26
BRANCH  28  29
ATOM     29  O   UNL     1      41.471  22.657  18.515  0.00  0.00    -0.551 OA
ATOM     30  H   UNL     1      40.786  22.015  18.749  0.00  0.00    +0.395 HD
ENDBRANCH  28  29
BRANCH  31  32
ATOM     32  C   UNL     1      42.122  19.900  19.168  0.00  0.00    +0.223 C 
BRANCH  32  33
ATOM     33  O   UNL     1      42.272  20.104  17.762  0.00  0.00    -0.565 OA
ATOM     34  H   UNL     1      43.167  20.360  17.495  0.00  0.00    +0.384 HD
ENDBRANCH  32  33
ENDBRANCH  31  32
ENDBRANCH  20  21
ENDBRANCH  19  20
TORSDOF 14
ENDMDL
MODEL 4
REMARK VINA RESULT:      -5.7      1.534      2.203
REMARK  Name = ZINC95486372
REMARK  18 active torsions:
REMARK  status: ('A' for Active; 'I' for Inactive)
REMARK    1  A    between atoms: C1_1  and  C2_2
REMARK    2  A    between atoms: C2_2  and  C3_3
REMARK    3  A    between atoms: C3_3  and  C4_4
REMARK    4  A    between atoms: C3_3  and  C6_6
REMARK    5  A    between atoms: C4_4  and  C5_5
REMARK    6  A    between atoms: C6_6  and  C7_7
REMARK    7  A    between atoms: C7_7  and  C8_8
REMARK    8  A    between atoms: C8_8  and  C9_9
REMARK    9  A    between atoms: C9_9  and  C10_11
REMARK   10  A    between atoms: C9_9  and  C11_12
REMARK   11  A    between atoms: C15_18  and  C35_51
REMARK   12  A    between atoms: C27_31  and  O1_34
REMARK   13  A    between atoms: O1_34  and  C29_35
REMARK   14  A    between atoms: C30_37  and  O6_50
REMARK   15  A    between atoms: C31_39  and  O5_49
REMARK   16  A    between atoms: C32_41  and  O4_48
REMARK   17  A    between atoms: C33_43  and  C34_46
REMARK   18  A    between atoms: C34_46  and  O3_47
REMARK                            x       y       z     vdW  Elec       q    Type
REMARK                         _______ _______ _______ _____ _____    ______ ____
ROOT
ATOM      8  C   UNL     1      50.859  12.819  18.661  0.00  0.00    -0.009 C 
ATOM      9  C   UNL     1      51.756  13.907  18.018  0.00  0.00    +0.003 C 
ATOM     10  C   UNL     1      50.991  15.253  18.170  0.00  0.00    +0.012 C 
ATOM     11  C   UNL     1      49.544  14.782  18.407  0.00  0.00    +0.001 C 
ATOM     12  C   UNL     1      48.588  15.813  18.913  0.00  0.00    +0.027 C 
ATOM     13  C   UNL     1      49.163  17.053  19.574  0.00  0.00    +0.069 C 
ATOM     14  C   UNL     1      48.015  18.003  19.842  0.00  0.00    -0.059 C 
ATOM     15  C   UNL     1      46.844  17.581  20.270  0.00  0.00    -0.076 C 
ATOM     16  C   UNL     1      46.614  16.111  20.543  0.00  0.00    -0.078 C 
ATOM     17  C   UNL     1      45.180  15.639  20.733  0.00  0.00    +0.065 C 
ATOM     18  C   UNL     1      44.324  16.754  21.331  0.00  0.00    +0.033 C 
ATOM     19  C   UNL     1      44.378  17.964  20.393  0.00  0.00    +0.166 C 
ATOM     36  C   UNL     1      47.711  15.441  21.381  0.00  0.00    +0.030 C 
ATOM     37  C   UNL     1      45.761  18.603  20.493  0.00  0.00    +0.067 C 
ATOM     38  C   UNL     1      47.597  15.148  19.884  0.00  0.00    -0.091 C 
ATOM     39  C   UNL     1      47.249  13.710  19.516  0.00  0.00    +0.051 C 
ATOM     40  C   UNL     1      48.505  12.843  19.690  0.00  0.00    +0.028 C 
ATOM     41  C   UNL     1      49.760  13.619  19.392  0.00  0.00    -0.045 C 
ATOM     42  C   UNL     1      50.379  14.111  20.703  0.00  0.00    +0.018 C 
ENDROOT
BRANCH   8   7
ATOM      7  C   UNL     1      51.661  11.997  19.668  0.00  0.00    -0.008 C 
ATOM     43  C   UNL     1      51.393  10.508  19.440  0.00  0.00    +0.010 C 
BRANCH   7   6
ATOM      6  C   UNL     1      53.154  12.281  19.484  0.00  0.00    +0.003 C 
BRANCH   6   5
ATOM      5  C   UNL     1      53.847  12.265  20.848  0.00  0.00    +0.002 C 
BRANCH   5   4
ATOM      4  C   UNL     1      54.774  13.477  20.962  0.00  0.00    +0.005 C 
BRANCH   4   3
ATOM      3  C   UNL     1      54.085  14.704  20.364  0.00  0.00    -0.020 C 
BRANCH   3   2
ATOM      1  C   UNL     1      52.980  16.881  20.899  0.00  0.00    +0.004 C 
ATOM      2  C   UNL     1      53.559  15.594  21.492  0.00  0.00    +0.002 C 
ENDBRANCH   3   2
BRANCH   3  44
ATOM     44  C   UNL     1      55.089  15.492  19.519  0.00  0.00    +0.001 C 
ATOM     45  C   UNL     1      56.433  14.760  19.508  0.00  0.00    +0.005 C 
ENDBRANCH   3  44
ENDBRANCH   4   3
ENDBRANCH   5   4
ENDBRANCH   6   5
ENDBRANCH   7   6
ENDBRANCH   8   7
BRANCH  19  20
ATOM     20  O   UNL     1      43.382  18.914  20.778  0.00  0.00    -0.360 OA
BRANCH  20  21
ATOM     21  C   UNL     1      43.101  19.897  19.780  0.00  0.00    +0.292 C 
ATOM     22  C   UNL     1      41.586  20.093  19.669  0.00  0.00    +0.142 C 
ATOM     25  C   UNL     1      41.295  21.190  18.642  0.00  0.00    +0.161 C 
ATOM     28  C   UNL     1      42.016  22.474  19.064  0.00  0.00    +0.170 C 
ATOM     31  C   UNL     1      43.515  22.186  19.198  0.00  0.00    +0.190 C 
ATOM     35  O   UNL     1      43.713  21.135  20.145  0.00  0.00    -0.375 OA
BRANCH  22  23
ATOM     23  O   UNL     1      40.977  18.870  19.249  0.00  0.00    -0.556 OA
ATOM     24  H   UNL     1      40.014  18.917  19.170  0.00  0.00    +0.395 HD
ENDBRANCH  22  23
BRANCH  25  26
ATOM     26  O   UNL     1      39.887  21.430  18.584  0.00  0.00    -0.556 OA
ATOM     27  H   UNL     1      39.644  22.362  18.664  0.00  0.00    +0.395 HD
ENDBRANCH  25  26
BRANCH  28  29
ATOM     29  O   UNL     1      41.810  23.485  18.075  0.00  0.00    -0.551 OA
ATOM     30  H   UNL     1      41.118  24.122  18.302  0.00  0.00    +0.395 HD
ENDBRANCH  28  29
BRANCH  31  32
ATOM     32  C   UNL     1      44.235  23.449  19.678  0.00  0.00    +0.223 C 
BRANCH  32  33
ATOM     33  O   UNL     1      44.445  24.326  18.570  0.00  0.00    -0.565 OA
ATOM     34  H   UNL     1      44.454  25.265  18.808  0.00  0.00    +0.384 HD
ENDBRANCH  32  33
ENDBRANCH  31  32
ENDBRANCH  20  21
ENDBRANCH  19  20
TORSDOF 14
ENDMDL
MODEL 5
REMARK VINA RESULT:      -5.7      5.373     10.958
REMARK  Name = ZINC95486372
REMARK  18 active torsions:
REMARK  status: ('A' for Active; 'I' for Inactive)
REMARK    1  A    between atoms: C1_1  and  C2_2
REMARK    2  A    between atoms: C2_2  and  C3_3
REMARK    3  A    between atoms: C3_3  and  C4_4
REMARK    4  A    between atoms: C3_3  and  C6_6
REMARK    5  A    between atoms: C4_4  and  C5_5
REMARK    6  A    between atoms: C6_6  and  C7_7
REMARK    7  A    between atoms: C7_7  and  C8_8
REMARK    8  A    between atoms: C8_8  and  C9_9
REMARK    9  A    between atoms: C9_9  and  C10_11
REMARK   10  A    between atoms: C9_9  and  C11_12
REMARK   11  A    between atoms: C15_18  and  C35_51
REMARK   12  A    between atoms: C27_31  and  O1_34
REMARK   13  A    between atoms: O1_34  and  C29_35
REMARK   14  A    between atoms: C30_37  and  O6_50
REMARK   15  A    between atoms: C31_39  and  O5_49
REMARK   16  A    between atoms: C32_41  and  O4_48
REMARK   17  A    between atoms: C33_43  and  C34_46
REMARK   18  A    between atoms: C34_46  and  O3_47
REMARK                            x       y       z     vdW  Elec       q    Type
REMARK                         _______ _______ _______ _____ _____    ______ ____
ROOT
ATOM      8  C   UNL     1      47.570  19.953  20.073  0.00  0.00    -0.009 C 
ATOM      9  C   UNL     1      46.909  20.433  18.755  0.00  0.00    +0.003 C 
ATOM     10  C   UNL     1      46.785  19.178  17.844  0.00  0.00    +0.012 C 
ATOM     11  C   UNL     1      47.815  18.217  18.468  0.00  0.00    +0.001 C 
ATOM     12  C   UNL     1      47.732  16.790  18.035  0.00  0.00    +0.027 C 
ATOM     13  C   UNL     1      46.432  16.306  17.419  0.00  0.00    +0.069 C 
ATOM     14  C   UNL     1      46.658  14.895  16.919  0.00  0.00    -0.059 C 
ATOM     15  C   UNL     1      47.364  14.017  17.600  0.00  0.00    -0.076 C 
ATOM     16  C   UNL     1      47.953  14.388  18.943  0.00  0.00    -0.078 C 
ATOM     17  C   UNL     1      49.004  13.460  19.538  0.00  0.00    +0.065 C 
ATOM     18  C   UNL     1      48.763  12.020  19.088  0.00  0.00    +0.033 C 
ATOM     19  C   UNL     1      48.805  11.977  17.558  0.00  0.00    +0.166 C 
ATOM     36  C   UNL     1      46.971  15.074  19.901  0.00  0.00    +0.030 C 
ATOM     37  C   UNL     1      47.545  12.644  17.012  0.00  0.00    +0.067 C 
ATOM     38  C   UNL     1      48.083  15.881  19.226  0.00  0.00    -0.091 C 
ATOM     39  C   UNL     1      49.132  16.473  20.162  0.00  0.00    +0.051 C 
ATOM     40  C   UNL     1      48.528  17.702  20.858  0.00  0.00    +0.028 C 
ATOM     41  C   UNL     1      47.542  18.414  19.970  0.00  0.00    -0.045 C 
ATOM     42  C   UNL     1      46.120  17.979  20.337  0.00  0.00    +0.018 C 
ENDROOT
BRANCH   8   7
ATOM      7  C   UNL     1      46.746  20.409  21.276  0.00  0.00    -0.008 C 
ATOM     43  C   UNL     1      47.685  20.885  22.386  0.00  0.00    +0.010 C 
BRANCH   7   6
ATOM      6  C   UNL     1      45.827  21.560  20.858  0.00  0.00    +0.003 C 
BRANCH   6   5
ATOM      5  C   UNL     1      44.370  21.162  21.101  0.00  0.00    +0.002 C 
BRANCH   5   4
ATOM      4  C   UNL     1      43.580  21.301  19.798  0.00  0.00    +0.005 C 
BRANCH   4   3
ATOM      3  C   UNL     1      42.777  20.024  19.549  0.00  0.00    -0.020 C 
BRANCH   3   2
ATOM      1  C   UNL     1      41.130  18.860  21.025  0.00  0.00    +0.004 C 
ATOM      2  C   UNL     1      42.597  19.269  20.868  0.00  0.00    +0.002 C 
ENDBRANCH   3   2
BRANCH   3  44
ATOM     44  C   UNL     1      41.405  20.386  18.976  0.00  0.00    +0.001 C 
ATOM     45  C   UNL     1      41.329  21.897  18.752  0.00  0.00    +0.005 C 
ENDBRANCH   3  44
ENDBRANCH   4   3
ENDBRANCH   5   4
ENDBRANCH   6   5
ENDBRANCH   7   6
ENDBRANCH   8   7
BRANCH  19  20
ATOM     20  O   UNL     1      48.857  10.618  17.118  0.00  0.00    -0.360 OA
BRANCH  20  21
ATOM     21  C   UNL     1      50.060  10.276  16.427  0.00  0.00    +0.292 C 
ATOM     22  C   UNL     1      50.100  11.005  15.081  0.00  0.00    +0.142 C 
ATOM     25  C   UNL     1      51.418  10.682  14.373  0.00  0.00    +0.161 C 
ATOM     28  C   UNL     1      52.585  11.080  15.282  0.00  0.00    +0.170 C 
ATOM     31  C   UNL     1      52.449  10.348  16.621  0.00  0.00    +0.190 C 
ATOM     35  O   UNL     1      51.188  10.668  17.211  0.00  0.00    -0.375 OA
BRANCH  22  23
ATOM     23  O   UNL     1      49.003  10.572  14.272  0.00  0.00    -0.556 OA
ATOM     24  H   UNL     1      48.172  11.028  14.460  0.00  0.00    +0.395 HD
ENDBRANCH  22  23
BRANCH  25  26
ATOM     26  O   UNL     1      51.495  11.415  13.148  0.00  0.00    -0.556 OA
ATOM     27  H   UNL     1      51.117  12.303  13.198  0.00  0.00    +0.395 HD
ENDBRANCH  25  26
BRANCH  28  29
ATOM     29  O   UNL     1      53.820  10.718  14.662  0.00  0.00    -0.551 OA
ATOM     30  H   UNL     1      53.838  10.864  13.706  0.00  0.00    +0.395 HD
ENDBRANCH  28  29
BRANCH  31  32
ATOM     32  C   UNL     1      53.578  10.787  17.558  0.00  0.00    +0.223 C 
BRANCH  32  33
ATOM     33  O   UNL     1      53.048  11.642  18.572  0.00  0.00    -0.565 OA
ATOM     34  H   UNL     1      52.295  12.176  18.282  0.00  0.00    +0.384 HD
ENDBRANCH  32  33
ENDBRANCH  31  32
ENDBRANCH  20  21
ENDBRANCH  19  20
TORSDOF 14
ENDMDL
MODEL 6
REMARK VINA RESULT:      -5.7      5.724     11.740
REMARK  Name = ZINC95486372
REMARK  18 active torsions:
REMARK  status: ('A' for Active; 'I' for Inactive)
REMARK    1  A    between atoms: C1_1  and  C2_2
REMARK    2  A    between atoms: C2_2  and  C3_3
REMARK    3  A    between atoms: C3_3  and  C4_4
REMARK    4  A    between atoms: C3_3  and  C6_6
REMARK    5  A    between atoms: C4_4  and  C5_5
REMARK    6  A    between atoms: C6_6  and  C7_7
REMARK    7  A    between atoms: C7_7  and  C8_8
REMARK    8  A    between atoms: C8_8  and  C9_9
REMARK    9  A    between atoms: C9_9  and  C10_11
REMARK   10  A    between atoms: C9_9  and  C11_12
REMARK   11  A    between atoms: C15_18  and  C35_51
REMARK   12  A    between atoms: C27_31  and  O1_34
REMARK   13  A    between atoms: O1_34  and  C29_35
REMARK   14  A    between atoms: C30_37  and  O6_50
REMARK   15  A    between atoms: C31_39  and  O5_49
REMARK   16  A    between atoms: C32_41  and  O4_48
REMARK   17  A    between atoms: C33_43  and  C34_46
REMARK   18  A    between atoms: C34_46  and  O3_47
REMARK                            x       y       z     vdW  Elec       q    Type
REMARK                         _______ _______ _______ _____ _____    ______ ____
ROOT
ATOM      8  C   UNL     1      45.262  19.008  20.177  0.00  0.00    -0.009 C 
ATOM      9  C   UNL     1      45.045  19.307  18.672  0.00  0.00    +0.003 C 
ATOM     10  C   UNL     1      46.120  18.488  17.902  0.00  0.00    +0.012 C 
ATOM     11  C   UNL     1      47.163  18.204  18.998  0.00  0.00    +0.001 C 
ATOM     12  C   UNL     1      48.185  17.161  18.683  0.00  0.00    +0.027 C 
ATOM     13  C   UNL     1      47.874  16.171  17.576  0.00  0.00    +0.069 C 
ATOM     14  C   UNL     1      49.117  15.338  17.342  0.00  0.00    -0.059 C 
ATOM     15  C   UNL     1      49.870  14.913  18.334  0.00  0.00    -0.076 C 
ATOM     16  C   UNL     1      49.492  15.221  19.767  0.00  0.00    -0.078 C 
ATOM     17  C   UNL     1      50.540  14.983  20.845  0.00  0.00    +0.065 C 
ATOM     18  C   UNL     1      51.471  13.841  20.443  0.00  0.00    +0.033 C 
ATOM     19  C   UNL     1      52.135  14.203  19.111  0.00  0.00    +0.166 C 
ATOM     36  C   UNL     1      48.024  14.939  20.112  0.00  0.00    +0.030 C 
ATOM     37  C   UNL     1      51.094  14.105  17.999  0.00  0.00    +0.067 C 
ATOM     38  C   UNL     1      48.519  16.380  19.966  0.00  0.00    -0.091 C 
ATOM     39  C   UNL     1      48.468  17.228  21.232  0.00  0.00    +0.051 C 
ATOM     40  C   UNL     1      47.012  17.650  21.479  0.00  0.00    +0.028 C 
ATOM     41  C   UNL     1      46.260  17.831  20.188  0.00  0.00    -0.045 C 
ATOM     42  C   UNL     1      45.446  16.568  19.890  0.00  0.00    +0.018 C 
ENDROOT
BRANCH   8   7
ATOM      7  C   UNL     1      43.948  18.582  20.829  0.00  0.00    -0.008 C 
ATOM     43  C   UNL     1      43.732  19.386  22.113  0.00  0.00    +0.010 C 
BRANCH   7   6
ATOM      6  C   UNL     1      42.791  18.844  19.862  0.00  0.00    +0.003 C 
BRANCH   6   5
ATOM      5  C   UNL     1      41.492  19.007  20.654  0.00  0.00    +0.002 C 
BRANCH   5   4
ATOM      4  C   UNL     1      40.850  20.352  20.308  0.00  0.00    +0.005 C 
BRANCH   4   3
ATOM      3  C   UNL     1      41.198  20.727  18.867  0.00  0.00    -0.020 C 
BRANCH   3   2
ATOM      1  C   UNL     1      38.852  21.478  18.441  0.00  0.00    +0.004 C 
ATOM      2  C   UNL     1      39.967  20.536  17.978  0.00  0.00    +0.002 C 
ENDBRANCH   3   2
BRANCH   3  44
ATOM     44  C   UNL     1      41.643  22.190  18.813  0.00  0.00    +0.001 C 
ATOM     45  C   UNL     1      42.950  22.354  19.592  0.00  0.00    +0.005 C 
ENDBRANCH   3  44
ENDBRANCH   4   3
ENDBRANCH   5   4
ENDBRANCH   6   5
ENDBRANCH   7   6
ENDBRANCH   8   7
BRANCH  19  20
ATOM     20  O   UNL     1      53.206  13.293  18.847  0.00  0.00    -0.360 OA
BRANCH  20  21
ATOM     21  C   UNL     1      54.255  13.333  19.816  0.00  0.00    +0.292 C 
ATOM     22  C   UNL     1      55.278  12.237  19.507  0.00  0.00    +0.142 C 
ATOM     25  C   UNL     1      56.429  12.324  20.513  0.00  0.00    +0.161 C 
ATOM     28  C   UNL     1      57.043  13.727  20.450  0.00  0.00    +0.170 C 
ATOM     31  C   UNL     1      55.951  14.765  20.723  0.00  0.00    +0.190 C 
ATOM     35  O   UNL     1      54.897  14.608  19.771  0.00  0.00    -0.375 OA
BRANCH  22  23
ATOM     23  O   UNL     1      54.651  10.956  19.608  0.00  0.00    -0.556 OA
ATOM     24  H   UNL     1      55.119  10.252  19.139  0.00  0.00    +0.395 HD
ENDBRANCH  22  23
BRANCH  25  26
ATOM     26  O   UNL     1      57.424  11.351  20.188  0.00  0.00    -0.556 OA
ATOM     27  H   UNL     1      58.304  11.562  20.528  0.00  0.00    +0.395 HD
ENDBRANCH  25  26
BRANCH  28  29
ATOM     29  O   UNL     1      58.071  13.843  21.435  0.00  0.00    -0.551 OA
ATOM     30  H   UNL     1      58.596  13.039  21.553  0.00  0.00    +0.395 HD
ENDBRANCH  28  29
BRANCH  31  32
ATOM     32  C   UNL     1      56.543  16.171  20.602  0.00  0.00    +0.223 C 
BRANCH  32  33
ATOM     33  O   UNL     1      57.551  16.177  19.590  0.00  0.00    -0.565 OA
ATOM     34  H   UNL     1      57.479  15.448  18.958  0.00  0.00    +0.384 HD
ENDBRANCH  32  33
ENDBRANCH  31  32
ENDBRANCH  20  21
ENDBRANCH  19  20
TORSDOF 14
ENDMDL
MODEL 7
REMARK VINA RESULT:      -5.6      1.530      2.801
REMARK  Name = ZINC95486372
REMARK  18 active torsions:
REMARK  status: ('A' for Active; 'I' for Inactive)
REMARK    1  A    between atoms: C1_1  and  C2_2
REMARK    2  A    between atoms: C2_2  and  C3_3
REMARK    3  A    between atoms: C3_3  and  C4_4
REMARK    4  A    between atoms: C3_3  and  C6_6
REMARK    5  A    between atoms: C4_4  and  C5_5
REMARK    6  A    between atoms: C6_6  and  C7_7
REMARK    7  A    between atoms: C7_7  and  C8_8
REMARK    8  A    between atoms: C8_8  and  C9_9
REMARK    9  A    between atoms: C9_9  and  C10_11
REMARK   10  A    between atoms: C9_9  and  C11_12
REMARK   11  A    between atoms: C15_18  and  C35_51
REMARK   12  A    between atoms: C27_31  and  O1_34
REMARK   13  A    between atoms: O1_34  and  C29_35
REMARK   14  A    between atoms: C30_37  and  O6_50
REMARK   15  A    between atoms: C31_39  and  O5_49
REMARK   16  A    between atoms: C32_41  and  O4_48
REMARK   17  A    between atoms: C33_43  and  C34_46
REMARK   18  A    between atoms: C34_46  and  O3_47
REMARK                            x       y       z     vdW  Elec       q    Type
REMARK                         _______ _______ _______ _____ _____    ______ ____
ROOT
ATOM      8  C   UNL     1      49.991  13.332  16.117  0.00  0.00    -0.009 C 
ATOM      9  C   UNL     1      51.275  14.196  16.208  0.00  0.00    +0.003 C 
ATOM     10  C   UNL     1      50.957  15.352  17.198  0.00  0.00    +0.012 C 
ATOM     11  C   UNL     1      49.417  15.369  17.199  0.00  0.00    +0.001 C 
ATOM     12  C   UNL     1      48.766  16.153  18.291  0.00  0.00    +0.027 C 
ATOM     13  C   UNL     1      49.587  16.469  19.528  0.00  0.00    +0.069 C 
ATOM     14  C   UNL     1      48.768  17.400  20.397  0.00  0.00    -0.059 C 
ATOM     15  C   UNL     1      47.472  17.244  20.560  0.00  0.00    -0.076 C 
ATOM     16  C   UNL     1      46.752  16.089  19.898  0.00  0.00    -0.078 C 
ATOM     17  C   UNL     1      45.230  16.128  19.861  0.00  0.00    +0.065 C 
ATOM     18  C   UNL     1      44.684  16.885  21.070  0.00  0.00    +0.033 C 
ATOM     19  C   UNL     1      45.264  18.302  21.058  0.00  0.00    +0.166 C 
ATOM     36  C   UNL     1      47.434  14.728  20.080  0.00  0.00    +0.030 C 
ATOM     37  C   UNL     1      46.743  18.232  21.431  0.00  0.00    +0.067 C 
ATOM     38  C   UNL     1      47.475  15.437  18.724  0.00  0.00    -0.091 C 
ATOM     39  C   UNL     1      46.756  14.725  17.584  0.00  0.00    +0.051 C 
ATOM     40  C   UNL     1      47.632  13.555  17.108  0.00  0.00    +0.028 C 
ATOM     41  C   UNL     1      49.098  13.864  17.257  0.00  0.00    -0.045 C 
ATOM     42  C   UNL     1      49.622  13.235  18.551  0.00  0.00    +0.018 C 
ENDROOT
BRANCH   8   7
ATOM      7  C   UNL     1      50.323  11.861  16.360  0.00  0.00    -0.008 C 
ATOM     43  C   UNL     1      49.658  11.003  15.283  0.00  0.00    +0.010 C 
BRANCH   7   6
ATOM      6  C   UNL     1      51.840  11.665  16.304  0.00  0.00    +0.003 C 
BRANCH   6   5
ATOM      5  C   UNL     1      52.228  10.444  17.141  0.00  0.00    +0.002 C 
BRANCH   5   4
ATOM      4  C   UNL     1      52.390  10.860  18.604  0.00  0.00    +0.005 C 
BRANCH   4   3
ATOM      3  C   UNL     1      53.326  12.066  18.691  0.00  0.00    -0.020 C 
BRANCH   3   2
ATOM      1  C   UNL     1      53.534  14.385  19.598  0.00  0.00    +0.004 C 
ATOM      2  C   UNL     1      52.790  13.054  19.729  0.00  0.00    +0.002 C 
ENDBRANCH   3   2
BRANCH   3  44
ATOM     44  C   UNL     1      54.724  11.599  19.105  0.00  0.00    +0.001 C 
ATOM     45  C   UNL     1      54.601  10.425  20.078  0.00  0.00    +0.005 C 
ENDBRANCH   3  44
ENDBRANCH   4   3
ENDBRANCH   5   4
ENDBRANCH   6   5
ENDBRANCH   7   6
ENDBRANCH   8   7
BRANCH  19  20
ATOM     20  O   UNL     1      44.568  19.112  22.009  0.00  0.00    -0.360 OA
BRANCH  20  21
ATOM     21  C   UNL     1      43.771  20.142  21.421  0.00  0.00    +0.292 C 
ATOM     22  C   UNL     1      44.679  21.132  20.685  0.00  0.00    +0.142 C 
ATOM     25  C   UNL     1      43.815  22.199  20.008  0.00  0.00    +0.161 C 
ATOM     28  C   UNL     1      42.820  21.513  19.066  0.00  0.00    +0.170 C 
ATOM     31  C   UNL     1      41.984  20.509  19.865  0.00  0.00    +0.190 C 
ATOM     35  O   UNL     1      42.851  19.564  20.494  0.00  0.00    -0.375 OA
BRANCH  22  23
ATOM     23  O   UNL     1      45.563  21.755  21.620  0.00  0.00    -0.556 OA
ATOM     24  H   UNL     1      45.133  22.403  22.195  0.00  0.00    +0.395 HD
ENDBRANCH  22  23
BRANCH  25  26
ATOM     26  O   UNL     1      44.649  23.086  19.259  0.00  0.00    -0.556 OA
ATOM     27  H   UNL     1      45.564  22.785  19.173  0.00  0.00    +0.395 HD
ENDBRANCH  25  26
BRANCH  28  29
ATOM     29  O   UNL     1      41.960  22.494  18.482  0.00  0.00    -0.551 OA
ATOM     30  H   UNL     1      42.034  23.371  18.884  0.00  0.00    +0.395 HD
ENDBRANCH  28  29
BRANCH  31  32
ATOM     32  C   UNL     1      41.029  19.775  18.920  0.00  0.00    +0.223 C 
BRANCH  32  33
ATOM     33  O   UNL     1      41.481  19.928  17.574  0.00  0.00    -0.565 OA
ATOM     34  H   UNL     1      41.237  19.195  16.991  0.00  0.00    +0.384 HD
ENDBRANCH  32  33
ENDBRANCH  31  32
ENDBRANCH  20  21
ENDBRANCH  19  20
TORSDOF 14
ENDMDL
MODEL 8
REMARK VINA RESULT:      -5.6      1.343      3.276
REMARK  Name = ZINC95486372
REMARK  18 active torsions:
REMARK  status: ('A' for Active; 'I' for Inactive)
REMARK    1  A    between atoms: C1_1  and  C2_2
REMARK    2  A    between atoms: C2_2  and  C3_3
REMARK    3  A    between atoms: C3_3  and  C4_4
REMARK    4  A    between atoms: C3_3  and  C6_6
REMARK    5  A    between atoms: C4_4  and  C5_5
REMARK    6  A    between atoms: C6_6  and  C7_7
REMARK    7  A    between atoms: C7_7  and  C8_8
REMARK    8  A    between atoms: C8_8  and  C9_9
REMARK    9  A    between atoms: C9_9  and  C10_11
REMARK   10  A    between atoms: C9_9  and  C11_12
REMARK   11  A    between atoms: C15_18  and  C35_51
REMARK   12  A    between atoms: C27_31  and  O1_34
REMARK   13  A    between atoms: O1_34  and  C29_35
REMARK   14  A    between atoms: C30_37  and  O6_50
REMARK   15  A    between atoms: C31_39  and  O5_49
REMARK   16  A    between atoms: C32_41  and  O4_48
REMARK   17  A    between atoms: C33_43  and  C34_46
REMARK   18  A    between atoms: C34_46  and  O3_47
REMARK                            x       y       z     vdW  Elec       q    Type
REMARK                         _______ _______ _______ _____ _____    ______ ____
ROOT
ATOM      8  C   UNL     1      51.270  13.228  20.457  0.00  0.00    -0.009 C 
ATOM      9  C   UNL     1      50.691  12.117  21.369  0.00  0.00    +0.003 C 
ATOM     10  C   UNL     1      49.220  12.521  21.673  0.00  0.00    +0.012 C 
ATOM     11  C   UNL     1      49.223  14.030  21.361  0.00  0.00    +0.001 C 
ATOM     12  C   UNL     1      47.885  14.682  21.239  0.00  0.00    +0.027 C 
ATOM     13  C   UNL     1      46.682  13.795  20.973  0.00  0.00    +0.069 C 
ATOM     14  C   UNL     1      45.444  14.663  21.060  0.00  0.00    -0.059 C 
ATOM     15  C   UNL     1      45.411  15.884  20.570  0.00  0.00    -0.076 C 
ATOM     16  C   UNL     1      46.620  16.457  19.864  0.00  0.00    -0.078 C 
ATOM     17  C   UNL     1      46.643  17.955  19.596  0.00  0.00    +0.065 C 
ATOM     18  C   UNL     1      45.223  18.487  19.409  0.00  0.00    +0.033 C 
ATOM     19  C   UNL     1      44.417  18.173  20.673  0.00  0.00    +0.166 C 
ATOM     36  C   UNL     1      47.244  15.527  18.815  0.00  0.00    +0.030 C 
ATOM     37  C   UNL     1      44.138  16.673  20.720  0.00  0.00    +0.067 C 
ATOM     38  C   UNL     1      47.950  15.767  20.151  0.00  0.00    -0.091 C 
ATOM     39  C   UNL     1      49.299  16.473  20.068  0.00  0.00    +0.051 C 
ATOM     40  C   UNL     1      50.351  15.462  19.583  0.00  0.00    +0.028 C 
ATOM     41  C   UNL     1      50.039  14.067  20.056  0.00  0.00    -0.045 C 
ATOM     42  C   UNL     1      49.332  13.296  18.938  0.00  0.00    +0.018 C 
ENDROOT
BRANCH   8   7
ATOM      7  C   UNL     1      51.908  12.614  19.212  0.00  0.00    -0.008 C 
ATOM     43  C   UNL     1      53.301  13.213  19.005  0.00  0.00    +0.010 C 
BRANCH   7   6
ATOM      6  C   UNL     1      52.028  11.099  19.395  0.00  0.00    +0.003 C 
BRANCH   6   5
ATOM      5  C   UNL     1      52.147  10.429  18.025  0.00  0.00    +0.002 C 
BRANCH   5   4
ATOM      4  C   UNL     1      50.756  10.285  17.405  0.00  0.00    +0.005 C 
BRANCH   4   3
ATOM      3  C   UNL     1      50.810  10.691  15.931  0.00  0.00    -0.020 C 
BRANCH   3   2
ATOM      1  C   UNL     1      48.376  10.310  15.514  0.00  0.00    +0.004 C 
ATOM      2  C   UNL     1      49.490  11.358  15.538  0.00  0.00    +0.002 C 
ENDBRANCH   3   2
BRANCH   3  44
ATOM     44  C   UNL     1      51.963  11.674  15.714  0.00  0.00    +0.001 C 
ATOM     45  C   UNL     1      51.403  13.089  15.552  0.00  0.00    +0.005 C 
ENDBRANCH   3  44
ENDBRANCH   4   3
ENDBRANCH   5   4
ENDBRANCH   6   5
ENDBRANCH   7   6
ENDBRANCH   8   7
BRANCH  19  20
ATOM     20  O   UNL     1      43.180  18.890  20.642  0.00  0.00    -0.360 OA
BRANCH  20  21
ATOM     21  C   UNL     1      43.211  20.067  19.832  0.00  0.00    +0.292 C 
ATOM     22  C   UNL     1      41.779  20.500  19.507  0.00  0.00    +0.142 C 
ATOM     25  C   UNL     1      41.818  21.794  18.689  0.00  0.00    +0.161 C 
ATOM     28  C   UNL     1      42.581  22.861  19.479  0.00  0.00    +0.170 C 
ATOM     31  C   UNL     1      43.983  22.337  19.806  0.00  0.00    +0.190 C 
ATOM     35  O   UNL     1      43.874  21.116  20.540  0.00  0.00    -0.375 OA
BRANCH  22  23
ATOM     23  O   UNL     1      41.131  19.475  18.749  0.00  0.00    -0.556 OA
ATOM     24  H   UNL     1      41.037  18.636  19.222  0.00  0.00    +0.395 HD
ENDBRANCH  22  23
BRANCH  25  26
ATOM     26  O   UNL     1      40.484  22.244  18.442  0.00  0.00    -0.556 OA
ATOM     27  H   UNL     1      40.303  22.444  17.513  0.00  0.00    +0.395 HD
ENDBRANCH  25  26
BRANCH  28  29
ATOM     29  O   UNL     1      42.686  24.052  18.697  0.00  0.00    -0.551 OA
ATOM     30  H   UNL     1      41.854  24.536  18.604  0.00  0.00    +0.395 HD
ENDBRANCH  28  29
BRANCH  31  32
ATOM     32  C   UNL     1      44.731  23.374  20.648  0.00  0.00    +0.223 C 
BRANCH  32  33
ATOM     33  O   UNL     1      44.171  23.413  21.961  0.00  0.00    -0.565 OA
ATOM     34  H   UNL     1      43.772  24.264  22.194  0.00  0.00    +0.384 HD
ENDBRANCH  32  33
ENDBRANCH  31  32
ENDBRANCH  20  21
ENDBRANCH  19  20
TORSDOF 14
ENDMDL
MODEL 9
REMARK VINA RESULT:      -5.5      6.048     11.551
REMARK  Name = ZINC95486372
REMARK  18 active torsions:
REMARK  status: ('A' for Active; 'I' for Inactive)
REMARK    1  A    between atoms: C1_1  and  C2_2
REMARK    2  A    between atoms: C2_2  and  C3_3
REMARK    3  A    between atoms: C3_3  and  C4_4
REMARK    4  A    between atoms: C3_3  and  C6_6
REMARK    5  A    between atoms: C4_4  and  C5_5
REMARK    6  A    between atoms: C6_6  and  C7_7
REMARK    7  A    between atoms: C7_7  and  C8_8
REMARK    8  A    between atoms: C8_8  and  C9_9
REMARK    9  A    between atoms: C9_9  and  C10_11
REMARK   10  A    between atoms: C9_9  and  C11_12
REMARK   11  A    between atoms: C15_18  and  C35_51
REMARK   12  A    between atoms: C27_31  and  O1_34
REMARK   13  A    between atoms: O1_34  and  C29_35
REMARK   14  A    between atoms: C30_37  and  O6_50
REMARK   15  A    between atoms: C31_39  and  O5_49
REMARK   16  A    between atoms: C32_41  and  O4_48
REMARK   17  A    between atoms: C33_43  and  C34_46
REMARK   18  A    between atoms: C34_46  and  O3_47
REMARK                            x       y       z     vdW  Elec       q    Type
REMARK                         _______ _______ _______ _____ _____    ______ ____
ROOT
ATOM      8  C   UNL     1      45.438  18.044  22.425  0.00  0.00    -0.009 C 
ATOM      9  C   UNL     1      45.799  19.550  22.500  0.00  0.00    +0.003 C 
ATOM     10  C   UNL     1      47.256  19.679  21.973  0.00  0.00    +0.012 C 
ATOM     11  C   UNL     1      47.787  18.240  22.122  0.00  0.00    +0.001 C 
ATOM     12  C   UNL     1      49.063  17.930  21.409  0.00  0.00    +0.027 C 
ATOM     13  C   UNL     1      49.483  18.842  20.271  0.00  0.00    +0.069 C 
ATOM     14  C   UNL     1      50.870  18.420  19.833  0.00  0.00    -0.059 C 
ATOM     15  C   UNL     1      51.222  17.155  19.751  0.00  0.00    -0.076 C 
ATOM     16  C   UNL     1      50.224  16.062  20.066  0.00  0.00    -0.078 C 
ATOM     17  C   UNL     1      50.755  14.649  20.257  0.00  0.00    +0.065 C 
ATOM     18  C   UNL     1      52.012  14.431  19.415  0.00  0.00    +0.033 C 
ATOM     19  C   UNL     1      53.060  15.466  19.832  0.00  0.00    +0.166 C 
ATOM     36  C   UNL     1      48.858  16.235  19.388  0.00  0.00    +0.030 C 
ATOM     37  C   UNL     1      52.629  16.838  19.320  0.00  0.00    +0.067 C 
ATOM     38  C   UNL     1      49.012  16.483  20.891  0.00  0.00    -0.091 C 
ATOM     39  C   UNL     1      48.241  15.532  21.800  0.00  0.00    +0.051 C 
ATOM     40  C   UNL     1      46.758  15.935  21.786  0.00  0.00    +0.028 C 
ATOM     41  C   UNL     1      46.589  17.420  21.608  0.00  0.00    -0.045 C 
ATOM     42  C   UNL     1      46.297  17.728  20.137  0.00  0.00    +0.018 C 
ENDROOT
BRANCH   8   7
ATOM      7  C   UNL     1      44.114  17.851  21.686  0.00  0.00    -0.008 C 
ATOM     43  C   UNL     1      43.273  16.800  22.413  0.00  0.00    +0.010 C 
BRANCH   7   6
ATOM      6  C   UNL     1      43.352  19.179  21.652  0.00  0.00    +0.003 C 
BRANCH   6   5
ATOM      5  C   UNL     1      42.353  19.162  20.493  0.00  0.00    +0.002 C 
BRANCH   5   4
ATOM      4  C   UNL     1      42.628  20.348  19.566  0.00  0.00    +0.005 C 
BRANCH   4   3
ATOM      3  C   UNL     1      44.055  20.851  19.791  0.00  0.00    -0.020 C 
BRANCH   3   2
ATOM      1  C   UNL     1      46.296  21.109  18.715  0.00  0.00    +0.004 C 
ATOM      2  C   UNL     1      44.946  20.390  18.636  0.00  0.00    +0.002 C 
ENDBRANCH   3   2
BRANCH   3  44
ATOM     44  C   UNL     1      44.053  22.380  19.856  0.00  0.00    +0.001 C 
ATOM     45  C   UNL     1      44.530  22.832  21.239  0.00  0.00    +0.005 C 
ENDBRANCH   3  44
ENDBRANCH   4   3
ENDBRANCH   5   4
ENDBRANCH   6   5
ENDBRANCH   7   6
ENDBRANCH   8   7
BRANCH  19  20
ATOM     20  O   UNL     1      54.326  15.119  19.266  0.00  0.00    -0.360 OA
BRANCH  20  21
ATOM     21  C   UNL     1      55.299  14.705  20.228  0.00  0.00    +0.292 C 
ATOM     22  C   UNL     1      55.807  13.306  19.870  0.00  0.00    +0.142 C 
ATOM     25  C   UNL     1      56.891  12.893  20.870  0.00  0.00    +0.161 C 
ATOM     28  C   UNL     1      58.010  13.939  20.853  0.00  0.00    +0.170 C 
ATOM     31  C   UNL     1      57.417  15.314  21.174  0.00  0.00    +0.190 C 
ATOM     35  O   UNL     1      56.394  15.622  20.225  0.00  0.00    -0.375 OA
BRANCH  22  23
ATOM     23  O   UNL     1      54.723  12.375  19.928  0.00  0.00    -0.556 OA
ATOM     24  H   UNL     1      54.208  12.320  19.112  0.00  0.00    +0.395 HD
ENDBRANCH  22  23
BRANCH  25  26
ATOM     26  O   UNL     1      57.422  11.618  20.500  0.00  0.00    -0.556 OA
ATOM     27  H   UNL     1      58.344  11.488  20.759  0.00  0.00    +0.395 HD
ENDBRANCH  25  26
BRANCH  28  29
ATOM     29  O   UNL     1      58.994  13.602  21.833  0.00  0.00    -0.551 OA
ATOM     30  H   UNL     1      58.727  13.798  22.742  0.00  0.00    +0.395 HD
ENDBRANCH  28  29
BRANCH  31  32
ATOM     32  C   UNL     1      58.518  16.374  21.100  0.00  0.00    +0.223 C 
BRANCH  32  33
ATOM     33  O   UNL     1      58.353  17.148  19.910  0.00  0.00    -0.565 OA
ATOM     34  H   UNL     1      58.720  16.733  19.117  0.00  0.00    +0.384 HD
ENDBRANCH  32  33
ENDBRANCH  31  32
ENDBRANCH  20  21
ENDBRANCH  19  20
TORSDOF 14
ENDMDL
