MODEL 1
REMARK VINA RESULT:      -6.4      0.000      0.000
REMARK  Name = ZINC14727631
REMARK  15 active torsions:
REMARK  status: ('A' for Active; 'I' for Inactive)
REMARK    1  A    between atoms: C1_1  and  C2_2
REMARK    2  A    between atoms: C2_2  and  C24_31
REMARK    3  A    between atoms: C3_3  and  C4_4
REMARK    4  A    between atoms: C4_4  and  C5_5
REMARK    5  A    between atoms: C9_9  and  O2_13
REMARK    6  A    between atoms: C10_10  and  O1_11
REMARK    7  A    between atoms: O1_11  and  C11_12
REMARK    8  A    between atoms: C14_17  and  O7_30
REMARK    9  A    between atoms: C15_18  and  C19_24
REMARK   10  A    between atoms: C16_19  and  O5_23
REMARK   11  A    between atoms: C19_24  and  C20_25
REMARK   12  A    between atoms: C20_25  and  C21_26
REMARK   13  A    between atoms: C21_26  and  C22_27
REMARK   14  A    between atoms: C21_26  and  C23_28
REMARK   15  A    between atoms: C21_26  and  O6_29
REMARK                            x       y       z     vdW  Elec       q    Type
REMARK                         _______ _______ _______ _____ _____    ______ ____
ROOT
ATOM      6  C   UNL     1      50.369  19.484  19.876  0.00  0.00    +0.018 A 
ATOM      7  C   UNL     1      49.303  20.241  20.370  0.00  0.00    -0.226 A 
ATOM      8  C   UNL     1      49.444  20.984  21.553  0.00  0.00    +0.180 A 
ATOM      9  O   UNL     1      48.421  21.714  22.041  0.00  0.00    -0.225 OA
ATOM     10  C   UNL     1      47.209  21.786  21.452  0.00  0.00    +0.193 A 
ATOM     11  C   UNL     1      46.209  22.562  22.020  0.00  0.00    -0.033 A 
ATOM     12  C   UNL     1      44.962  22.642  21.421  0.00  0.00    +0.195 A 
ATOM     15  C   UNL     1      44.693  21.948  20.246  0.00  0.00    -0.169 A 
ATOM     23  C   UNL     1      45.675  21.168  19.664  0.00  0.00    +0.225 A 
ATOM     26  C   UNL     1      46.939  21.084  20.266  0.00  0.00    -0.267 A 
ATOM     27  C   UNL     1      50.661  20.966  22.223  0.00  0.00    -0.015 A 
ATOM     28  C   UNL     1      51.716  20.219  21.728  0.00  0.00    +0.165 A 
ATOM     31  C   UNL     1      48.005  20.262  19.667  0.00  0.00    +0.439 A 
ATOM     32  O   UNL     1      47.825  19.633  18.640  0.00  0.00    -0.421 OA
ATOM     33  C   UNL     1      51.571  19.477  20.553  0.00  0.00    +0.038 A 
ENDROOT
BRANCH  12  13
ATOM     13  O   UNL     1      43.992  23.406  21.986  0.00  0.00    -0.483 OA
ATOM     14  H   UNL     1      43.583  23.007  22.766  0.00  0.00    +0.400 HD
ENDBRANCH  12  13
BRANCH  23  24
ATOM     24  O   UNL     1      45.418  20.490  18.517  0.00  0.00    -0.466 OA
ATOM     25  H   UNL     1      46.103  20.586  17.842  0.00  0.00    +0.401 HD
ENDBRANCH  23  24
BRANCH  28  29
ATOM     29  O   UNL     1      52.902  20.208  22.389  0.00  0.00    -0.478 OA
ATOM     30  H   UNL     1      53.003  20.927  23.027  0.00  0.00    +0.398 HD
ENDBRANCH  28  29
BRANCH  33  34
ATOM     34  O   UNL     1      52.615  18.747  20.076  0.00  0.00    -0.313 OA
ATOM     35  C   UNL     1      52.715  17.393  20.518  0.00  0.00    +0.221 C 
ENDBRANCH  33  34
BRANCH   6   5
ATOM      5  C   UNL     1      50.208  18.686  18.609  0.00  0.00    +0.130 C 
BRANCH   5   4
ATOM      1  C   UNL     1      51.634  17.257  16.643  0.00  0.00    +0.075 C 
ATOM      2  C   UNL     1      51.553  18.760  16.573  0.00  0.00    -0.129 C 
ATOM      3  C   UNL     1      52.273  19.504  15.478  0.00  0.00    +0.073 C 
ATOM      4  C   UNL     1      50.858  19.421  17.466  0.00  0.00    -0.036 C 
ENDBRANCH   5   4
ENDBRANCH   6   5
BRANCH  15  16
ATOM     16  C   UNL     1      43.332  22.046  19.608  0.00  0.00    +0.104 C 
BRANCH  16  17
ATOM     17  C   UNL     1      42.636  20.685  19.682  0.00  0.00    +0.043 C 
BRANCH  17  18
ATOM     18  C   UNL     1      41.221  20.805  19.111  0.00  0.00    +0.126 C 
ATOM     21  C   UNL     1      41.022  19.755  18.017  0.00  0.00    +0.010 C 
ATOM     22  C   UNL     1      41.027  22.203  18.520  0.00  0.00    +0.008 C 
BRANCH  18  19
ATOM     19  O   UNL     1      40.266  20.594  20.154  0.00  0.00    -0.558 OA
ATOM     20  H   UNL     1      40.304  21.252  20.861  0.00  0.00    +0.377 HD
ENDBRANCH  18  19
ENDBRANCH  17  18
ENDBRANCH  16  17
ENDBRANCH  15  16
TORSDOF 10
ENDMDL
MODEL 2
REMARK VINA RESULT:      -6.1      3.008      4.950
REMARK  Name = ZINC14727631
REMARK  15 active torsions:
REMARK  status: ('A' for Active; 'I' for Inactive)
REMARK    1  A    between atoms: C1_1  and  C2_2
REMARK    2  A    between atoms: C2_2  and  C24_31
REMARK    3  A    between atoms: C3_3  and  C4_4
REMARK    4  A    between atoms: C4_4  and  C5_5
REMARK    5  A    between atoms: C9_9  and  O2_13
REMARK    6  A    between atoms: C10_10  and  O1_11
REMARK    7  A    between atoms: O1_11  and  C11_12
REMARK    8  A    between atoms: C14_17  and  O7_30
REMARK    9  A    between atoms: C15_18  and  C19_24
REMARK   10  A    between atoms: C16_19  and  O5_23
REMARK   11  A    between atoms: C19_24  and  C20_25
REMARK   12  A    between atoms: C20_25  and  C21_26
REMARK   13  A    between atoms: C21_26  and  C22_27
REMARK   14  A    between atoms: C21_26  and  C23_28
REMARK   15  A    between atoms: C21_26  and  O6_29
REMARK                            x       y       z     vdW  Elec       q    Type
REMARK                         _______ _______ _______ _____ _____    ______ ____
ROOT
ATOM      6  C   UNL     1      48.888  16.238  17.807  0.00  0.00    +0.018 A 
ATOM      7  C   UNL     1      47.831  16.903  18.434  0.00  0.00    -0.226 A 
ATOM      8  C   UNL     1      46.508  16.468  18.254  0.00  0.00    +0.180 A 
ATOM      9  O   UNL     1      45.480  17.105  18.850  0.00  0.00    -0.225 OA
ATOM     10  C   UNL     1      45.632  18.184  19.645  0.00  0.00    +0.193 A 
ATOM     11  C   UNL     1      44.520  18.781  20.221  0.00  0.00    -0.033 A 
ATOM     12  C   UNL     1      44.669  19.889  21.040  0.00  0.00    +0.195 A 
ATOM     15  C   UNL     1      45.928  20.421  21.294  0.00  0.00    -0.169 A 
ATOM     23  C   UNL     1      47.049  19.843  20.729  0.00  0.00    +0.225 A 
ATOM     26  C   UNL     1      46.906  18.720  19.900  0.00  0.00    -0.267 A 
ATOM     27  C   UNL     1      46.263  15.361  17.450  0.00  0.00    -0.015 A 
ATOM     28  C   UNL     1      47.312  14.703  16.835  0.00  0.00    +0.165 A 
ATOM     31  C   UNL     1      48.082  18.082  19.286  0.00  0.00    +0.439 A 
ATOM     32  O   UNL     1      49.208  18.505  19.473  0.00  0.00    -0.421 OA
ATOM     33  C   UNL     1      48.627  15.141  17.013  0.00  0.00    +0.038 A 
ENDROOT
BRANCH  12  13
ATOM     13  O   UNL     1      43.572  20.464  21.599  0.00  0.00    -0.483 OA
ATOM     14  H   UNL     1      42.852  19.844  21.778  0.00  0.00    +0.400 HD
ENDBRANCH  12  13
BRANCH  23  24
ATOM     24  O   UNL     1      48.280  20.357  20.975  0.00  0.00    -0.466 OA
ATOM     25  H   UNL     1      48.430  21.226  20.579  0.00  0.00    +0.401 HD
ENDBRANCH  23  24
BRANCH  28  29
ATOM     29  O   UNL     1      47.064  13.622  16.052  0.00  0.00    -0.478 OA
ATOM     30  H   UNL     1      46.546  12.931  16.488  0.00  0.00    +0.398 HD
ENDBRANCH  28  29
BRANCH  33  34
ATOM     34  O   UNL     1      49.652  14.485  16.403  0.00  0.00    -0.313 OA
ATOM     35  C   UNL     1      50.210  13.367  17.095  0.00  0.00    +0.221 C 
ENDBRANCH  33  34
BRANCH   6   5
ATOM      5  C   UNL     1      50.304  16.714  18.002  0.00  0.00    +0.130 C 
BRANCH   5   4
ATOM      1  C   UNL     1      52.436  18.540  18.243  0.00  0.00    +0.075 C 
ATOM      2  C   UNL     1      51.688  18.422  16.941  0.00  0.00    -0.129 C 
ATOM      3  C   UNL     1      52.049  19.313  15.781  0.00  0.00    +0.073 C 
ATOM      4  C   UNL     1      50.722  17.546  16.818  0.00  0.00    -0.036 C 
ENDBRANCH   5   4
ENDBRANCH   6   5
BRANCH  15  16
ATOM     16  C   UNL     1      46.071  21.627  22.186  0.00  0.00    +0.104 C 
BRANCH  16  17
ATOM     17  C   UNL     1      46.511  22.830  21.349  0.00  0.00    +0.043 C 
BRANCH  17  18
ATOM     18  C   UNL     1      45.289  23.681  20.998  0.00  0.00    +0.126 C 
ATOM     21  C   UNL     1      44.765  23.277  19.619  0.00  0.00    +0.010 C 
ATOM     22  C   UNL     1      45.685  25.159  20.982  0.00  0.00    +0.008 C 
BRANCH  18  19
ATOM     19  O   UNL     1      44.267  23.474  21.975  0.00  0.00    -0.558 OA
ATOM     20  H   UNL     1      43.795  22.636  21.880  0.00  0.00    +0.377 HD
ENDBRANCH  18  19
ENDBRANCH  17  18
ENDBRANCH  16  17
ENDBRANCH  15  16
TORSDOF 10
ENDMDL
MODEL 3
REMARK VINA RESULT:      -6.1      3.277      7.932
REMARK  Name = ZINC14727631
REMARK  15 active torsions:
REMARK  status: ('A' for Active; 'I' for Inactive)
REMARK    1  A    between atoms: C1_1  and  C2_2
REMARK    2  A    between atoms: C2_2  and  C24_31
REMARK    3  A    between atoms: C3_3  and  C4_4
REMARK    4  A    between atoms: C4_4  and  C5_5
REMARK    5  A    between atoms: C9_9  and  O2_13
REMARK    6  A    between atoms: C10_10  and  O1_11
REMARK    7  A    between atoms: O1_11  and  C11_12
REMARK    8  A    between atoms: C14_17  and  O7_30
REMARK    9  A    between atoms: C15_18  and  C19_24
REMARK   10  A    between atoms: C16_19  and  O5_23
REMARK   11  A    between atoms: C19_24  and  C20_25
REMARK   12  A    between atoms: C20_25  and  C21_26
REMARK   13  A    between atoms: C21_26  and  C22_27
REMARK   14  A    between atoms: C21_26  and  C23_28
REMARK   15  A    between atoms: C21_26  and  O6_29
REMARK                            x       y       z     vdW  Elec       q    Type
REMARK                         _______ _______ _______ _____ _____    ______ ____
ROOT
ATOM      6  C   UNL     1      45.457  20.446  19.439  0.00  0.00    +0.018 A 
ATOM      7  C   UNL     1      46.604  19.664  19.278  0.00  0.00    -0.226 A 
ATOM      8  C   UNL     1      47.799  20.010  19.928  0.00  0.00    +0.180 A 
ATOM      9  O   UNL     1      48.913  19.265  19.777  0.00  0.00    -0.225 OA
ATOM     10  C   UNL     1      48.971  18.158  19.008  0.00  0.00    +0.193 A 
ATOM     11  C   UNL     1      50.157  17.447  18.907  0.00  0.00    -0.033 A 
ATOM     12  C   UNL     1      50.224  16.308  18.120  0.00  0.00    +0.195 A 
ATOM     15  C   UNL     1      49.108  15.862  17.420  0.00  0.00    -0.169 A 
ATOM     23  C   UNL     1      47.916  16.557  17.506  0.00  0.00    +0.225 A 
ATOM     26  C   UNL     1      47.842  17.709  18.301  0.00  0.00    -0.267 A 
ATOM     27  C   UNL     1      47.826  21.136  20.742  0.00  0.00    -0.015 A 
ATOM     28  C   UNL     1      46.688  21.906  20.901  0.00  0.00    +0.165 A 
ATOM     31  C   UNL     1      46.585  18.468  18.413  0.00  0.00    +0.439 A 
ATOM     32  O   UNL     1      45.577  18.124  17.822  0.00  0.00    -0.421 OA
ATOM     33  C   UNL     1      45.501  21.561  20.250  0.00  0.00    +0.038 A 
ENDROOT
BRANCH  12  13
ATOM     13  O   UNL     1      51.391  15.620  18.030  0.00  0.00    -0.483 OA
ATOM     14  H   UNL     1      51.336  14.709  18.349  0.00  0.00    +0.400 HD
ENDBRANCH  12  13
BRANCH  23  24
ATOM     24  O   UNL     1      46.824  16.125  16.826  0.00  0.00    -0.466 OA
ATOM     25  H   UNL     1      46.242  15.550  17.341  0.00  0.00    +0.401 HD
ENDBRANCH  23  24
BRANCH  28  29
ATOM     29  O   UNL     1      46.724  23.005  21.698  0.00  0.00    -0.478 OA
ATOM     30  H   UNL     1      47.517  23.066  22.248  0.00  0.00    +0.398 HD
ENDBRANCH  28  29
BRANCH  33  34
ATOM     34  O   UNL     1      44.387  22.326  20.415  0.00  0.00    -0.313 OA
ATOM     35  C   UNL     1      44.235  23.447  19.544  0.00  0.00    +0.221 C 
ENDBRANCH  33  34
BRANCH   6   5
ATOM      5  C   UNL     1      44.180  20.071  18.734  0.00  0.00    +0.130 C 
BRANCH   5   4
ATOM      1  C   UNL     1      41.455  20.788  18.787  0.00  0.00    +0.075 C 
ATOM      2  C   UNL     1      41.985  19.768  19.761  0.00  0.00    -0.129 C 
ATOM      3  C   UNL     1      41.070  19.164  20.794  0.00  0.00    +0.073 C 
ATOM      4  C   UNL     1      43.244  19.407  19.711  0.00  0.00    -0.036 C 
ENDBRANCH   5   4
ENDBRANCH   6   5
BRANCH  15  16
ATOM     16  C   UNL     1      49.198  14.623  16.568  0.00  0.00    +0.104 C 
BRANCH  16  17
ATOM     17  C   UNL     1      48.537  13.453  17.299  0.00  0.00    +0.043 C 
BRANCH  17  18
ATOM     18  C   UNL     1      47.470  12.827  16.398  0.00  0.00    +0.126 C 
ATOM     21  C   UNL     1      46.164  12.680  17.181  0.00  0.00    +0.010 C 
ATOM     22  C   UNL     1      47.943  11.449  15.930  0.00  0.00    +0.008 C 
BRANCH  18  19
ATOM     19  O   UNL     1      47.253  13.666  15.262  0.00  0.00    -0.558 OA
ATOM     20  H   UNL     1      47.613  13.313  14.437  0.00  0.00    +0.377 HD
ENDBRANCH  18  19
ENDBRANCH  17  18
ENDBRANCH  16  17
ENDBRANCH  15  16
TORSDOF 10
ENDMDL
MODEL 4
REMARK VINA RESULT:      -6.1      2.086      2.885
REMARK  Name = ZINC14727631
REMARK  15 active torsions:
REMARK  status: ('A' for Active; 'I' for Inactive)
REMARK    1  A    between atoms: C1_1  and  C2_2
REMARK    2  A    between atoms: C2_2  and  C24_31
REMARK    3  A    between atoms: C3_3  and  C4_4
REMARK    4  A    between atoms: C4_4  and  C5_5
REMARK    5  A    between atoms: C9_9  and  O2_13
REMARK    6  A    between atoms: C10_10  and  O1_11
REMARK    7  A    between atoms: O1_11  and  C11_12
REMARK    8  A    between atoms: C14_17  and  O7_30
REMARK    9  A    between atoms: C15_18  and  C19_24
REMARK   10  A    between atoms: C16_19  and  O5_23
REMARK   11  A    between atoms: C19_24  and  C20_25
REMARK   12  A    between atoms: C20_25  and  C21_26
REMARK   13  A    between atoms: C21_26  and  C22_27
REMARK   14  A    between atoms: C21_26  and  C23_28
REMARK   15  A    between atoms: C21_26  and  O6_29
REMARK                            x       y       z     vdW  Elec       q    Type
REMARK                         _______ _______ _______ _____ _____    ______ ____
ROOT
ATOM      6  C   UNL     1      49.627  18.525  17.917  0.00  0.00    +0.018 A 
ATOM      7  C   UNL     1      48.808  19.361  18.680  0.00  0.00    -0.226 A 
ATOM      8  C   UNL     1      49.360  20.429  19.406  0.00  0.00    +0.180 A 
ATOM      9  O   UNL     1      48.581  21.240  20.150  0.00  0.00    -0.225 OA
ATOM     10  C   UNL     1      47.244  21.096  20.257  0.00  0.00    +0.193 A 
ATOM     11  C   UNL     1      46.514  21.975  21.043  0.00  0.00    -0.033 A 
ATOM     12  C   UNL     1      45.140  21.835  21.157  0.00  0.00    +0.195 A 
ATOM     15  C   UNL     1      44.473  20.813  20.490  0.00  0.00    -0.169 A 
ATOM     23  C   UNL     1      45.181  19.925  19.703  0.00  0.00    +0.225 A 
ATOM     26  C   UNL     1      46.571  20.062  19.583  0.00  0.00    -0.267 A 
ATOM     27  C   UNL     1      50.731  20.649  19.350  0.00  0.00    -0.015 A 
ATOM     28  C   UNL     1      51.537  19.821  18.590  0.00  0.00    +0.165 A 
ATOM     31  C   UNL     1      47.352  19.132  18.749  0.00  0.00    +0.439 A 
ATOM     32  O   UNL     1      46.820  18.219  18.143  0.00  0.00    -0.421 OA
ATOM     33  C   UNL     1      50.986  18.757  17.872  0.00  0.00    +0.038 A 
ENDROOT
BRANCH  12  13
ATOM     13  O   UNL     1      44.437  22.703  21.929  0.00  0.00    -0.483 OA
ATOM     14  H   UNL     1      43.786  22.279  22.505  0.00  0.00    +0.400 HD
ENDBRANCH  12  13
BRANCH  23  24
ATOM     24  O   UNL     1      44.535  18.927  19.049  0.00  0.00    -0.466 OA
ATOM     25  H   UNL     1      44.922  18.704  18.191  0.00  0.00    +0.401 HD
ENDBRANCH  23  24
BRANCH  28  29
ATOM     29  O   UNL     1      52.876  20.043  18.541  0.00  0.00    -0.478 OA
ATOM     30  H   UNL     1      53.371  19.621  19.256  0.00  0.00    +0.398 HD
ENDBRANCH  28  29
BRANCH  33  34
ATOM     34  O   UNL     1      51.789  17.949  17.127  0.00  0.00    -0.313 OA
ATOM     35  C   UNL     1      51.993  18.318  15.763  0.00  0.00    +0.221 C 
ENDBRANCH  33  34
BRANCH   6   5
ATOM      5  C   UNL     1      49.027  17.379  17.145  0.00  0.00    +0.130 C 
BRANCH   5   4
ATOM      1  C   UNL     1      47.351  15.135  16.832  0.00  0.00    +0.075 C 
ATOM      2  C   UNL     1      48.571  15.048  17.711  0.00  0.00    -0.129 C 
ATOM      3  C   UNL     1      48.871  13.775  18.459  0.00  0.00    +0.073 C 
ATOM      4  C   UNL     1      49.371  16.079  17.825  0.00  0.00    -0.036 C 
ENDBRANCH   5   4
ENDBRANCH   6   5
BRANCH  15  16
ATOM     16  C   UNL     1      42.979  20.674  20.626  0.00  0.00    +0.104 C 
BRANCH  16  17
ATOM     17  C   UNL     1      42.290  21.442  19.496  0.00  0.00    +0.043 C 
BRANCH  17  18
ATOM     18  C   UNL     1      41.352  20.500  18.738  0.00  0.00    +0.126 C 
ATOM     21  C   UNL     1      40.065  21.245  18.378  0.00  0.00    +0.010 C 
ATOM     22  C   UNL     1      41.016  19.297  19.621  0.00  0.00    +0.008 C 
BRANCH  18  19
ATOM     19  O   UNL     1      41.992  20.050  17.543  0.00  0.00    -0.558 OA
ATOM     20  H   UNL     1      42.956  20.003  17.605  0.00  0.00    +0.377 HD
ENDBRANCH  18  19
ENDBRANCH  17  18
ENDBRANCH  16  17
ENDBRANCH  15  16
TORSDOF 10
ENDMDL
MODEL 5
REMARK VINA RESULT:      -6.0      4.701      5.438
REMARK  Name = ZINC14727631
REMARK  15 active torsions:
REMARK  status: ('A' for Active; 'I' for Inactive)
REMARK    1  A    between atoms: C1_1  and  C2_2
REMARK    2  A    between atoms: C2_2  and  C24_31
REMARK    3  A    between atoms: C3_3  and  C4_4
REMARK    4  A    between atoms: C4_4  and  C5_5
REMARK    5  A    between atoms: C9_9  and  O2_13
REMARK    6  A    between atoms: C10_10  and  O1_11
REMARK    7  A    between atoms: O1_11  and  C11_12
REMARK    8  A    between atoms: C14_17  and  O7_30
REMARK    9  A    between atoms: C15_18  and  C19_24
REMARK   10  A    between atoms: C16_19  and  O5_23
REMARK   11  A    between atoms: C19_24  and  C20_25
REMARK   12  A    between atoms: C20_25  and  C21_26
REMARK   13  A    between atoms: C21_26  and  C22_27
REMARK   14  A    between atoms: C21_26  and  C23_28
REMARK   15  A    between atoms: C21_26  and  O6_29
REMARK                            x       y       z     vdW  Elec       q    Type
REMARK                         _______ _______ _______ _____ _____    ______ ____
ROOT
ATOM      6  C   UNL     1      47.756  14.243  19.076  0.00  0.00    +0.018 A 
ATOM      7  C   UNL     1      46.814  15.090  19.665  0.00  0.00    -0.226 A 
ATOM      8  C   UNL     1      46.286  14.796  20.933  0.00  0.00    +0.180 A 
ATOM      9  O   UNL     1      45.373  15.604  21.510  0.00  0.00    -0.225 OA
ATOM     10  C   UNL     1      44.901  16.727  20.932  0.00  0.00    +0.193 A 
ATOM     11  C   UNL     1      43.962  17.504  21.594  0.00  0.00    -0.033 A 
ATOM     12  C   UNL     1      43.474  18.661  21.007  0.00  0.00    +0.195 A 
ATOM     15  C   UNL     1      43.914  19.060  19.750  0.00  0.00    -0.169 A 
ATOM     23  C   UNL     1      44.848  18.300  19.072  0.00  0.00    +0.225 A 
ATOM     26  C   UNL     1      45.347  17.129  19.661  0.00  0.00    -0.267 A 
ATOM     27  C   UNL     1      46.720  13.656  21.599  0.00  0.00    -0.015 A 
ATOM     28  C   UNL     1      47.656  12.823  21.014  0.00  0.00    +0.165 A 
ATOM     31  C   UNL     1      46.345  16.300  18.963  0.00  0.00    +0.439 A 
ATOM     32  O   UNL     1      46.766  16.601  17.860  0.00  0.00    -0.421 OA
ATOM     33  C   UNL     1      48.176  13.116  19.751  0.00  0.00    +0.038 A 
ENDROOT
BRANCH  12  13
ATOM     13  O   UNL     1      42.555  19.413  21.666  0.00  0.00    -0.483 OA
ATOM     14  H   UNL     1      42.795  20.346  21.744  0.00  0.00    +0.400 HD
ENDBRANCH  12  13
BRANCH  23  24
ATOM     24  O   UNL     1      45.282  18.685  17.845  0.00  0.00    -0.466 OA
ATOM     25  H   UNL     1      45.414  17.953  17.227  0.00  0.00    +0.401 HD
ENDBRANCH  23  24
BRANCH  28  29
ATOM     29  O   UNL     1      48.074  11.712  21.673  0.00  0.00    -0.478 OA
ATOM     30  H   UNL     1      47.600  11.543  22.499  0.00  0.00    +0.398 HD
ENDBRANCH  28  29
BRANCH  33  34
ATOM     34  O   UNL     1      49.097  12.289  19.186  0.00  0.00    -0.313 OA
ATOM     35  C   UNL     1      50.465  12.512  19.529  0.00  0.00    +0.221 C 
ENDBRANCH  33  34
BRANCH   6   5
ATOM      5  C   UNL     1      48.314  14.563  17.714  0.00  0.00    +0.130 C 
BRANCH   5   4
ATOM      1  C   UNL     1      49.891  13.286  15.758  0.00  0.00    +0.075 C 
ATOM      2  C   UNL     1      48.394  13.112  15.752  0.00  0.00    -0.129 C 
ATOM      3  C   UNL     1      47.734  12.293  14.673  0.00  0.00    +0.073 C 
ATOM      4  C   UNL     1      47.665  13.675  16.684  0.00  0.00    -0.036 C 
ENDBRANCH   5   4
ENDBRANCH   6   5
BRANCH  15  16
ATOM     16  C   UNL     1      43.371  20.320  19.126  0.00  0.00    +0.104 C 
BRANCH  16  17
ATOM     17  C   UNL     1      42.073  20.002  18.381  0.00  0.00    +0.043 C 
BRANCH  17  18
ATOM     18  C   UNL     1      40.965  20.938  18.868  0.00  0.00    +0.126 C 
ATOM     21  C   UNL     1      39.737  20.785  17.968  0.00  0.00    +0.010 C 
ATOM     22  C   UNL     1      41.460  22.385  18.813  0.00  0.00    +0.008 C 
BRANCH  18  19
ATOM     19  O   UNL     1      40.615  20.606  20.213  0.00  0.00    -0.558 OA
ATOM     20  H   UNL     1      40.391  19.674  20.343  0.00  0.00    +0.377 HD
ENDBRANCH  18  19
ENDBRANCH  17  18
ENDBRANCH  16  17
ENDBRANCH  15  16
TORSDOF 10
ENDMDL
MODEL 6
REMARK VINA RESULT:      -5.9      3.019      4.095
REMARK  Name = ZINC14727631
REMARK  15 active torsions:
REMARK  status: ('A' for Active; 'I' for Inactive)
REMARK    1  A    between atoms: C1_1  and  C2_2
REMARK    2  A    between atoms: C2_2  and  C24_31
REMARK    3  A    between atoms: C3_3  and  C4_4
REMARK    4  A    between atoms: C4_4  and  C5_5
REMARK    5  A    between atoms: C9_9  and  O2_13
REMARK    6  A    between atoms: C10_10  and  O1_11
REMARK    7  A    between atoms: O1_11  and  C11_12
REMARK    8  A    between atoms: C14_17  and  O7_30
REMARK    9  A    between atoms: C15_18  and  C19_24
REMARK   10  A    between atoms: C16_19  and  O5_23
REMARK   11  A    between atoms: C19_24  and  C20_25
REMARK   12  A    between atoms: C20_25  and  C21_26
REMARK   13  A    between atoms: C21_26  and  C22_27
REMARK   14  A    between atoms: C21_26  and  C23_28
REMARK   15  A    between atoms: C21_26  and  O6_29
REMARK                            x       y       z     vdW  Elec       q    Type
REMARK                         _______ _______ _______ _____ _____    ______ ____
ROOT
ATOM      6  C   UNL     1      49.243  16.929  18.434  0.00  0.00    +0.018 A 
ATOM      7  C   UNL     1      48.065  16.875  19.183  0.00  0.00    -0.226 A 
ATOM      8  C   UNL     1      47.782  15.758  19.985  0.00  0.00    +0.180 A 
ATOM      9  O   UNL     1      46.646  15.692  20.709  0.00  0.00    -0.225 OA
ATOM     10  C   UNL     1      45.712  16.664  20.719  0.00  0.00    +0.193 A 
ATOM     11  C   UNL     1      44.570  16.518  21.493  0.00  0.00    -0.033 A 
ATOM     12  C   UNL     1      43.606  17.514  21.510  0.00  0.00    +0.195 A 
ATOM     15  C   UNL     1      43.765  18.669  20.754  0.00  0.00    -0.169 A 
ATOM     23  C   UNL     1      44.895  18.834  19.974  0.00  0.00    +0.225 A 
ATOM     26  C   UNL     1      45.874  17.831  19.954  0.00  0.00    -0.267 A 
ATOM     27  C   UNL     1      48.694  14.710  20.033  0.00  0.00    -0.015 A 
ATOM     28  C   UNL     1      49.861  14.770  19.293  0.00  0.00    +0.165 A 
ATOM     31  C   UNL     1      47.089  17.980  19.135  0.00  0.00    +0.439 A 
ATOM     32  O   UNL     1      47.281  18.971  18.452  0.00  0.00    -0.421 OA
ATOM     33  C   UNL     1      50.138  15.881  18.492  0.00  0.00    +0.038 A 
ENDROOT
BRANCH  12  13
ATOM     13  O   UNL     1      42.493  17.359  22.273  0.00  0.00    -0.483 OA
ATOM     14  H   UNL     1      41.787  17.988  22.069  0.00  0.00    +0.400 HD
ENDBRANCH  12  13
BRANCH  23  24
ATOM     24  O   UNL     1      45.056  19.961  19.235  0.00  0.00    -0.466 OA
ATOM     25  H   UNL     1      44.241  20.466  19.106  0.00  0.00    +0.401 HD
ENDBRANCH  23  24
BRANCH  28  29
ATOM     29  O   UNL     1      50.746  13.742  19.346  0.00  0.00    -0.478 OA
ATOM     30  H   UNL     1      51.352  13.782  20.100  0.00  0.00    +0.398 HD
ENDBRANCH  28  29
BRANCH  33  34
ATOM     34  O   UNL     1      51.290  15.929  17.769  0.00  0.00    -0.313 OA
ATOM     35  C   UNL     1      51.293  15.257  16.509  0.00  0.00    +0.221 C 
ENDBRANCH  33  34
BRANCH   6   5
ATOM      5  C   UNL     1      49.537  18.129  17.571  0.00  0.00    +0.130 C 
BRANCH   5   4
ATOM      1  C   UNL     1      51.759  19.138  16.162  0.00  0.00    +0.075 C 
ATOM      2  C   UNL     1      51.585  19.456  17.624  0.00  0.00    -0.129 C 
ATOM      3  C   UNL     1      52.623  20.276  18.346  0.00  0.00    +0.073 C 
ATOM      4  C   UNL     1      50.532  19.019  18.269  0.00  0.00    -0.036 C 
ENDBRANCH   5   4
ENDBRANCH   6   5
BRANCH  15  16
ATOM     16  C   UNL     1      42.706  19.742  20.782  0.00  0.00    +0.104 C 
BRANCH  16  17
ATOM     17  C   UNL     1      41.604  19.396  19.780  0.00  0.00    +0.043 C 
BRANCH  17  18
ATOM     18  C   UNL     1      41.573  20.452  18.673  0.00  0.00    +0.126 C 
ATOM     21  C   UNL     1      41.992  21.806  19.249  0.00  0.00    +0.010 C 
ATOM     22  C   UNL     1      40.155  20.555  18.106  0.00  0.00    +0.008 C 
BRANCH  18  19
ATOM     19  O   UNL     1      42.475  20.077  17.630  0.00  0.00    -0.558 OA
ATOM     20  H   UNL     1      42.286  20.491  16.777  0.00  0.00    +0.377 HD
ENDBRANCH  18  19
ENDBRANCH  17  18
ENDBRANCH  16  17
ENDBRANCH  15  16
TORSDOF 10
ENDMDL
MODEL 7
REMARK VINA RESULT:      -5.9      4.388      8.258
REMARK  Name = ZINC14727631
REMARK  15 active torsions:
REMARK  status: ('A' for Active; 'I' for Inactive)
REMARK    1  A    between atoms: C1_1  and  C2_2
REMARK    2  A    between atoms: C2_2  and  C24_31
REMARK    3  A    between atoms: C3_3  and  C4_4
REMARK    4  A    between atoms: C4_4  and  C5_5
REMARK    5  A    between atoms: C9_9  and  O2_13
REMARK    6  A    between atoms: C10_10  and  O1_11
REMARK    7  A    between atoms: O1_11  and  C11_12
REMARK    8  A    between atoms: C14_17  and  O7_30
REMARK    9  A    between atoms: C15_18  and  C19_24
REMARK   10  A    between atoms: C16_19  and  O5_23
REMARK   11  A    between atoms: C19_24  and  C20_25
REMARK   12  A    between atoms: C20_25  and  C21_26
REMARK   13  A    between atoms: C21_26  and  C22_27
REMARK   14  A    between atoms: C21_26  and  C23_28
REMARK   15  A    between atoms: C21_26  and  O6_29
REMARK                            x       y       z     vdW  Elec       q    Type
REMARK                         _______ _______ _______ _____ _____    ______ ____
ROOT
ATOM      6  C   UNL     1      46.400  19.654  19.509  0.00  0.00    +0.018 A 
ATOM      7  C   UNL     1      46.260  18.281  19.296  0.00  0.00    -0.226 A 
ATOM      8  C   UNL     1      45.141  17.594  19.794  0.00  0.00    +0.180 A 
ATOM      9  O   UNL     1      44.996  16.267  19.599  0.00  0.00    -0.225 OA
ATOM     10  C   UNL     1      45.892  15.510  18.932  0.00  0.00    +0.193 A 
ATOM     11  C   UNL     1      45.667  14.150  18.775  0.00  0.00    -0.033 A 
ATOM     12  C   UNL     1      46.582  13.366  18.090  0.00  0.00    +0.195 A 
ATOM     15  C   UNL     1      47.735  13.927  17.552  0.00  0.00    -0.169 A 
ATOM     23  C   UNL     1      47.979  15.279  17.698  0.00  0.00    +0.225 A 
ATOM     26  C   UNL     1      47.057  16.078  18.390  0.00  0.00    -0.267 A 
ATOM     27  C   UNL     1      44.169  18.300  20.493  0.00  0.00    -0.015 A 
ATOM     28  C   UNL     1      44.310  19.660  20.697  0.00  0.00    +0.165 A 
ATOM     31  C   UNL     1      47.289  17.523  18.559  0.00  0.00    +0.439 A 
ATOM     32  O   UNL     1      48.282  18.066  18.110  0.00  0.00    -0.421 OA
ATOM     33  C   UNL     1      45.427  20.340  20.205  0.00  0.00    +0.038 A 
ENDROOT
BRANCH  12  13
ATOM     13  O   UNL     1      46.350  12.036  17.942  0.00  0.00    -0.483 OA
ATOM     14  H   UNL     1      45.599  11.709  18.455  0.00  0.00    +0.400 HD
ENDBRANCH  12  13
BRANCH  23  24
ATOM     24  O   UNL     1      49.103  15.831  17.174  0.00  0.00    -0.466 OA
ATOM     25  H   UNL     1      49.621  16.345  17.809  0.00  0.00    +0.401 HD
ENDBRANCH  23  24
BRANCH  28  29
ATOM     29  O   UNL     1      43.355  20.342  21.381  0.00  0.00    -0.478 OA
ATOM     30  H   UNL     1      43.607  20.571  22.286  0.00  0.00    +0.398 HD
ENDBRANCH  28  29
BRANCH  33  34
ATOM     34  O   UNL     1      45.554  21.679  20.411  0.00  0.00    -0.313 OA
ATOM     35  C   UNL     1      44.868  22.543  19.505  0.00  0.00    +0.221 C 
ENDBRANCH  33  34
BRANCH   6   5
ATOM      5  C   UNL     1      47.607  20.383  18.976  0.00  0.00    +0.130 C 
BRANCH   5   4
ATOM      1  C   UNL     1      50.304  20.934  18.377  0.00  0.00    +0.075 C 
ATOM      2  C   UNL     1      49.861  20.811  19.811  0.00  0.00    -0.129 C 
ATOM      3  C   UNL     1      50.867  20.938  20.925  0.00  0.00    +0.073 C 
ATOM      4  C   UNL     1      48.599  20.593  20.090  0.00  0.00    -0.036 C 
ENDBRANCH   5   4
ENDBRANCH   6   5
BRANCH  15  16
ATOM     16  C   UNL     1      48.720  13.060  16.810  0.00  0.00    +0.104 C 
BRANCH  16  17
ATOM     17  C   UNL     1      48.383  13.068  15.318  0.00  0.00    +0.043 C 
BRANCH  17  18
ATOM     18  C   UNL     1      49.345  12.139  14.574  0.00  0.00    +0.126 C 
ATOM     21  C   UNL     1      50.589  11.901  15.431  0.00  0.00    +0.010 C 
ATOM     22  C   UNL     1      49.753  12.784  13.248  0.00  0.00    +0.008 C 
BRANCH  18  19
ATOM     19  O   UNL     1      48.698  10.891  14.316  0.00  0.00    -0.558 OA
ATOM     20  H   UNL     1      48.059  10.631  14.993  0.00  0.00    +0.377 HD
ENDBRANCH  18  19
ENDBRANCH  17  18
ENDBRANCH  16  17
ENDBRANCH  15  16
TORSDOF 10
ENDMDL
MODEL 8
REMARK VINA RESULT:      -5.6      4.578      8.546
REMARK  Name = ZINC14727631
REMARK  15 active torsions:
REMARK  status: ('A' for Active; 'I' for Inactive)
REMARK    1  A    between atoms: C1_1  and  C2_2
REMARK    2  A    between atoms: C2_2  and  C24_31
REMARK    3  A    between atoms: C3_3  and  C4_4
REMARK    4  A    between atoms: C4_4  and  C5_5
REMARK    5  A    between atoms: C9_9  and  O2_13
REMARK    6  A    between atoms: C10_10  and  O1_11
REMARK    7  A    between atoms: O1_11  and  C11_12
REMARK    8  A    between atoms: C14_17  and  O7_30
REMARK    9  A    between atoms: C15_18  and  C19_24
REMARK   10  A    between atoms: C16_19  and  O5_23
REMARK   11  A    between atoms: C19_24  and  C20_25
REMARK   12  A    between atoms: C20_25  and  C21_26
REMARK   13  A    between atoms: C21_26  and  C22_27
REMARK   14  A    between atoms: C21_26  and  C23_28
REMARK   15  A    between atoms: C21_26  and  O6_29
REMARK                            x       y       z     vdW  Elec       q    Type
REMARK                         _______ _______ _______ _____ _____    ______ ____
ROOT
ATOM      6  C   UNL     1      48.289  18.257  19.592  0.00  0.00    +0.018 A 
ATOM      7  C   UNL     1      47.827  17.124  18.917  0.00  0.00    -0.226 A 
ATOM      8  C   UNL     1      46.472  16.761  18.979  0.00  0.00    +0.180 A 
ATOM      9  O   UNL     1      46.015  15.667  18.335  0.00  0.00    -0.225 OA
ATOM     10  C   UNL     1      46.801  14.852  17.602  0.00  0.00    +0.193 A 
ATOM     11  C   UNL     1      46.251  13.746  16.971  0.00  0.00    -0.033 A 
ATOM     12  C   UNL     1      47.052  12.905  16.214  0.00  0.00    +0.195 A 
ATOM     15  C   UNL     1      48.413  13.152  16.078  0.00  0.00    -0.169 A 
ATOM     23  C   UNL     1      48.981  14.248  16.700  0.00  0.00    +0.225 A 
ATOM     26  C   UNL     1      48.177  15.104  17.466  0.00  0.00    -0.267 A 
ATOM     27  C   UNL     1      45.593  17.549  19.713  0.00  0.00    -0.015 A 
ATOM     28  C   UNL     1      46.054  18.672  20.376  0.00  0.00    +0.165 A 
ATOM     31  C   UNL     1      48.754  16.280  18.139  0.00  0.00    +0.439 A 
ATOM     32  O   UNL     1      49.940  16.545  18.054  0.00  0.00    -0.421 OA
ATOM     33  C   UNL     1      47.404  19.028  20.316  0.00  0.00    +0.038 A 
ENDROOT
BRANCH  12  13
ATOM     13  O   UNL     1      46.501  11.826  15.600  0.00  0.00    -0.483 OA
ATOM     14  H   UNL     1      45.610  11.611  15.907  0.00  0.00    +0.400 HD
ENDBRANCH  12  13
BRANCH  23  24
ATOM     24  O   UNL     1      50.309  14.495  16.570  0.00  0.00    -0.466 OA
ATOM     25  H   UNL     1      50.627  14.466  15.657  0.00  0.00    +0.401 HD
ENDBRANCH  23  24
BRANCH  28  29
ATOM     29  O   UNL     1      45.188  19.435  21.091  0.00  0.00    -0.478 OA
ATOM     30  H   UNL     1      44.258  19.206  20.956  0.00  0.00    +0.398 HD
ENDBRANCH  28  29
BRANCH  33  34
ATOM     34  O   UNL     1      47.845  20.135  20.972  0.00  0.00    -0.313 OA
ATOM     35  C   UNL     1      48.196  19.978  22.347  0.00  0.00    +0.221 C 
ENDBRANCH  33  34
BRANCH   6   5
ATOM      5  C   UNL     1      49.745  18.637  19.524  0.00  0.00    +0.130 C 
BRANCH   5   4
ATOM      1  C   UNL     1      52.275  19.142  18.391  0.00  0.00    +0.075 C 
ATOM      2  C   UNL     1      51.108  20.034  18.057  0.00  0.00    -0.129 C 
ATOM      3  C   UNL     1      51.302  21.224  17.154  0.00  0.00    +0.073 C 
ATOM      4  C   UNL     1      49.923  19.776  18.554  0.00  0.00    -0.036 C 
ENDBRANCH   5   4
ENDBRANCH   6   5
BRANCH  15  16
ATOM     16  C   UNL     1      49.269  12.227  15.253  0.00  0.00    +0.104 C 
BRANCH  16  17
ATOM     17  C   UNL     1      49.256  12.686  13.793  0.00  0.00    +0.043 C 
BRANCH  17  18
ATOM     18  C   UNL     1      50.679  12.639  13.232  0.00  0.00    +0.126 C 
ATOM     21  C   UNL     1      50.667  13.102  11.774  0.00  0.00    +0.010 C 
ATOM     22  C   UNL     1      51.210  11.206  13.309  0.00  0.00    +0.008 C 
BRANCH  18  19
ATOM     19  O   UNL     1      51.522  13.501  13.999  0.00  0.00    -0.558 OA
ATOM     20  H   UNL     1      52.453  13.475  13.738  0.00  0.00    +0.377 HD
ENDBRANCH  18  19
ENDBRANCH  17  18
ENDBRANCH  16  17
ENDBRANCH  15  16
TORSDOF 10
ENDMDL
MODEL 9
REMARK VINA RESULT:      -5.6      3.738      5.300
REMARK  Name = ZINC14727631
REMARK  15 active torsions:
REMARK  status: ('A' for Active; 'I' for Inactive)
REMARK    1  A    between atoms: C1_1  and  C2_2
REMARK    2  A    between atoms: C2_2  and  C24_31
REMARK    3  A    between atoms: C3_3  and  C4_4
REMARK    4  A    between atoms: C4_4  and  C5_5
REMARK    5  A    between atoms: C9_9  and  O2_13
REMARK    6  A    between atoms: C10_10  and  O1_11
REMARK    7  A    between atoms: O1_11  and  C11_12
REMARK    8  A    between atoms: C14_17  and  O7_30
REMARK    9  A    between atoms: C15_18  and  C19_24
REMARK   10  A    between atoms: C16_19  and  O5_23
REMARK   11  A    between atoms: C19_24  and  C20_25
REMARK   12  A    between atoms: C20_25  and  C21_26
REMARK   13  A    between atoms: C21_26  and  C22_27
REMARK   14  A    between atoms: C21_26  and  C23_28
REMARK   15  A    between atoms: C21_26  and  O6_29
REMARK                            x       y       z     vdW  Elec       q    Type
REMARK                         _______ _______ _______ _____ _____    ______ ____
ROOT
ATOM      6  C   UNL     1      48.502  15.298  18.022  0.00  0.00    +0.018 A 
ATOM      7  C   UNL     1      47.395  15.727  18.759  0.00  0.00    -0.226 A 
ATOM      8  C   UNL     1      46.609  14.804  19.467  0.00  0.00    +0.180 A 
ATOM      9  O   UNL     1      45.536  15.205  20.178  0.00  0.00    -0.225 OA
ATOM     10  C   UNL     1      45.137  16.491  20.263  0.00  0.00    +0.193 A 
ATOM     11  C   UNL     1      44.021  16.821  21.017  0.00  0.00    -0.033 A 
ATOM     12  C   UNL     1      43.606  18.140  21.111  0.00  0.00    +0.195 A 
ATOM     15  C   UNL     1      44.297  19.150  20.452  0.00  0.00    -0.169 A 
ATOM     23  C   UNL     1      45.412  18.844  19.694  0.00  0.00    +0.225 A 
ATOM     26  C   UNL     1      45.837  17.511  19.596  0.00  0.00    -0.267 A 
ATOM     27  C   UNL     1      46.951  13.457  19.433  0.00  0.00    -0.015 A 
ATOM     28  C   UNL     1      48.050  13.038  18.706  0.00  0.00    +0.165 A 
ATOM     31  C   UNL     1      47.022  17.155  18.797  0.00  0.00    +0.439 A 
ATOM     32  O   UNL     1      47.665  17.998  18.198  0.00  0.00    -0.421 OA
ATOM     33  C   UNL     1      48.828  13.958  17.999  0.00  0.00    +0.038 A 
ENDROOT
BRANCH  12  13
ATOM     13  O   UNL     1      42.512  18.450  21.853  0.00  0.00    -0.483 OA
ATOM     14  H   UNL     1      41.932  17.697  22.031  0.00  0.00    +0.400 HD
ENDBRANCH  12  13
BRANCH  23  24
ATOM     24  O   UNL     1      46.091  19.826  19.049  0.00  0.00    -0.466 OA
ATOM     25  H   UNL     1      46.589  19.520  18.279  0.00  0.00    +0.401 HD
ENDBRANCH  23  24
BRANCH  28  29
ATOM     29  O   UNL     1      48.377  11.720  18.679  0.00  0.00    -0.478 OA
ATOM     30  H   UNL     1      48.253  11.302  17.815  0.00  0.00    +0.398 HD
ENDBRANCH  28  29
BRANCH  33  34
ATOM     34  O   UNL     1      49.907  13.534  17.288  0.00  0.00    -0.313 OA
ATOM     35  C   UNL     1      49.668  13.083  15.954  0.00  0.00    +0.221 C 
ENDBRANCH  33  34
BRANCH   6   5
ATOM      5  C   UNL     1      49.337  16.295  17.262  0.00  0.00    +0.130 C 
BRANCH   5   4
ATOM      1  C   UNL     1      50.939  18.481  16.489  0.00  0.00    +0.075 C 
ATOM      2  C   UNL     1      51.303  17.673  17.708  0.00  0.00    -0.129 C 
ATOM      3  C   UNL     1      52.548  18.004  18.489  0.00  0.00    +0.073 C 
ATOM      4  C   UNL     1      50.536  16.681  18.089  0.00  0.00    -0.036 C 
ENDBRANCH   5   4
ENDBRANCH   6   5
BRANCH  15  16
ATOM     16  C   UNL     1      43.832  20.579  20.563  0.00  0.00    +0.104 C 
BRANCH  16  17
ATOM     17  C   UNL     1      44.614  21.285  21.673  0.00  0.00    +0.043 C 
BRANCH  17  18
ATOM     18  C   UNL     1      44.885  22.734  21.263  0.00  0.00    +0.126 C 
ATOM     21  C   UNL     1      44.511  22.926  19.792  0.00  0.00    +0.010 C 
ATOM     22  C   UNL     1      46.369  23.050  21.458  0.00  0.00    +0.008 C 
BRANCH  18  19
ATOM     19  O   UNL     1      44.101  23.613  22.072  0.00  0.00    -0.558 OA
ATOM     20  H   UNL     1      44.428  24.522  22.097  0.00  0.00    +0.377 HD
ENDBRANCH  18  19
ENDBRANCH  17  18
ENDBRANCH  16  17
ENDBRANCH  15  16
TORSDOF 10
ENDMDL
