MODEL 1
REMARK VINA RESULT:      -6.3      0.000      0.000
REMARK  Name = ZINC05998557
REMARK  7 active torsions:
REMARK  status: ('A' for Active; 'I' for Inactive)
REMARK    1  A    between atoms: C1_1  and  O1_2
REMARK    2  A    between atoms: O1_2  and  C2_3
REMARK    3  A    between atoms: C3_4  and  O7_23
REMARK    4  A    between atoms: C7_8  and  O2_9
REMARK    5  A    between atoms: C10_13  and  C11_15
REMARK    6  A    between atoms: C14_18  and  O6_22
REMARK    7  A    between atoms: C15_19  and  O5_21
REMARK                            x       y       z     vdW  Elec       q    Type
REMARK                         _______ _______ _______ _____ _____    ______ ____
ROOT
ATOM      3  C   UNL     1      43.160  20.475  19.663  0.00  0.00    +0.013 A 
ATOM      4  C   UNL     1      43.618  21.782  19.503  0.00  0.00    +0.172 A 
ATOM      7  C   UNL     1      44.975  22.051  19.438  0.00  0.00    -0.009 A 
ATOM      8  C   UNL     1      45.893  21.017  19.531  0.00  0.00    +0.178 A 
ATOM      9  C   UNL     1      45.436  19.697  19.691  0.00  0.00    -0.253 A 
ATOM     10  C   UNL     1      46.432  18.616  19.788  0.00  0.00    +0.424 A 
ATOM     11  C   UNL     1      47.798  18.979  19.710  0.00  0.00    -0.140 A 
ATOM     12  C   UNL     1      48.136  20.287  19.553  0.00  0.00    +0.208 A 
ATOM     23  O   UNL     1      46.092  17.452  19.927  0.00  0.00    -0.449 OA
ATOM     24  O   UNL     1      47.220  21.264  19.467  0.00  0.00    -0.216 OA
ATOM     25  C   UNL     1      44.064  19.430  19.763  0.00  0.00    +0.202 A 
ENDROOT
BRANCH  12  13
ATOM     13  C   UNL     1      49.565  20.645  19.476  0.00  0.00    -0.067 A 
ATOM     14  C   UNL     1      50.301  20.850  20.645  0.00  0.00    +0.075 A 
ATOM     15  C   UNL     1      51.635  21.184  20.571  0.00  0.00    +0.016 A 
ATOM     16  C   UNL     1      52.253  21.317  19.335  0.00  0.00    +0.110 A 
ATOM     19  C   UNL     1      51.525  21.115  18.163  0.00  0.00    +0.079 A 
ATOM     22  C   UNL     1      50.188  20.774  18.231  0.00  0.00    +0.057 A 
BRANCH  16  17
ATOM     17  O   UNL     1      53.569  21.646  19.267  0.00  0.00    -0.485 OA
ATOM     18  H   UNL     1      54.150  21.049  19.758  0.00  0.00    +0.395 HD
ENDBRANCH  16  17
BRANCH  19  20
ATOM     20  O   UNL     1      52.133  21.248  16.954  0.00  0.00    -0.483 OA
ATOM     21  H   UNL     1      51.845  22.024  16.453  0.00  0.00    +0.392 HD
ENDBRANCH  19  20
ENDBRANCH  12  13
BRANCH   3   2
ATOM      1  C   UNL     1      41.140  20.030  18.487  0.00  0.00    +0.230 C 
ATOM      2  O   UNL     1      41.823  20.225  19.727  0.00  0.00    -0.315 OA
ENDBRANCH   3   2
BRANCH   4   5
ATOM      5  O   UNL     1      42.724  22.801  19.411  0.00  0.00    -0.475 OA
ATOM      6  H   UNL     1      42.508  23.213  20.258  0.00  0.00    +0.400 HD
ENDBRANCH   4   5
BRANCH  25  26
ATOM     26  O   UNL     1      43.623  18.156  19.923  0.00  0.00    -0.466 OA
ATOM     27  H   UNL     1      43.484  17.900  20.846  0.00  0.00    +0.406 HD
ENDBRANCH  25  26
TORSDOF 6
ENDMDL
MODEL 2
REMARK VINA RESULT:      -6.0      4.016      6.967
REMARK  Name = ZINC05998557
REMARK  7 active torsions:
REMARK  status: ('A' for Active; 'I' for Inactive)
REMARK    1  A    between atoms: C1_1  and  O1_2
REMARK    2  A    between atoms: O1_2  and  C2_3
REMARK    3  A    between atoms: C3_4  and  O7_23
REMARK    4  A    between atoms: C7_8  and  O2_9
REMARK    5  A    between atoms: C10_13  and  C11_15
REMARK    6  A    between atoms: C14_18  and  O6_22
REMARK    7  A    between atoms: C15_19  and  O5_21
REMARK                            x       y       z     vdW  Elec       q    Type
REMARK                         _______ _______ _______ _____ _____    ______ ____
ROOT
ATOM      3  C   UNL     1      46.692  13.973  17.869  0.00  0.00    +0.013 A 
ATOM      4  C   UNL     1      46.987  14.886  16.857  0.00  0.00    +0.172 A 
ATOM      7  C   UNL     1      46.621  16.216  16.979  0.00  0.00    -0.009 A 
ATOM      8  C   UNL     1      45.955  16.653  18.113  0.00  0.00    +0.178 A 
ATOM      9  C   UNL     1      45.656  15.736  19.136  0.00  0.00    -0.253 A 
ATOM     10  C   UNL     1      44.947  16.224  20.332  0.00  0.00    +0.424 A 
ATOM     11  C   UNL     1      44.612  17.599  20.375  0.00  0.00    -0.140 A 
ATOM     12  C   UNL     1      44.948  18.403  19.331  0.00  0.00    +0.208 A 
ATOM     23  O   UNL     1      44.662  15.473  21.251  0.00  0.00    -0.449 OA
ATOM     24  O   UNL     1      45.593  17.948  18.246  0.00  0.00    -0.216 OA
ATOM     25  C   UNL     1      46.022  14.391  19.007  0.00  0.00    +0.202 A 
ENDROOT
BRANCH  12  13
ATOM     13  C   UNL     1      44.588  19.833  19.394  0.00  0.00    -0.067 A 
ATOM     14  C   UNL     1      45.585  20.802  19.525  0.00  0.00    +0.075 A 
ATOM     15  C   UNL     1      45.248  22.136  19.584  0.00  0.00    +0.016 A 
ATOM     16  C   UNL     1      43.916  22.522  19.512  0.00  0.00    +0.110 A 
ATOM     19  C   UNL     1      42.915  21.561  19.382  0.00  0.00    +0.079 A 
ATOM     22  C   UNL     1      43.247  20.221  19.317  0.00  0.00    +0.057 A 
BRANCH  16  17
ATOM     17  O   UNL     1      43.588  23.839  19.569  0.00  0.00    -0.485 OA
ATOM     18  H   UNL     1      43.907  24.357  18.818  0.00  0.00    +0.395 HD
ENDBRANCH  16  17
BRANCH  19  20
ATOM     20  O   UNL     1      41.611  21.942  19.314  0.00  0.00    -0.483 OA
ATOM     21  H   UNL     1      41.276  22.344  20.128  0.00  0.00    +0.392 HD
ENDBRANCH  19  20
ENDBRANCH  12  13
BRANCH   3   2
ATOM      1  C   UNL     1      46.125  11.796  17.092  0.00  0.00    +0.230 C 
ATOM      2  O   UNL     1      47.057  12.668  17.736  0.00  0.00    -0.315 OA
ENDBRANCH   3   2
BRANCH   4   5
ATOM      5  O   UNL     1      47.640  14.466  15.742  0.00  0.00    -0.475 OA
ATOM      6  H   UNL     1      47.531  15.050  14.979  0.00  0.00    +0.400 HD
ENDBRANCH   4   5
BRANCH  25  26
ATOM     26  O   UNL     1      45.728  13.505  19.993  0.00  0.00    -0.466 OA
ATOM     27  H   UNL     1      46.182  13.681  20.829  0.00  0.00    +0.406 HD
ENDBRANCH  25  26
TORSDOF 6
ENDMDL
MODEL 3
REMARK VINA RESULT:      -5.8      3.102      6.773
REMARK  Name = ZINC05998557
REMARK  7 active torsions:
REMARK  status: ('A' for Active; 'I' for Inactive)
REMARK    1  A    between atoms: C1_1  and  O1_2
REMARK    2  A    between atoms: O1_2  and  C2_3
REMARK    3  A    between atoms: C3_4  and  O7_23
REMARK    4  A    between atoms: C7_8  and  O2_9
REMARK    5  A    between atoms: C10_13  and  C11_15
REMARK    6  A    between atoms: C14_18  and  O6_22
REMARK    7  A    between atoms: C15_19  and  O5_21
REMARK                            x       y       z     vdW  Elec       q    Type
REMARK                         _______ _______ _______ _____ _____    ______ ____
ROOT
ATOM      3  C   UNL     1      50.421  16.404  17.237  0.00  0.00    +0.013 A 
ATOM      4  C   UNL     1      51.172  17.407  17.849  0.00  0.00    +0.172 A 
ATOM      7  C   UNL     1      50.549  18.494  18.438  0.00  0.00    -0.009 A 
ATOM      8  C   UNL     1      49.166  18.594  18.424  0.00  0.00    +0.178 A 
ATOM      9  C   UNL     1      48.405  17.585  17.809  0.00  0.00    -0.253 A 
ATOM     10  C   UNL     1      46.938  17.713  17.807  0.00  0.00    +0.424 A 
ATOM     11  C   UNL     1      46.383  18.856  18.432  0.00  0.00    -0.140 A 
ATOM     12  C   UNL     1      47.208  19.776  19.000  0.00  0.00    +0.208 A 
ATOM     23  O   UNL     1      46.227  16.867  17.289  0.00  0.00    -0.449 OA
ATOM     24  O   UNL     1      48.544  19.649  18.995  0.00  0.00    -0.216 OA
ATOM     25  C   UNL     1      49.039  16.490  17.210  0.00  0.00    +0.202 A 
ENDROOT
BRANCH  12  13
ATOM     13  C   UNL     1      46.611  20.960  19.646  0.00  0.00    -0.067 A 
ATOM     14  C   UNL     1      47.188  21.496  20.799  0.00  0.00    +0.075 A 
ATOM     15  C   UNL     1      46.629  22.602  21.400  0.00  0.00    +0.016 A 
ATOM     16  C   UNL     1      45.491  23.188  20.862  0.00  0.00    +0.110 A 
ATOM     19  C   UNL     1      44.909  22.659  19.711  0.00  0.00    +0.079 A 
ATOM     22  C   UNL     1      45.468  21.553  19.101  0.00  0.00    +0.057 A 
BRANCH  16  17
ATOM     17  O   UNL     1      44.944  24.279  21.458  0.00  0.00    -0.485 OA
ATOM     18  H   UNL     1      44.841  25.039  20.869  0.00  0.00    +0.395 HD
ENDBRANCH  16  17
BRANCH  19  20
ATOM     20  O   UNL     1      43.794  23.234  19.188  0.00  0.00    -0.483 OA
ATOM     21  H   UNL     1      43.192  23.601  19.852  0.00  0.00    +0.392 HD
ENDBRANCH  19  20
ENDBRANCH  12  13
BRANCH   3   2
ATOM      1  C   UNL     1      51.290  14.203  17.492  0.00  0.00    +0.230 C 
ATOM      2  O   UNL     1      51.048  15.340  16.662  0.00  0.00    -0.315 OA
ENDBRANCH   3   2
BRANCH   4   5
ATOM      5  O   UNL     1      52.528  17.316  17.867  0.00  0.00    -0.475 OA
ATOM      6  H   UNL     1      52.898  16.808  17.132  0.00  0.00    +0.400 HD
ENDBRANCH   4   5
BRANCH  25  26
ATOM     26  O   UNL     1      48.304  15.517  16.611  0.00  0.00    -0.466 OA
ATOM     27  H   UNL     1      47.759  15.831  15.876  0.00  0.00    +0.406 HD
ENDBRANCH  25  26
TORSDOF 6
ENDMDL
MODEL 4
REMARK VINA RESULT:      -5.8      2.147      7.470
REMARK  Name = ZINC05998557
REMARK  7 active torsions:
REMARK  status: ('A' for Active; 'I' for Inactive)
REMARK    1  A    between atoms: C1_1  and  O1_2
REMARK    2  A    between atoms: O1_2  and  C2_3
REMARK    3  A    between atoms: C3_4  and  O7_23
REMARK    4  A    between atoms: C7_8  and  O2_9
REMARK    5  A    between atoms: C10_13  and  C11_15
REMARK    6  A    between atoms: C14_18  and  O6_22
REMARK    7  A    between atoms: C15_19  and  O5_21
REMARK                            x       y       z     vdW  Elec       q    Type
REMARK                         _______ _______ _______ _____ _____    ______ ____
ROOT
ATOM      3  C   UNL     1      50.353  19.029  17.961  0.00  0.00    +0.013 A 
ATOM      4  C   UNL     1      50.002  20.170  18.682  0.00  0.00    +0.172 A 
ATOM      7  C   UNL     1      48.737  20.295  19.232  0.00  0.00    -0.009 A 
ATOM      8  C   UNL     1      47.806  19.281  19.070  0.00  0.00    +0.178 A 
ATOM      9  C   UNL     1      48.155  18.129  18.345  0.00  0.00    -0.253 A 
ATOM     10  C   UNL     1      47.148  17.065  18.186  0.00  0.00    +0.424 A 
ATOM     11  C   UNL     1      45.881  17.274  18.781  0.00  0.00    -0.140 A 
ATOM     12  C   UNL     1      45.643  18.426  19.464  0.00  0.00    +0.208 A 
ATOM     23  O   UNL     1      47.397  16.043  17.567  0.00  0.00    -0.449 OA
ATOM     24  O   UNL     1      46.568  19.388  19.602  0.00  0.00    -0.216 OA
ATOM     25  C   UNL     1      49.433  18.009  17.785  0.00  0.00    +0.202 A 
ENDROOT
BRANCH  12  13
ATOM     13  C   UNL     1      44.316  18.626  20.076  0.00  0.00    -0.067 A 
ATOM     14  C   UNL     1      43.934  17.868  21.186  0.00  0.00    +0.075 A 
ATOM     15  C   UNL     1      42.694  18.056  21.756  0.00  0.00    +0.016 A 
ATOM     16  C   UNL     1      41.821  18.998  21.231  0.00  0.00    +0.110 A 
ATOM     19  C   UNL     1      42.194  19.757  20.123  0.00  0.00    +0.079 A 
ATOM     22  C   UNL     1      43.438  19.578  19.550  0.00  0.00    +0.057 A 
BRANCH  16  17
ATOM     17  O   UNL     1      40.599  19.180  21.797  0.00  0.00    -0.485 OA
ATOM     18  H   UNL     1      40.007  18.421  21.708  0.00  0.00    +0.395 HD
ENDBRANCH  16  17
BRANCH  19  20
ATOM     20  O   UNL     1      41.334  20.678  19.610  0.00  0.00    -0.483 OA
ATOM     21  H   UNL     1      41.635  21.077  18.781  0.00  0.00    +0.392 HD
ENDBRANCH  19  20
ENDBRANCH  12  13
BRANCH   3   2
ATOM      1  C   UNL     1      51.802  19.489  16.130  0.00  0.00    +0.230 C 
ATOM      2  O   UNL     1      51.600  18.920  17.426  0.00  0.00    -0.315 OA
ENDBRANCH   3   2
BRANCH   4   5
ATOM      5  O   UNL     1      50.910  21.168  18.846  0.00  0.00    -0.475 OA
ATOM      6  H   UNL     1      50.525  22.054  18.835  0.00  0.00    +0.400 HD
ENDBRANCH   4   5
BRANCH  25  26
ATOM     26  O   UNL     1      49.769  16.897  17.080  0.00  0.00    -0.466 OA
ATOM     27  H   UNL     1      50.518  17.022  16.482  0.00  0.00    +0.406 HD
ENDBRANCH  25  26
TORSDOF 6
ENDMDL
MODEL 5
REMARK VINA RESULT:      -5.7      1.835      3.060
REMARK  Name = ZINC05998557
REMARK  7 active torsions:
REMARK  status: ('A' for Active; 'I' for Inactive)
REMARK    1  A    between atoms: C1_1  and  O1_2
REMARK    2  A    between atoms: O1_2  and  C2_3
REMARK    3  A    between atoms: C3_4  and  O7_23
REMARK    4  A    between atoms: C7_8  and  O2_9
REMARK    5  A    between atoms: C10_13  and  C11_15
REMARK    6  A    between atoms: C14_18  and  O6_22
REMARK    7  A    between atoms: C15_19  and  O5_21
REMARK                            x       y       z     vdW  Elec       q    Type
REMARK                         _______ _______ _______ _____ _____    ______ ____
ROOT
ATOM      3  C   UNL     1      43.090  19.035  21.348  0.00  0.00    +0.013 A 
ATOM      4  C   UNL     1      43.837  17.889  21.617  0.00  0.00    +0.172 A 
ATOM      7  C   UNL     1      45.140  17.773  21.161  0.00  0.00    -0.009 A 
ATOM      8  C   UNL     1      45.715  18.802  20.432  0.00  0.00    +0.178 A 
ATOM      9  C   UNL     1      44.966  19.960  20.159  0.00  0.00    -0.253 A 
ATOM     10  C   UNL     1      45.598  21.040  19.381  0.00  0.00    +0.424 A 
ATOM     11  C   UNL     1      46.933  20.840  18.956  0.00  0.00    -0.140 A 
ATOM     12  C   UNL     1      47.572  19.682  19.273  0.00  0.00    +0.208 A 
ATOM     23  O   UNL     1      44.995  22.067  19.116  0.00  0.00    -0.449 OA
ATOM     24  O   UNL     1      46.985  18.705  19.982  0.00  0.00    -0.216 OA
ATOM     25  C   UNL     1      43.647  20.070  20.616  0.00  0.00    +0.202 A 
ENDROOT
BRANCH  12  13
ATOM     13  C   UNL     1      48.963  19.492  18.820  0.00  0.00    -0.067 A 
ATOM     14  C   UNL     1      49.407  18.226  18.433  0.00  0.00    +0.075 A 
ATOM     15  C   UNL     1      50.707  18.051  18.009  0.00  0.00    +0.016 A 
ATOM     16  C   UNL     1      51.577  19.131  17.965  0.00  0.00    +0.110 A 
ATOM     19  C   UNL     1      51.141  20.398  18.350  0.00  0.00    +0.079 A 
ATOM     22  C   UNL     1      49.838  20.581  18.770  0.00  0.00    +0.057 A 
BRANCH  16  17
ATOM     17  O   UNL     1      52.857  18.954  17.546  0.00  0.00    -0.485 OA
ATOM     18  H   UNL     1      52.946  18.844  16.589  0.00  0.00    +0.395 HD
ENDBRANCH  16  17
BRANCH  19  20
ATOM     20  O   UNL     1      51.997  21.453  18.307  0.00  0.00    -0.483 OA
ATOM     21  H   UNL     1      52.927  21.210  18.415  0.00  0.00    +0.392 HD
ENDBRANCH  19  20
ENDBRANCH  12  13
BRANCH   3   2
ATOM      1  C   UNL     1      40.769  18.791  20.885  0.00  0.00    +0.230 C 
ATOM      2  O   UNL     1      41.810  19.134  21.801  0.00  0.00    -0.315 OA
ENDBRANCH   3   2
BRANCH   4   5
ATOM      5  O   UNL     1      43.281  16.876  22.332  0.00  0.00    -0.475 OA
ATOM      6  H   UNL     1      42.827  17.165  23.135  0.00  0.00    +0.400 HD
ENDBRANCH   4   5
BRANCH  25  26
ATOM     26  O   UNL     1      42.922  21.187  20.348  0.00  0.00    -0.466 OA
ATOM     27  H   UNL     1      42.072  21.012  19.919  0.00  0.00    +0.406 HD
ENDBRANCH  25  26
TORSDOF 6
ENDMDL
MODEL 6
REMARK VINA RESULT:      -5.7      3.422      7.236
REMARK  Name = ZINC05998557
REMARK  7 active torsions:
REMARK  status: ('A' for Active; 'I' for Inactive)
REMARK    1  A    between atoms: C1_1  and  O1_2
REMARK    2  A    between atoms: O1_2  and  C2_3
REMARK    3  A    between atoms: C3_4  and  O7_23
REMARK    4  A    between atoms: C7_8  and  O2_9
REMARK    5  A    between atoms: C10_13  and  C11_15
REMARK    6  A    between atoms: C14_18  and  O6_22
REMARK    7  A    between atoms: C15_19  and  O5_21
REMARK                            x       y       z     vdW  Elec       q    Type
REMARK                         _______ _______ _______ _____ _____    ______ ____
ROOT
ATOM      3  C   UNL     1      48.579  14.843  16.800  0.00  0.00    +0.013 A 
ATOM      4  C   UNL     1      47.211  14.775  16.544  0.00  0.00    +0.172 A 
ATOM      7  C   UNL     1      46.370  15.809  16.923  0.00  0.00    -0.009 A 
ATOM      8  C   UNL     1      46.887  16.924  17.563  0.00  0.00    +0.178 A 
ATOM      9  C   UNL     1      48.267  16.997  17.822  0.00  0.00    -0.253 A 
ATOM     10  C   UNL     1      48.791  18.193  18.504  0.00  0.00    +0.424 A 
ATOM     11  C   UNL     1      47.864  19.203  18.856  0.00  0.00    -0.140 A 
ATOM     12  C   UNL     1      46.547  19.035  18.559  0.00  0.00    +0.208 A 
ATOM     23  O   UNL     1      49.980  18.310  18.754  0.00  0.00    -0.449 OA
ATOM     24  O   UNL     1      46.080  17.941  17.938  0.00  0.00    -0.216 OA
ATOM     25  C   UNL     1      49.112  15.948  17.443  0.00  0.00    +0.202 A 
ENDROOT
BRANCH  12  13
ATOM     13  C   UNL     1      45.595  20.098  18.935  0.00  0.00    -0.067 A 
ATOM     14  C   UNL     1      46.014  21.430  18.980  0.00  0.00    +0.075 A 
ATOM     15  C   UNL     1      45.124  22.421  19.331  0.00  0.00    +0.016 A 
ATOM     16  C   UNL     1      43.809  22.100  19.640  0.00  0.00    +0.110 A 
ATOM     19  C   UNL     1      43.384  20.773  19.598  0.00  0.00    +0.079 A 
ATOM     22  C   UNL     1      44.270  19.775  19.242  0.00  0.00    +0.057 A 
BRANCH  16  17
ATOM     17  O   UNL     1      42.935  23.081  19.986  0.00  0.00    -0.485 OA
ATOM     18  H   UNL     1      43.293  23.724  20.613  0.00  0.00    +0.395 HD
ENDBRANCH  16  17
BRANCH  19  20
ATOM     20  O   UNL     1      42.096  20.462  19.903  0.00  0.00    -0.483 OA
ATOM     21  H   UNL     1      41.995  19.623  20.374  0.00  0.00    +0.392 HD
ENDBRANCH  19  20
ENDBRANCH  12  13
BRANCH   3   2
ATOM      1  C   UNL     1      49.591  12.764  17.366  0.00  0.00    +0.230 C 
ATOM      2  O   UNL     1      49.394  13.819  16.422  0.00  0.00    -0.315 OA
ENDBRANCH   3   2
BRANCH   4   5
ATOM      5  O   UNL     1      46.697  13.685  15.916  0.00  0.00    -0.475 OA
ATOM      6  H   UNL     1      47.331  12.965  15.796  0.00  0.00    +0.400 HD
ENDBRANCH   4   5
BRANCH  25  26
ATOM     26  O   UNL     1      50.444  16.016  17.698  0.00  0.00    -0.466 OA
ATOM     27  H   UNL     1      50.784  15.275  18.218  0.00  0.00    +0.406 HD
ENDBRANCH  25  26
TORSDOF 6
ENDMDL
MODEL 7
REMARK VINA RESULT:      -5.5      2.985      7.098
REMARK  Name = ZINC05998557
REMARK  7 active torsions:
REMARK  status: ('A' for Active; 'I' for Inactive)
REMARK    1  A    between atoms: C1_1  and  O1_2
REMARK    2  A    between atoms: O1_2  and  C2_3
REMARK    3  A    between atoms: C3_4  and  O7_23
REMARK    4  A    between atoms: C7_8  and  O2_9
REMARK    5  A    between atoms: C10_13  and  C11_15
REMARK    6  A    between atoms: C14_18  and  O6_22
REMARK    7  A    between atoms: C15_19  and  O5_21
REMARK                            x       y       z     vdW  Elec       q    Type
REMARK                         _______ _______ _______ _____ _____    ______ ____
ROOT
ATOM      3  C   UNL     1      50.504  16.451  17.160  0.00  0.00    +0.013 A 
ATOM      4  C   UNL     1      49.168  16.068  17.258  0.00  0.00    +0.172 A 
ATOM      7  C   UNL     1      48.227  16.923  17.807  0.00  0.00    -0.009 A 
ATOM      8  C   UNL     1      48.609  18.174  18.265  0.00  0.00    +0.178 A 
ATOM      9  C   UNL     1      49.956  18.566  18.168  0.00  0.00    -0.253 A 
ATOM     10  C   UNL     1      50.338  19.900  18.663  0.00  0.00    +0.424 A 
ATOM     11  C   UNL     1      49.313  20.710  19.208  0.00  0.00    -0.140 A 
ATOM     12  C   UNL     1      48.039  20.238  19.256  0.00  0.00    +0.208 A 
ATOM     23  O   UNL     1      51.492  20.292  18.604  0.00  0.00    -0.449 OA
ATOM     24  O   UNL     1      47.703  19.020  18.802  0.00  0.00    -0.216 OA
ATOM     25  C   UNL     1      50.905  17.695  17.618  0.00  0.00    +0.202 A 
ENDROOT
BRANCH  12  13
ATOM     13  C   UNL     1      46.986  21.097  19.828  0.00  0.00    -0.067 A 
ATOM     14  C   UNL     1      47.217  21.791  21.018  0.00  0.00    +0.075 A 
ATOM     15  C   UNL     1      46.232  22.593  21.552  0.00  0.00    +0.016 A 
ATOM     16  C   UNL     1      45.008  22.715  20.909  0.00  0.00    +0.110 A 
ATOM     19  C   UNL     1      44.769  22.026  19.721  0.00  0.00    +0.079 A 
ATOM     22  C   UNL     1      45.754  21.224  19.178  0.00  0.00    +0.057 A 
BRANCH  16  17
ATOM     17  O   UNL     1      44.040  23.508  21.438  0.00  0.00    -0.485 OA
ATOM     18  H   UNL     1      44.379  24.228  21.989  0.00  0.00    +0.395 HD
ENDBRANCH  16  17
BRANCH  19  20
ATOM     20  O   UNL     1      43.568  22.146  19.095  0.00  0.00    -0.483 OA
ATOM     21  H   UNL     1      43.599  22.672  18.283  0.00  0.00    +0.392 HD
ENDBRANCH  19  20
ENDBRANCH  12  13
BRANCH   3   2
ATOM      1  C   UNL     1      51.901  14.547  17.457  0.00  0.00    +0.230 C 
ATOM      2  O   UNL     1      51.419  15.600  16.619  0.00  0.00    -0.315 OA
ENDBRANCH   3   2
BRANCH   4   5
ATOM      5  O   UNL     1      48.784  14.844  16.810  0.00  0.00    -0.475 OA
ATOM      6  H   UNL     1      48.388  14.282  17.490  0.00  0.00    +0.400 HD
ENDBRANCH   4   5
BRANCH  25  26
ATOM     26  O   UNL     1      52.207  18.072  17.529  0.00  0.00    -0.466 OA
ATOM     27  H   UNL     1      52.774  17.694  18.216  0.00  0.00    +0.406 HD
ENDBRANCH  25  26
TORSDOF 6
ENDMDL
MODEL 8
REMARK VINA RESULT:      -5.5      2.278      7.464
REMARK  Name = ZINC05998557
REMARK  7 active torsions:
REMARK  status: ('A' for Active; 'I' for Inactive)
REMARK    1  A    between atoms: C1_1  and  O1_2
REMARK    2  A    between atoms: O1_2  and  C2_3
REMARK    3  A    between atoms: C3_4  and  O7_23
REMARK    4  A    between atoms: C7_8  and  O2_9
REMARK    5  A    between atoms: C10_13  and  C11_15
REMARK    6  A    between atoms: C14_18  and  O6_22
REMARK    7  A    between atoms: C15_19  and  O5_21
REMARK                            x       y       z     vdW  Elec       q    Type
REMARK                         _______ _______ _______ _____ _____    ______ ____
ROOT
ATOM      3  C   UNL     1      48.939  18.228  20.055  0.00  0.00    +0.013 A 
ATOM      4  C   UNL     1      48.852  19.456  19.401  0.00  0.00    +0.172 A 
ATOM      7  C   UNL     1      47.621  20.044  19.164  0.00  0.00    -0.009 A 
ATOM      8  C   UNL     1      46.458  19.412  19.577  0.00  0.00    +0.178 A 
ATOM      9  C   UNL     1      46.541  18.174  20.238  0.00  0.00    -0.253 A 
ATOM     10  C   UNL     1      45.291  17.522  20.667  0.00  0.00    +0.424 A 
ATOM     11  C   UNL     1      44.077  18.192  20.386  0.00  0.00    -0.140 A 
ATOM     12  C   UNL     1      44.106  19.389  19.741  0.00  0.00    +0.208 A 
ATOM     23  O   UNL     1      45.303  16.447  21.245  0.00  0.00    -0.449 OA
ATOM     24  O   UNL     1      45.250  19.973  19.354  0.00  0.00    -0.216 OA
ATOM     25  C   UNL     1      47.787  17.580  20.471  0.00  0.00    +0.202 A 
ENDROOT
BRANCH  12  13
ATOM     13  C   UNL     1      42.829  20.071  19.456  0.00  0.00    -0.067 A 
ATOM     14  C   UNL     1      41.619  19.397  19.636  0.00  0.00    +0.075 A 
ATOM     15  C   UNL     1      40.427  20.036  19.369  0.00  0.00    +0.016 A 
ATOM     16  C   UNL     1      40.426  21.350  18.922  0.00  0.00    +0.110 A 
ATOM     19  C   UNL     1      41.629  22.029  18.739  0.00  0.00    +0.079 A 
ATOM     22  C   UNL     1      42.827  21.396  19.009  0.00  0.00    +0.057 A 
BRANCH  16  17
ATOM     17  O   UNL     1      39.248  21.975  18.660  0.00  0.00    -0.485 OA
ATOM     18  H   UNL     1      39.024  22.015  17.720  0.00  0.00    +0.395 HD
ENDBRANCH  16  17
BRANCH  19  20
ATOM     20  O   UNL     1      41.624  23.315  18.298  0.00  0.00    -0.483 OA
ATOM     21  H   UNL     1      41.567  23.401  17.336  0.00  0.00    +0.392 HD
ENDBRANCH  19  20
ENDBRANCH  12  13
BRANCH   3   2
ATOM      1  C   UNL     1      50.671  16.802  19.263  0.00  0.00    +0.230 C 
ATOM      2  O   UNL     1      50.156  17.662  20.281  0.00  0.00    -0.315 OA
ENDBRANCH   3   2
BRANCH   4   5
ATOM      5  O   UNL     1      49.987  20.083  18.993  0.00  0.00    -0.475 OA
ATOM      6  H   UNL     1      50.653  20.182  19.687  0.00  0.00    +0.400 HD
ENDBRANCH   4   5
BRANCH  25  26
ATOM     26  O   UNL     1      47.866  16.382  21.104  0.00  0.00    -0.466 OA
ATOM     27  H   UNL     1      47.166  16.233  21.755  0.00  0.00    +0.406 HD
ENDBRANCH  25  26
TORSDOF 6
ENDMDL
MODEL 9
REMARK VINA RESULT:      -5.4      3.172      5.818
REMARK  Name = ZINC05998557
REMARK  7 active torsions:
REMARK  status: ('A' for Active; 'I' for Inactive)
REMARK    1  A    between atoms: C1_1  and  O1_2
REMARK    2  A    between atoms: O1_2  and  C2_3
REMARK    3  A    between atoms: C3_4  and  O7_23
REMARK    4  A    between atoms: C7_8  and  O2_9
REMARK    5  A    between atoms: C10_13  and  C11_15
REMARK    6  A    between atoms: C14_18  and  O6_22
REMARK    7  A    between atoms: C15_19  and  O5_21
REMARK                            x       y       z     vdW  Elec       q    Type
REMARK                         _______ _______ _______ _____ _____    ______ ____
ROOT
ATOM      3  C   UNL     1      44.608  21.866  20.021  0.00  0.00    +0.013 A 
ATOM      4  C   UNL     1      43.503  21.196  19.497  0.00  0.00    +0.172 A 
ATOM      7  C   UNL     1      43.614  19.885  19.065  0.00  0.00    -0.009 A 
ATOM      8  C   UNL     1      44.830  19.225  19.151  0.00  0.00    +0.178 A 
ATOM      9  C   UNL     1      45.946  19.897  19.679  0.00  0.00    -0.253 A 
ATOM     10  C   UNL     1      47.228  19.175  19.760  0.00  0.00    +0.424 A 
ATOM     11  C   UNL     1      47.252  17.837  19.297  0.00  0.00    -0.140 A 
ATOM     12  C   UNL     1      46.115  17.278  18.804  0.00  0.00    +0.208 A 
ATOM     23  O   UNL     1      48.229  19.708  20.210  0.00  0.00    -0.449 OA
ATOM     24  O   UNL     1      44.953  17.946  18.734  0.00  0.00    -0.216 OA
ATOM     25  C   UNL     1      45.832  21.224  20.110  0.00  0.00    +0.202 A 
ENDROOT
BRANCH  12  13
ATOM     13  C   UNL     1      46.161  15.883  18.325  0.00  0.00    -0.067 A 
ATOM     14  C   UNL     1      45.682  14.849  19.132  0.00  0.00    +0.075 A 
ATOM     15  C   UNL     1      45.726  13.547  18.683  0.00  0.00    +0.016 A 
ATOM     16  C   UNL     1      46.245  13.259  17.429  0.00  0.00    +0.110 A 
ATOM     19  C   UNL     1      46.727  14.286  16.618  0.00  0.00    +0.079 A 
ATOM     22  C   UNL     1      46.681  15.594  17.060  0.00  0.00    +0.057 A 
BRANCH  16  17
ATOM     17  O   UNL     1      46.286  11.974  16.991  0.00  0.00    -0.485 OA
ATOM     18  H   UNL     1      47.180  11.642  16.828  0.00  0.00    +0.395 HD
ENDBRANCH  16  17
BRANCH  19  20
ATOM     20  O   UNL     1      47.237  14.000  15.390  0.00  0.00    -0.483 OA
ATOM     21  H   UNL     1      48.203  14.027  15.350  0.00  0.00    +0.392 HD
ENDBRANCH  19  20
ENDBRANCH  12  13
BRANCH   3   2
ATOM      1  C   UNL     1      44.720  24.179  19.473  0.00  0.00    +0.230 C 
ATOM      2  O   UNL     1      44.484  23.156  20.442  0.00  0.00    -0.315 OA
ENDBRANCH   3   2
BRANCH   4   5
ATOM      5  O   UNL     1      42.307  21.835  19.410  0.00  0.00    -0.475 OA
ATOM      6  H   UNL     1      42.150  22.261  18.556  0.00  0.00    +0.400 HD
ENDBRANCH   4   5
BRANCH  25  26
ATOM     26  O   UNL     1      46.912  21.874  20.615  0.00  0.00    -0.466 OA
ATOM     27  H   UNL     1      47.697  21.318  20.713  0.00  0.00    +0.406 HD
ENDBRANCH  25  26
TORSDOF 6
ENDMDL
