MODEL 1
REMARK VINA RESULT:      -6.6      0.000      0.000
REMARK  Name = ZINC14677166
REMARK  3 active torsions:
REMARK  status: ('A' for Active; 'I' for Inactive)
REMARK    1  A    between atoms: C1_1  and  O1_2
REMARK    2  A    between atoms: O1_2  and  C2_3
REMARK    3  A    between atoms: C12_15  and  C13_17
REMARK                            x       y       z     vdW  Elec       q    Type
REMARK                         _______ _______ _______ _____ _____    ______ ____
ROOT
ATOM      3  C   UNL     1      43.739  22.656  19.520  0.00  0.00    +0.240 A 
ATOM      4  C   UNL     1      42.450  22.998  19.169  0.00  0.00    -0.090 A 
ATOM      5  C   UNL     1      41.535  22.010  18.807  0.00  0.00    +0.153 A 
ATOM      6  C   UNL     1      41.925  20.662  18.803  0.00  0.00    -0.193 A 
ATOM      7  C   UNL     1      43.230  20.304  19.155  0.00  0.00    +0.241 A 
ATOM      8  O   UNL     1      43.624  19.014  19.155  0.00  0.00    -0.211 OA
ATOM      9  C   UNL     1      44.869  18.643  19.490  0.00  0.00    +0.198 A 
ATOM     16  C   UNL     1      45.825  19.539  19.854  0.00  0.00    -0.136 A 
ATOM     17  C   UNL     1      45.508  20.919  19.886  0.00  0.00    +0.425 A 
ATOM     18  O   UNL     1      46.339  21.752  20.213  0.00  0.00    -0.450 OA
ATOM     19  C   UNL     1      40.737  19.909  18.380  0.00  0.00    -0.013 A 
ATOM     20  C   UNL     1      39.773  20.818  18.177  0.00  0.00    +0.212 A 
ATOM     21  O   UNL     1      40.241  22.054  18.428  0.00  0.00    -0.184 OA
ATOM     22  C   UNL     1      44.137  21.310  19.516  0.00  0.00    -0.269 A 
ENDROOT
BRANCH   9  10
ATOM     10  C   UNL     1      45.215  17.208  19.461  0.00  0.00    -0.072 A 
ATOM     11  C   UNL     1      45.911  16.675  18.374  0.00  0.00    +0.056 A 
ATOM     12  C   UNL     1      46.237  15.335  18.358  0.00  0.00    +0.014 A 
ATOM     13  C   UNL     1      45.864  14.516  19.409  0.00  0.00    +0.037 A 
ATOM     14  C   UNL     1      45.167  15.036  20.485  0.00  0.00    +0.009 A 
ATOM     15  C   UNL     1      44.842  16.375  20.519  0.00  0.00    +0.054 A 
ENDBRANCH   9  10
BRANCH   3   2
ATOM      1  C   UNL     1      44.704  24.769  19.019  0.00  0.00    +0.251 C 
ATOM      2  O   UNL     1      44.624  23.624  19.870  0.00  0.00    -0.273 OA
ENDBRANCH   3   2
TORSDOF 2
ENDMDL
MODEL 2
REMARK VINA RESULT:      -5.9      2.190      7.038
REMARK  Name = ZINC14677166
REMARK  3 active torsions:
REMARK  status: ('A' for Active; 'I' for Inactive)
REMARK    1  A    between atoms: C1_1  and  O1_2
REMARK    2  A    between atoms: O1_2  and  C2_3
REMARK    3  A    between atoms: C12_15  and  C13_17
REMARK                            x       y       z     vdW  Elec       q    Type
REMARK                         _______ _______ _______ _____ _____    ______ ____
ROOT
ATOM      3  C   UNL     1      45.380  15.364  20.926  0.00  0.00    +0.240 A 
ATOM      4  C   UNL     1      46.355  14.854  20.096  0.00  0.00    -0.090 A 
ATOM      5  C   UNL     1      46.719  15.535  18.935  0.00  0.00    +0.153 A 
ATOM      6  C   UNL     1      46.092  16.749  18.611  0.00  0.00    -0.193 A 
ATOM      7  C   UNL     1      45.100  17.275  19.445  0.00  0.00    +0.241 A 
ATOM      8  O   UNL     1      44.486  18.439  19.149  0.00  0.00    -0.211 OA
ATOM      9  C   UNL     1      43.533  18.967  19.932  0.00  0.00    +0.198 A 
ATOM     16  C   UNL     1      43.117  18.369  21.081  0.00  0.00    -0.136 A 
ATOM     17  C   UNL     1      43.703  17.143  21.478  0.00  0.00    +0.425 A 
ATOM     18  O   UNL     1      43.359  16.581  22.505  0.00  0.00    -0.450 OA
ATOM     19  C   UNL     1      46.704  17.183  17.349  0.00  0.00    -0.013 A 
ATOM     20  C   UNL     1      47.607  16.247  17.031  0.00  0.00    +0.212 A 
ATOM     21  O   UNL     1      47.616  15.277  17.963  0.00  0.00    -0.184 OA
ATOM     22  C   UNL     1      44.748  16.577  20.608  0.00  0.00    -0.269 A 
ENDROOT
BRANCH   9  10
ATOM     10  C   UNL     1      42.912  20.246  19.531  0.00  0.00    -0.072 A 
ATOM     11  C   UNL     1      43.576  21.452  19.764  0.00  0.00    +0.056 A 
ATOM     12  C   UNL     1      42.994  22.642  19.380  0.00  0.00    +0.014 A 
ATOM     13  C   UNL     1      41.748  22.643  18.777  0.00  0.00    +0.037 A 
ATOM     14  C   UNL     1      41.081  21.453  18.550  0.00  0.00    +0.009 A 
ATOM     15  C   UNL     1      41.655  20.255  18.922  0.00  0.00    +0.054 A 
ENDBRANCH   9  10
BRANCH   3   2
ATOM      1  C   UNL     1      45.239  13.280  22.059  0.00  0.00    +0.251 C 
ATOM      2  O   UNL     1      45.032  14.694  22.054  0.00  0.00    -0.273 OA
ENDBRANCH   3   2
TORSDOF 2
ENDMDL
MODEL 3
REMARK VINA RESULT:      -5.8      3.213      5.284
REMARK  Name = ZINC14677166
REMARK  3 active torsions:
REMARK  status: ('A' for Active; 'I' for Inactive)
REMARK    1  A    between atoms: C1_1  and  O1_2
REMARK    2  A    between atoms: O1_2  and  C2_3
REMARK    3  A    between atoms: C12_15  and  C13_17
REMARK                            x       y       z     vdW  Elec       q    Type
REMARK                         _______ _______ _______ _____ _____    ______ ____
ROOT
ATOM      3  C   UNL     1      44.125  19.246  20.321  0.00  0.00    +0.240 A 
ATOM      4  C   UNL     1      43.170  20.220  20.123  0.00  0.00    -0.090 A 
ATOM      5  C   UNL     1      43.549  21.521  19.795  0.00  0.00    +0.153 A 
ATOM      6  C   UNL     1      44.910  21.840  19.662  0.00  0.00    -0.193 A 
ATOM      7  C   UNL     1      45.887  20.860  19.862  0.00  0.00    +0.241 A 
ATOM      8  O   UNL     1      47.199  21.149  19.740  0.00  0.00    -0.211 OA
ATOM      9  C   UNL     1      48.157  20.228  19.925  0.00  0.00    +0.198 A 
ATOM     16  C   UNL     1      47.877  18.937  20.248  0.00  0.00    -0.136 A 
ATOM     17  C   UNL     1      46.527  18.535  20.398  0.00  0.00    +0.425 A 
ATOM     18  O   UNL     1      46.237  17.384  20.681  0.00  0.00    -0.450 OA
ATOM     19  C   UNL     1      44.947  23.268  19.319  0.00  0.00    -0.013 A 
ATOM     20  C   UNL     1      43.671  23.673  19.271  0.00  0.00    +0.212 A 
ATOM     21  O   UNL     1      42.848  22.647  19.551  0.00  0.00    -0.184 OA
ATOM     22  C   UNL     1      45.487  19.558  20.191  0.00  0.00    -0.269 A 
ENDROOT
BRANCH   9  10
ATOM     10  C   UNL     1      49.570  20.632  19.772  0.00  0.00    -0.072 A 
ATOM     11  C   UNL     1      50.098  20.870  18.502  0.00  0.00    +0.056 A 
ATOM     12  C   UNL     1      51.415  21.254  18.367  0.00  0.00    +0.014 A 
ATOM     13  C   UNL     1      52.217  21.391  19.487  0.00  0.00    +0.037 A 
ATOM     14  C   UNL     1      51.703  21.150  20.748  0.00  0.00    +0.009 A 
ATOM     15  C   UNL     1      50.385  20.773  20.898  0.00  0.00    +0.054 A 
ENDBRANCH   9  10
BRANCH   3   2
ATOM      1  C   UNL     1      42.899  17.827  21.780  0.00  0.00    +0.251 C 
ATOM      2  O   UNL     1      43.747  17.982  20.641  0.00  0.00    -0.273 OA
ENDBRANCH   3   2
TORSDOF 2
ENDMDL
MODEL 4
REMARK VINA RESULT:      -5.8      4.243      7.332
REMARK  Name = ZINC14677166
REMARK  3 active torsions:
REMARK  status: ('A' for Active; 'I' for Inactive)
REMARK    1  A    between atoms: C1_1  and  O1_2
REMARK    2  A    between atoms: O1_2  and  C2_3
REMARK    3  A    between atoms: C12_15  and  C13_17
REMARK                            x       y       z     vdW  Elec       q    Type
REMARK                         _______ _______ _______ _____ _____    ______ ____
ROOT
ATOM      3  C   UNL     1      46.572  14.864  18.790  0.00  0.00    +0.240 A 
ATOM      4  C   UNL     1      45.471  15.245  19.527  0.00  0.00    -0.090 A 
ATOM      5  C   UNL     1      45.296  16.578  19.893  0.00  0.00    +0.153 A 
ATOM      6  C   UNL     1      46.244  17.539  19.509  0.00  0.00    -0.193 A 
ATOM      7  C   UNL     1      47.367  17.164  18.764  0.00  0.00    +0.241 A 
ATOM      8  O   UNL     1      48.290  18.073  18.388  0.00  0.00    -0.211 OA
ATOM      9  C   UNL     1      49.375  17.741  17.672  0.00  0.00    +0.198 A 
ATOM     16  C   UNL     1      49.623  16.465  17.272  0.00  0.00    -0.136 A 
ATOM     17  C   UNL     1      48.712  15.438  17.618  0.00  0.00    +0.425 A 
ATOM     18  O   UNL     1      48.899  14.283  17.272  0.00  0.00    -0.450 OA
ATOM     19  C   UNL     1      45.758  18.813  20.055  0.00  0.00    -0.013 A 
ATOM     20  C   UNL     1      44.611  18.533  20.689  0.00  0.00    +0.212 A 
ATOM     21  O   UNL     1      44.339  17.219  20.595  0.00  0.00    -0.184 OA
ATOM     22  C   UNL     1      47.526  15.819  18.404  0.00  0.00    -0.269 A 
ENDROOT
BRANCH   9  10
ATOM     10  C   UNL     1      50.335  18.801  17.304  0.00  0.00    -0.072 A 
ATOM     11  C   UNL     1      51.175  18.635  16.200  0.00  0.00    +0.056 A 
ATOM     12  C   UNL     1      52.064  19.632  15.858  0.00  0.00    +0.014 A 
ATOM     13  C   UNL     1      52.133  20.790  16.613  0.00  0.00    +0.037 A 
ATOM     14  C   UNL     1      51.310  20.958  17.711  0.00  0.00    +0.009 A 
ATOM     15  C   UNL     1      50.410  19.973  18.060  0.00  0.00    +0.054 A 
ENDBRANCH   9  10
BRANCH   3   2
ATOM      1  C   UNL     1      45.570  12.857  18.006  0.00  0.00    +0.251 C 
ATOM      2  O   UNL     1      46.734  13.563  18.438  0.00  0.00    -0.273 OA
ENDBRANCH   3   2
TORSDOF 2
ENDMDL
MODEL 5
REMARK VINA RESULT:      -5.8      3.588      5.864
REMARK  Name = ZINC14677166
REMARK  3 active torsions:
REMARK  status: ('A' for Active; 'I' for Inactive)
REMARK    1  A    between atoms: C1_1  and  O1_2
REMARK    2  A    between atoms: O1_2  and  C2_3
REMARK    3  A    between atoms: C12_15  and  C13_17
REMARK                            x       y       z     vdW  Elec       q    Type
REMARK                         _______ _______ _______ _____ _____    ______ ____
ROOT
ATOM      3  C   UNL     1      45.043  17.201  20.041  0.00  0.00    +0.240 A 
ATOM      4  C   UNL     1      43.971  18.052  20.212  0.00  0.00    -0.090 A 
ATOM      5  C   UNL     1      44.088  19.404  19.892  0.00  0.00    +0.153 A 
ATOM      6  C   UNL     1      45.301  19.902  19.391  0.00  0.00    -0.193 A 
ATOM      7  C   UNL     1      46.395  19.049  19.215  0.00  0.00    +0.241 A 
ATOM      8  O   UNL     1      47.569  19.509  18.737  0.00  0.00    -0.211 OA
ATOM      9  C   UNL     1      48.634  18.713  18.557  0.00  0.00    +0.198 A 
ATOM     16  C   UNL     1      48.607  17.384  18.843  0.00  0.00    -0.136 A 
ATOM     17  C   UNL     1      47.419  16.805  19.350  0.00  0.00    +0.425 A 
ATOM     18  O   UNL     1      47.357  15.614  19.613  0.00  0.00    -0.450 OA
ATOM     19  C   UNL     1      45.076  21.336  19.168  0.00  0.00    -0.013 A 
ATOM     20  C   UNL     1      43.808  21.575  19.530  0.00  0.00    +0.212 A 
ATOM     21  O   UNL     1      43.227  20.439  19.957  0.00  0.00    -0.184 OA
ATOM     22  C   UNL     1      46.259  17.692  19.541  0.00  0.00    -0.269 A 
ENDROOT
BRANCH   9  10
ATOM     10  C   UNL     1      49.881  19.302  18.029  0.00  0.00    -0.072 A 
ATOM     11  C   UNL     1      50.247  20.603  18.382  0.00  0.00    +0.056 A 
ATOM     12  C   UNL     1      51.416  21.144  17.891  0.00  0.00    +0.014 A 
ATOM     13  C   UNL     1      52.220  20.406  17.039  0.00  0.00    +0.037 A 
ATOM     14  C   UNL     1      51.860  19.120  16.680  0.00  0.00    +0.009 A 
ATOM     15  C   UNL     1      50.697  18.563  17.170  0.00  0.00    +0.054 A 
ENDBRANCH   9  10
BRANCH   3   2
ATOM      1  C   UNL     1      44.695  15.565  21.729  0.00  0.00    +0.251 C 
ATOM      2  O   UNL     1      44.920  15.886  20.355  0.00  0.00    -0.273 OA
ENDBRANCH   3   2
TORSDOF 2
ENDMDL
MODEL 6
REMARK VINA RESULT:      -5.7      3.217      5.414
REMARK  Name = ZINC14677166
REMARK  3 active torsions:
REMARK  status: ('A' for Active; 'I' for Inactive)
REMARK    1  A    between atoms: C1_1  and  O1_2
REMARK    2  A    between atoms: O1_2  and  C2_3
REMARK    3  A    between atoms: C12_15  and  C13_17
REMARK                            x       y       z     vdW  Elec       q    Type
REMARK                         _______ _______ _______ _____ _____    ______ ____
ROOT
ATOM      3  C   UNL     1      43.970  19.647  20.147  0.00  0.00    +0.240 A 
ATOM      4  C   UNL     1      43.464  18.521  20.761  0.00  0.00    -0.090 A 
ATOM      5  C   UNL     1      44.298  17.440  21.044  0.00  0.00    +0.153 A 
ATOM      6  C   UNL     1      45.658  17.498  20.705  0.00  0.00    -0.193 A 
ATOM      7  C   UNL     1      46.182  18.634  20.079  0.00  0.00    +0.241 A 
ATOM      8  O   UNL     1      47.486  18.707  19.744  0.00  0.00    -0.211 OA
ATOM      9  C   UNL     1      48.015  19.785  19.144  0.00  0.00    +0.198 A 
ATOM     16  C   UNL     1      47.275  20.882  18.832  0.00  0.00    -0.136 A 
ATOM     17  C   UNL     1      45.894  20.903  19.145  0.00  0.00    +0.425 A 
ATOM     18  O   UNL     1      45.200  21.873  18.884  0.00  0.00    -0.450 OA
ATOM     19  C   UNL     1      46.227  16.214  21.136  0.00  0.00    -0.013 A 
ATOM     20  C   UNL     1      45.215  15.522  21.677  0.00  0.00    +0.212 A 
ATOM     21  O   UNL     1      44.080  16.242  21.623  0.00  0.00    -0.184 OA
ATOM     22  C   UNL     1      45.330  19.712  19.803  0.00  0.00    -0.269 A 
ENDROOT
BRANCH   9  10
ATOM     10  C   UNL     1      49.454  19.778  18.812  0.00  0.00    -0.072 A 
ATOM     11  C   UNL     1      50.123  20.980  18.571  0.00  0.00    +0.056 A 
ATOM     12  C   UNL     1      51.468  20.968  18.268  0.00  0.00    +0.014 A 
ATOM     13  C   UNL     1      52.152  19.767  18.190  0.00  0.00    +0.037 A 
ATOM     14  C   UNL     1      51.493  18.573  18.420  0.00  0.00    +0.009 A 
ATOM     15  C   UNL     1      50.150  18.571  18.732  0.00  0.00    +0.054 A 
ENDBRANCH   9  10
BRANCH   3   2
ATOM      1  C   UNL     1      42.011  20.433  19.056  0.00  0.00    +0.251 C 
ATOM      2  O   UNL     1      43.152  20.695  19.875  0.00  0.00    -0.273 OA
ENDBRANCH   3   2
TORSDOF 2
ENDMDL
MODEL 7
REMARK VINA RESULT:      -5.6      4.516      7.083
REMARK  Name = ZINC14677166
REMARK  3 active torsions:
REMARK  status: ('A' for Active; 'I' for Inactive)
REMARK    1  A    between atoms: C1_1  and  O1_2
REMARK    2  A    between atoms: O1_2  and  C2_3
REMARK    3  A    between atoms: C12_15  and  C13_17
REMARK                            x       y       z     vdW  Elec       q    Type
REMARK                         _______ _______ _______ _____ _____    ______ ____
ROOT
ATOM      3  C   UNL     1      45.921  16.457  20.447  0.00  0.00    +0.240 A 
ATOM      4  C   UNL     1      45.425  15.277  19.934  0.00  0.00    -0.090 A 
ATOM      5  C   UNL     1      45.955  14.741  18.762  0.00  0.00    +0.153 A 
ATOM      6  C   UNL     1      47.000  15.404  18.100  0.00  0.00    -0.193 A 
ATOM      7  C   UNL     1      47.510  16.602  18.609  0.00  0.00    +0.241 A 
ATOM      8  O   UNL     1      48.513  17.254  17.986  0.00  0.00    -0.211 OA
ATOM      9  C   UNL     1      49.022  18.404  18.454  0.00  0.00    +0.198 A 
ATOM     16  C   UNL     1      48.565  18.997  19.589  0.00  0.00    -0.136 A 
ATOM     17  C   UNL     1      47.513  18.388  20.316  0.00  0.00    +0.425 A 
ATOM     18  O   UNL     1      47.081  18.888  21.342  0.00  0.00    -0.450 OA
ATOM     19  C   UNL     1      47.307  14.579  16.924  0.00  0.00    -0.013 A 
ATOM     20  C   UNL     1      46.467  13.537  16.971  0.00  0.00    +0.212 A 
ATOM     21  O   UNL     1      45.671  13.631  18.051  0.00  0.00    -0.184 OA
ATOM     22  C   UNL     1      46.966  17.126  19.790  0.00  0.00    -0.269 A 
ENDROOT
BRANCH   9  10
ATOM     10  C   UNL     1      50.120  19.051  17.706  0.00  0.00    -0.072 A 
ATOM     11  C   UNL     1      50.508  20.356  18.019  0.00  0.00    +0.056 A 
ATOM     12  C   UNL     1      51.538  20.951  17.323  0.00  0.00    +0.014 A 
ATOM     13  C   UNL     1      52.179  20.263  16.307  0.00  0.00    +0.037 A 
ATOM     14  C   UNL     1      51.795  18.973  15.987  0.00  0.00    +0.009 A 
ATOM     15  C   UNL     1      50.771  18.363  16.681  0.00  0.00    +0.054 A 
ENDBRANCH   9  10
BRANCH   3   2
ATOM      1  C   UNL     1      43.975  17.024  21.686  0.00  0.00    +0.251 C 
ATOM      2  O   UNL     1      45.399  16.972  21.589  0.00  0.00    -0.273 OA
ENDBRANCH   3   2
TORSDOF 2
ENDMDL
MODEL 8
REMARK VINA RESULT:      -5.6      5.826      9.396
REMARK  Name = ZINC14677166
REMARK  3 active torsions:
REMARK  status: ('A' for Active; 'I' for Inactive)
REMARK    1  A    between atoms: C1_1  and  O1_2
REMARK    2  A    between atoms: O1_2  and  C2_3
REMARK    3  A    between atoms: C12_15  and  C13_17
REMARK                            x       y       z     vdW  Elec       q    Type
REMARK                         _______ _______ _______ _____ _____    ______ ____
ROOT
ATOM      3  C   UNL     1      47.208  13.964  17.539  0.00  0.00    +0.240 A 
ATOM      4  C   UNL     1      47.805  12.733  17.362  0.00  0.00    -0.090 A 
ATOM      5  C   UNL     1      49.169  12.646  17.090  0.00  0.00    +0.153 A 
ATOM      6  C   UNL     1      49.941  13.815  16.998  0.00  0.00    -0.193 A 
ATOM      7  C   UNL     1      49.346  15.068  17.173  0.00  0.00    +0.241 A 
ATOM      8  O   UNL     1      50.071  16.202  17.086  0.00  0.00    -0.211 OA
ATOM      9  C   UNL     1      49.526  17.417  17.251  0.00  0.00    +0.198 A 
ATOM     16  C   UNL     1      48.205  17.595  17.519  0.00  0.00    -0.136 A 
ATOM     17  C   UNL     1      47.359  16.464  17.630  0.00  0.00    +0.425 A 
ATOM     18  O   UNL     1      46.170  16.585  17.875  0.00  0.00    -0.450 OA
ATOM     19  C   UNL     1      51.307  13.363  16.705  0.00  0.00    -0.013 A 
ATOM     20  C   UNL     1      51.253  12.025  16.651  0.00  0.00    +0.212 A 
ATOM     21  O   UNL     1      49.996  11.602  16.877  0.00  0.00    -0.184 OA
ATOM     22  C   UNL     1      47.973  15.138  17.446  0.00  0.00    -0.269 A 
ENDROOT
BRANCH   9  10
ATOM     10  C   UNL     1      50.394  18.607  17.137  0.00  0.00    -0.072 A 
ATOM     11  C   UNL     1      50.303  19.634  18.079  0.00  0.00    +0.056 A 
ATOM     12  C   UNL     1      51.122  20.738  17.971  0.00  0.00    +0.014 A 
ATOM     13  C   UNL     1      52.024  20.835  16.926  0.00  0.00    +0.037 A 
ATOM     14  C   UNL     1      52.114  19.825  15.986  0.00  0.00    +0.009 A 
ATOM     15  C   UNL     1      51.307  18.711  16.086  0.00  0.00    +0.054 A 
ENDBRANCH   9  10
BRANCH   3   2
ATOM      1  C   UNL     1      45.360  13.143  18.787  0.00  0.00    +0.251 C 
ATOM      2  O   UNL     1      45.879  14.040  17.803  0.00  0.00    -0.273 OA
ENDBRANCH   3   2
TORSDOF 2
ENDMDL
MODEL 9
REMARK VINA RESULT:      -5.6      4.178      7.969
REMARK  Name = ZINC14677166
REMARK  3 active torsions:
REMARK  status: ('A' for Active; 'I' for Inactive)
REMARK    1  A    between atoms: C1_1  and  O1_2
REMARK    2  A    between atoms: O1_2  and  C2_3
REMARK    3  A    between atoms: C12_15  and  C13_17
REMARK                            x       y       z     vdW  Elec       q    Type
REMARK                         _______ _______ _______ _____ _____    ______ ____
ROOT
ATOM      3  C   UNL     1      50.097  17.006  17.448  0.00  0.00    +0.240 A 
ATOM      4  C   UNL     1      51.358  17.538  17.614  0.00  0.00    -0.090 A 
ATOM      5  C   UNL     1      51.516  18.831  18.110  0.00  0.00    +0.153 A 
ATOM      6  C   UNL     1      50.387  19.595  18.445  0.00  0.00    -0.193 A 
ATOM      7  C   UNL     1      49.103  19.066  18.279  0.00  0.00    +0.241 A 
ATOM      8  O   UNL     1      48.007  19.786  18.593  0.00  0.00    -0.211 OA
ATOM      9  C   UNL     1      46.764  19.303  18.445  0.00  0.00    +0.198 A 
ATOM     16  C   UNL     1      46.518  18.054  17.968  0.00  0.00    -0.136 A 
ATOM     17  C   UNL     1      47.605  17.219  17.610  0.00  0.00    +0.425 A 
ATOM     18  O   UNL     1      47.423  16.090  17.184  0.00  0.00    -0.450 OA
ATOM     19  C   UNL     1      50.910  20.881  18.924  0.00  0.00    -0.013 A 
ATOM     20  C   UNL     1      52.245  20.792  18.848  0.00  0.00    +0.212 A 
ATOM     21  O   UNL     1      52.602  19.587  18.369  0.00  0.00    -0.184 OA
ATOM     22  C   UNL     1      48.963  17.764  17.779  0.00  0.00    -0.269 A 
ENDROOT
BRANCH   9  10
ATOM     10  C   UNL     1      45.619  20.161  18.813  0.00  0.00    -0.072 A 
ATOM     11  C   UNL     1      45.832  21.486  19.202  0.00  0.00    +0.056 A 
ATOM     12  C   UNL     1      44.759  22.284  19.538  0.00  0.00    +0.014 A 
ATOM     13  C   UNL     1      43.474  21.770  19.502  0.00  0.00    +0.037 A 
ATOM     14  C   UNL     1      43.257  20.458  19.125  0.00  0.00    +0.009 A 
ATOM     15  C   UNL     1      44.320  19.651  18.779  0.00  0.00    +0.054 A 
ENDBRANCH   9  10
BRANCH   3   2
ATOM      1  C   UNL     1      51.062  14.860  17.117  0.00  0.00    +0.251 C 
ATOM      2  O   UNL     1      49.952  15.746  16.964  0.00  0.00    -0.273 OA
ENDBRANCH   3   2
TORSDOF 2
ENDMDL
