MODEL 1
REMARK VINA RESULT:      -6.9      0.000      0.000
REMARK  Name = ZINC95486358
REMARK  13 active torsions:
REMARK  status: ('A' for Active; 'I' for Inactive)
REMARK    1  A    between atoms: C1_1  and  O1_2
REMARK    2  A    between atoms: O1_2  and  C2_3
REMARK    3  A    between atoms: C3_4  and  O12_40
REMARK    4  A    between atoms: C7_8  and  O2_9
REMARK    5  A    between atoms: C10_14  and  O9_36
REMARK    6  A    between atoms: C11_16  and  O8_35
REMARK    7  A    between atoms: C12_18  and  C13_21
REMARK    8  A    between atoms: C13_21  and  O4_22
REMARK    9  A    between atoms: O4_22  and  C14_23
REMARK   10  A    between atoms: C14_23  and  C15_25
REMARK   11  A    between atoms: C16_26  and  C17_27
REMARK   12  A    between atoms: C20_30  and  O7_34
REMARK   13  A    between atoms: C21_31  and  O6_33
REMARK                            x       y       z     vdW  Elec       q    Type
REMARK                         _______ _______ _______ _____ _____    ______ ____
ROOT
ATOM      3  C   UNL     1      41.627  20.775  19.191  0.00  0.00    +0.081 A 
ATOM      4  C   UNL     1      41.639  22.108  18.791  0.00  0.00    +0.103 A 
ATOM      7  C   UNL     1      42.703  22.923  19.132  0.00  0.00    +0.088 A 
ATOM      8  C   UNL     1      43.761  22.406  19.880  0.00  0.00    -0.138 A 
ATOM      9  C   UNL     1      43.745  21.066  20.287  0.00  0.00    -0.070 A 
ATOM     10  C   UNL     1      44.883  20.531  21.106  0.00  0.00    +0.211 C 
ATOM     11  C   UNL     1      46.138  21.371  20.859  0.00  0.00    +0.172 C 
ATOM     12  O   UNL     1      45.843  22.745  21.110  0.00  0.00    -0.328 OA
ATOM     13  C   UNL     1      47.252  20.870  21.779  0.00  0.00    +0.172 C 
ATOM     16  C   UNL     1      47.491  19.385  21.481  0.00  0.00    +0.138 C 
ATOM     19  C   UNL     1      46.184  18.606  21.642  0.00  0.00    +0.195 C 
ATOM     36  O   UNL     1      45.180  19.174  20.791  0.00  0.00    -0.335 OA
ATOM     37  C   UNL     1      44.910  23.263  20.246  0.00  0.00    +0.528 C 
ATOM     38  O   UNL     1      45.021  24.390  19.803  0.00  0.00    -0.424 OA
ATOM     39  C   UNL     1      42.679  20.258  19.944  0.00  0.00    +0.131 A 
ENDROOT
BRANCH   3   2
ATOM      1  C   UNL     1      40.651  19.322  17.582  0.00  0.00    +0.239 C 
ATOM      2  O   UNL     1      40.582  19.975  18.851  0.00  0.00    -0.319 OA
ENDBRANCH   3   2
BRANCH   4   5
ATOM      5  O   UNL     1      40.605  22.610  18.064  0.00  0.00    -0.477 OA
ATOM      6  H   UNL     1      40.820  22.772  17.135  0.00  0.00    +0.395 HD
ENDBRANCH   4   5
BRANCH  13  14
ATOM     14  O   UNL     1      48.448  21.611  21.534  0.00  0.00    -0.542 OA
ATOM     15  H   UNL     1      48.327  22.378  20.958  0.00  0.00    +0.385 HD
ENDBRANCH  13  14
BRANCH  16  17
ATOM     17  O   UNL     1      48.464  18.868  22.390  0.00  0.00    -0.547 OA
ATOM     18  H   UNL     1      48.085  18.442  23.171  0.00  0.00    +0.388 HD
ENDBRANCH  16  17
BRANCH  39  40
ATOM     40  O   UNL     1      42.660  18.956  20.335  0.00  0.00    -0.469 OA
ATOM     41  H   UNL     1      42.561  18.328  19.607  0.00  0.00    +0.402 HD
ENDBRANCH  39  40
BRANCH  19  20
ATOM     20  C   UNL     1      46.411  17.145  21.249  0.00  0.00    +0.260 C 
BRANCH  20  21
ATOM     21  O   UNL     1      46.099  16.971  19.866  0.00  0.00    -0.340 OA
BRANCH  21  22
ATOM     22  C   UNL     1      47.100  16.562  19.058  0.00  0.00    +0.504 C 
ATOM     35  O   UNL     1      47.313  15.374  18.907  0.00  0.00    -0.512 OA
BRANCH  22  23
ATOM     23  C   UNL     1      47.902  17.518  18.385  0.00  0.00    -0.062 C 
ATOM     24  C   UNL     1      49.211  17.640  18.698  0.00  0.00    +0.156 C 
BRANCH  24  25
ATOM     25  C   UNL     1      50.043  18.631  18.001  0.00  0.00    -0.080 A 
ATOM     26  C   UNL     1      50.017  19.974  18.397  0.00  0.00    +0.056 A 
ATOM     27  C   UNL     1      50.798  20.900  17.740  0.00  0.00    +0.007 A 
ATOM     28  C   UNL     1      51.613  20.506  16.688  0.00  0.00    +0.101 A 
ATOM     31  C   UNL     1      51.645  19.169  16.288  0.00  0.00    +0.077 A 
ATOM     34  C   UNL     1      50.870  18.233  16.944  0.00  0.00    +0.043 A 
BRANCH  28  29
ATOM     29  O   UNL     1      52.380  21.423  16.045  0.00  0.00    -0.486 OA
ATOM     30  H   UNL     1      52.193  21.499  15.100  0.00  0.00    +0.392 HD
ENDBRANCH  28  29
BRANCH  31  32
ATOM     32  O   UNL     1      52.444  18.788  15.257  0.00  0.00    -0.485 OA
ATOM     33  H   UNL     1      53.077  18.094  15.485  0.00  0.00    +0.390 HD
ENDBRANCH  31  32
ENDBRANCH  24  25
ENDBRANCH  22  23
ENDBRANCH  21  22
ENDBRANCH  20  21
ENDBRANCH  19  20
TORSDOF 12
ENDMDL
MODEL 2
REMARK VINA RESULT:      -6.8      2.040      8.432
REMARK  Name = ZINC95486358
REMARK  13 active torsions:
REMARK  status: ('A' for Active; 'I' for Inactive)
REMARK    1  A    between atoms: C1_1  and  O1_2
REMARK    2  A    between atoms: O1_2  and  C2_3
REMARK    3  A    between atoms: C3_4  and  O12_40
REMARK    4  A    between atoms: C7_8  and  O2_9
REMARK    5  A    between atoms: C10_14  and  O9_36
REMARK    6  A    between atoms: C11_16  and  O8_35
REMARK    7  A    between atoms: C12_18  and  C13_21
REMARK    8  A    between atoms: C13_21  and  O4_22
REMARK    9  A    between atoms: O4_22  and  C14_23
REMARK   10  A    between atoms: C14_23  and  C15_25
REMARK   11  A    between atoms: C16_26  and  C17_27
REMARK   12  A    between atoms: C20_30  and  O7_34
REMARK   13  A    between atoms: C21_31  and  O6_33
REMARK                            x       y       z     vdW  Elec       q    Type
REMARK                         _______ _______ _______ _____ _____    ______ ____
ROOT
ATOM      3  C   UNL     1      52.079  20.273  20.602  0.00  0.00    +0.081 A 
ATOM      4  C   UNL     1      52.577  20.833  19.429  0.00  0.00    +0.103 A 
ATOM      7  C   UNL     1      52.234  20.293  18.203  0.00  0.00    +0.088 A 
ATOM      8  C   UNL     1      51.390  19.183  18.146  0.00  0.00    -0.138 A 
ATOM      9  C   UNL     1      50.894  18.617  19.327  0.00  0.00    -0.070 A 
ATOM     10  C   UNL     1      50.001  17.413  19.249  0.00  0.00    +0.211 C 
ATOM     11  C   UNL     1      49.313  17.367  17.883  0.00  0.00    +0.172 C 
ATOM     12  O   UNL     1      50.303  17.419  16.855  0.00  0.00    -0.328 OA
ATOM     13  C   UNL     1      48.492  16.081  17.790  0.00  0.00    +0.172 C 
ATOM     16  C   UNL     1      47.478  16.074  18.941  0.00  0.00    +0.138 C 
ATOM     19  C   UNL     1      48.207  16.226  20.277  0.00  0.00    +0.195 C 
ATOM     36  O   UNL     1      48.997  17.422  20.258  0.00  0.00    -0.335 OA
ATOM     37  C   UNL     1      51.007  18.598  16.843  0.00  0.00    +0.528 C 
ATOM     38  O   UNL     1      51.311  19.138  15.797  0.00  0.00    -0.424 OA
ATOM     39  C   UNL     1      51.241  19.161  20.548  0.00  0.00    +0.131 A 
ENDROOT
BRANCH   3   2
ATOM      1  C   UNL     1      51.575  21.850  22.308  0.00  0.00    +0.239 C 
ATOM      2  O   UNL     1      52.415  20.809  21.804  0.00  0.00    -0.319 OA
ENDBRANCH   3   2
BRANCH   4   5
ATOM      5  O   UNL     1      53.401  21.914  19.488  0.00  0.00    -0.477 OA
ATOM      6  H   UNL     1      53.542  22.252  20.382  0.00  0.00    +0.395 HD
ENDBRANCH   4   5
BRANCH  13  14
ATOM     14  O   UNL     1      47.804  16.036  16.539  0.00  0.00    -0.542 OA
ATOM     15  H   UNL     1      46.985  15.523  16.558  0.00  0.00    +0.385 HD
ENDBRANCH  13  14
BRANCH  16  17
ATOM     17  O   UNL     1      46.758  14.841  18.933  0.00  0.00    -0.547 OA
ATOM     18  H   UNL     1      47.030  14.231  18.233  0.00  0.00    +0.388 HD
ENDBRANCH  16  17
BRANCH  39  40
ATOM     40  O   UNL     1      50.761  18.615  21.696  0.00  0.00    -0.469 OA
ATOM     41  H   UNL     1      50.924  19.151  22.485  0.00  0.00    +0.402 HD
ENDBRANCH  39  40
BRANCH  19  20
ATOM     20  C   UNL     1      47.181  16.316  21.408  0.00  0.00    +0.260 C 
BRANCH  20  21
ATOM     21  O   UNL     1      45.926  16.748  20.879  0.00  0.00    -0.340 OA
BRANCH  21  22
ATOM     22  C   UNL     1      45.491  17.969  21.253  0.00  0.00    +0.504 C 
ATOM     35  O   UNL     1      46.114  18.610  22.078  0.00  0.00    -0.512 OA
BRANCH  22  23
ATOM     23  C   UNL     1      44.308  18.505  20.683  0.00  0.00    -0.062 C 
ATOM     24  C   UNL     1      44.187  19.840  20.513  0.00  0.00    +0.156 C 
BRANCH  24  25
ATOM     25  C   UNL     1      42.961  20.396  19.923  0.00  0.00    -0.080 A 
ATOM     26  C   UNL     1      41.773  19.654  19.942  0.00  0.00    +0.056 A 
ATOM     27  C   UNL     1      40.627  20.178  19.387  0.00  0.00    +0.007 A 
ATOM     28  C   UNL     1      40.643  21.441  18.811  0.00  0.00    +0.101 A 
ATOM     31  C   UNL     1      41.822  22.187  18.789  0.00  0.00    +0.077 A 
ATOM     34  C   UNL     1      42.975  21.672  19.347  0.00  0.00    +0.043 A 
BRANCH  28  29
ATOM     29  O   UNL     1      39.509  21.952  18.266  0.00  0.00    -0.486 OA
ATOM     30  H   UNL     1      39.187  22.751  18.705  0.00  0.00    +0.392 HD
ENDBRANCH  28  29
BRANCH  31  32
ATOM     32  O   UNL     1      41.834  23.423  18.223  0.00  0.00    -0.485 OA
ATOM     33  H   UNL     1      42.546  23.994  18.541  0.00  0.00    +0.390 HD
ENDBRANCH  31  32
ENDBRANCH  24  25
ENDBRANCH  22  23
ENDBRANCH  21  22
ENDBRANCH  20  21
ENDBRANCH  19  20
TORSDOF 12
ENDMDL
MODEL 3
REMARK VINA RESULT:      -6.8      3.778      6.881
REMARK  Name = ZINC95486358
REMARK  13 active torsions:
REMARK  status: ('A' for Active; 'I' for Inactive)
REMARK    1  A    between atoms: C1_1  and  O1_2
REMARK    2  A    between atoms: O1_2  and  C2_3
REMARK    3  A    between atoms: C3_4  and  O12_40
REMARK    4  A    between atoms: C7_8  and  O2_9
REMARK    5  A    between atoms: C10_14  and  O9_36
REMARK    6  A    between atoms: C11_16  and  O8_35
REMARK    7  A    between atoms: C12_18  and  C13_21
REMARK    8  A    between atoms: C13_21  and  O4_22
REMARK    9  A    between atoms: O4_22  and  C14_23
REMARK   10  A    between atoms: C14_23  and  C15_25
REMARK   11  A    between atoms: C16_26  and  C17_27
REMARK   12  A    between atoms: C20_30  and  O7_34
REMARK   13  A    between atoms: C21_31  and  O6_33
REMARK                            x       y       z     vdW  Elec       q    Type
REMARK                         _______ _______ _______ _____ _____    ______ ____
ROOT
ATOM      3  C   UNL     1      50.927  19.383  17.802  0.00  0.00    +0.081 A 
ATOM      4  C   UNL     1      50.814  20.618  18.433  0.00  0.00    +0.103 A 
ATOM      7  C   UNL     1      49.656  20.944  19.114  0.00  0.00    +0.088 A 
ATOM      8  C   UNL     1      48.600  20.034  19.164  0.00  0.00    -0.138 A 
ATOM      9  C   UNL     1      48.712  18.793  18.523  0.00  0.00    -0.070 A 
ATOM     10  C   UNL     1      47.560  17.832  18.572  0.00  0.00    +0.211 C 
ATOM     11  C   UNL     1      46.694  18.125  19.798  0.00  0.00    +0.172 C 
ATOM     12  O   UNL     1      46.299  19.497  19.779  0.00  0.00    -0.328 OA
ATOM     13  C   UNL     1      45.475  17.203  19.768  0.00  0.00    +0.172 C 
ATOM     16  C   UNL     1      45.971  15.751  19.753  0.00  0.00    +0.138 C 
ATOM     19  C   UNL     1      46.914  15.537  18.568  0.00  0.00    +0.195 C 
ATOM     36  O   UNL     1      47.994  16.478  18.640  0.00  0.00    -0.335 OA
ATOM     37  C   UNL     1      47.358  20.365  19.896  0.00  0.00    +0.528 C 
ATOM     38  O   UNL     1      47.274  21.372  20.570  0.00  0.00    -0.424 OA
ATOM     39  C   UNL     1      49.872  18.474  17.844  0.00  0.00    +0.131 A 
ENDROOT
BRANCH   3   2
ATOM      1  C   UNL     1      52.145  19.445  15.762  0.00  0.00    +0.239 C 
ATOM      2  O   UNL     1      52.068  19.063  17.136  0.00  0.00    -0.319 OA
ENDBRANCH   3   2
BRANCH   4   5
ATOM      5  O   UNL     1      51.845  21.505  18.382  0.00  0.00    -0.477 OA
ATOM      6  H   UNL     1      51.569  22.431  18.417  0.00  0.00    +0.395 HD
ENDBRANCH   4   5
BRANCH  13  14
ATOM     14  O   UNL     1      44.672  17.427  20.928  0.00  0.00    -0.542 OA
ATOM     15  H   UNL     1      44.627  16.670  21.529  0.00  0.00    +0.385 HD
ENDBRANCH  13  14
BRANCH  16  17
ATOM     17  O   UNL     1      44.854  14.869  19.634  0.00  0.00    -0.547 OA
ATOM     18  H   UNL     1      44.396  14.699  20.469  0.00  0.00    +0.388 HD
ENDBRANCH  16  17
BRANCH  39  40
ATOM     40  O   UNL     1      49.985  17.270  17.223  0.00  0.00    -0.469 OA
ATOM     41  H   UNL     1      50.405  17.315  16.353  0.00  0.00    +0.402 HD
ENDBRANCH  39  40
BRANCH  19  20
ATOM     20  C   UNL     1      47.478  14.116  18.619  0.00  0.00    +0.260 C 
BRANCH  20  21
ATOM     21  O   UNL     1      46.525  13.206  18.068  0.00  0.00    -0.340 OA
BRANCH  21  22
ATOM     22  C   UNL     1      46.991  12.277  17.207  0.00  0.00    +0.504 C 
ATOM     35  O   UNL     1      46.726  11.102  17.379  0.00  0.00    -0.512 OA
BRANCH  22  23
ATOM     23  C   UNL     1      47.788  12.671  16.103  0.00  0.00    -0.062 C 
ATOM     24  C   UNL     1      49.068  12.248  16.009  0.00  0.00    +0.156 C 
BRANCH  24  25
ATOM     25  C   UNL     1      49.894  12.656  14.865  0.00  0.00    -0.080 A 
ATOM     26  C   UNL     1      51.224  13.047  15.063  0.00  0.00    +0.056 A 
ATOM     27  C   UNL     1      51.995  13.430  13.987  0.00  0.00    +0.007 A 
ATOM     28  C   UNL     1      51.460  13.427  12.707  0.00  0.00    +0.101 A 
ATOM     31  C   UNL     1      50.135  13.038  12.501  0.00  0.00    +0.077 A 
ATOM     34  C   UNL     1      49.356  12.648  13.573  0.00  0.00    +0.043 A 
BRANCH  28  29
ATOM     29  O   UNL     1      52.225  13.805  11.651  0.00  0.00    -0.486 OA
ATOM     30  H   UNL     1      52.559  13.067  11.123  0.00  0.00    +0.392 HD
ENDBRANCH  28  29
BRANCH  31  32
ATOM     32  O   UNL     1      49.614  13.038  11.246  0.00  0.00    -0.485 OA
ATOM     33  H   UNL     1      49.692  12.189  10.788  0.00  0.00    +0.390 HD
ENDBRANCH  31  32
ENDBRANCH  24  25
ENDBRANCH  22  23
ENDBRANCH  21  22
ENDBRANCH  20  21
ENDBRANCH  19  20
TORSDOF 12
ENDMDL
MODEL 4
REMARK VINA RESULT:      -6.6      4.861      7.858
REMARK  Name = ZINC95486358
REMARK  13 active torsions:
REMARK  status: ('A' for Active; 'I' for Inactive)
REMARK    1  A    between atoms: C1_1  and  O1_2
REMARK    2  A    between atoms: O1_2  and  C2_3
REMARK    3  A    between atoms: C3_4  and  O12_40
REMARK    4  A    between atoms: C7_8  and  O2_9
REMARK    5  A    between atoms: C10_14  and  O9_36
REMARK    6  A    between atoms: C11_16  and  O8_35
REMARK    7  A    between atoms: C12_18  and  C13_21
REMARK    8  A    between atoms: C13_21  and  O4_22
REMARK    9  A    between atoms: O4_22  and  C14_23
REMARK   10  A    between atoms: C14_23  and  C15_25
REMARK   11  A    between atoms: C16_26  and  C17_27
REMARK   12  A    between atoms: C20_30  and  O7_34
REMARK   13  A    between atoms: C21_31  and  O6_33
REMARK                            x       y       z     vdW  Elec       q    Type
REMARK                         _______ _______ _______ _____ _____    ______ ____
ROOT
ATOM      3  C   UNL     1      50.994  19.447  17.743  0.00  0.00    +0.081 A 
ATOM      4  C   UNL     1      50.747  20.551  18.555  0.00  0.00    +0.103 A 
ATOM      7  C   UNL     1      49.546  20.658  19.231  0.00  0.00    +0.088 A 
ATOM      8  C   UNL     1      48.581  19.660  19.093  0.00  0.00    -0.138 A 
ATOM      9  C   UNL     1      48.828  18.553  18.272  0.00  0.00    -0.070 A 
ATOM     10  C   UNL     1      47.772  17.497  18.122  0.00  0.00    +0.211 C 
ATOM     11  C   UNL     1      46.849  17.511  19.342  0.00  0.00    +0.172 C 
ATOM     12  O   UNL     1      46.326  18.827  19.522  0.00  0.00    -0.328 OA
ATOM     13  C   UNL     1      45.725  16.499  19.119  0.00  0.00    +0.172 C 
ATOM     16  C   UNL     1      46.358  15.119  18.897  0.00  0.00    +0.138 C 
ATOM     19  C   UNL     1      47.348  15.183  17.733  0.00  0.00    +0.195 C 
ATOM     36  O   UNL     1      48.331  16.193  17.995  0.00  0.00    -0.335 OA
ATOM     37  C   UNL     1      47.294  19.756  19.816  0.00  0.00    +0.528 C 
ATOM     38  O   UNL     1      47.096  20.632  20.635  0.00  0.00    -0.424 OA
ATOM     39  C   UNL     1      50.030  18.452  17.600  0.00  0.00    +0.131 A 
ENDROOT
BRANCH   3   2
ATOM      1  C   UNL     1      52.237  19.894  15.767  0.00  0.00    +0.239 C 
ATOM      2  O   UNL     1      52.177  19.342  17.084  0.00  0.00    -0.319 OA
ENDBRANCH   3   2
BRANCH   4   5
ATOM      5  O   UNL     1      51.689  21.524  18.685  0.00  0.00    -0.477 OA
ATOM      6  H   UNL     1      52.279  21.402  19.442  0.00  0.00    +0.395 HD
ENDBRANCH   4   5
BRANCH  13  14
ATOM     14  O   UNL     1      44.874  16.462  20.265  0.00  0.00    -0.542 OA
ATOM     15  H   UNL     1      45.321  16.682  21.095  0.00  0.00    +0.385 HD
ENDBRANCH  13  14
BRANCH  16  17
ATOM     17  O   UNL     1      45.334  14.170  18.595  0.00  0.00    -0.547 OA
ATOM     18  H   UNL     1      44.638  14.513  18.018  0.00  0.00    +0.388 HD
ENDBRANCH  16  17
BRANCH  39  40
ATOM     40  O   UNL     1      50.274  17.378  16.802  0.00  0.00    -0.469 OA
ATOM     41  H   UNL     1      49.479  16.985  16.418  0.00  0.00    +0.402 HD
ENDBRANCH  39  40
BRANCH  19  20
ATOM     20  C   UNL     1      48.044  13.829  17.584  0.00  0.00    +0.260 C 
BRANCH  20  21
ATOM     21  O   UNL     1      48.187  13.517  16.197  0.00  0.00    -0.340 OA
BRANCH  21  22
ATOM     22  C   UNL     1      49.438  13.286  15.746  0.00  0.00    +0.504 C 
ATOM     35  O   UNL     1      50.394  13.512  16.464  0.00  0.00    -0.512 OA
BRANCH  22  23
ATOM     23  C   UNL     1      49.638  12.781  14.437  0.00  0.00    -0.062 C 
ATOM     24  C   UNL     1      50.839  12.923  13.834  0.00  0.00    +0.156 C 
BRANCH  24  25
ATOM     25  C   UNL     1      51.046  12.399  12.478  0.00  0.00    -0.080 A 
ATOM     26  C   UNL     1      51.351  11.045  12.286  0.00  0.00    +0.056 A 
ATOM     27  C   UNL     1      51.546  10.558  11.012  0.00  0.00    +0.007 A 
ATOM     28  C   UNL     1      51.439  11.403   9.917  0.00  0.00    +0.101 A 
ATOM     31  C   UNL     1      51.135  12.753  10.099  0.00  0.00    +0.077 A 
ATOM     34  C   UNL     1      50.933  13.249  11.372  0.00  0.00    +0.043 A 
BRANCH  28  29
ATOM     29  O   UNL     1      51.631  10.917   8.664  0.00  0.00    -0.486 OA
ATOM     30  H   UNL     1      52.462  10.434   8.553  0.00  0.00    +0.392 HD
ENDBRANCH  28  29
BRANCH  31  32
ATOM     32  O   UNL     1      51.032  13.578   9.023  0.00  0.00    -0.485 OA
ATOM     33  H   UNL     1      51.118  14.517   9.238  0.00  0.00    +0.390 HD
ENDBRANCH  31  32
ENDBRANCH  24  25
ENDBRANCH  22  23
ENDBRANCH  21  22
ENDBRANCH  20  21
ENDBRANCH  19  20
TORSDOF 12
ENDMDL
MODEL 5
REMARK VINA RESULT:      -6.5      2.209      8.794
REMARK  Name = ZINC95486358
REMARK  13 active torsions:
REMARK  status: ('A' for Active; 'I' for Inactive)
REMARK    1  A    between atoms: C1_1  and  O1_2
REMARK    2  A    between atoms: O1_2  and  C2_3
REMARK    3  A    between atoms: C3_4  and  O12_40
REMARK    4  A    between atoms: C7_8  and  O2_9
REMARK    5  A    between atoms: C10_14  and  O9_36
REMARK    6  A    between atoms: C11_16  and  O8_35
REMARK    7  A    between atoms: C12_18  and  C13_21
REMARK    8  A    between atoms: C13_21  and  O4_22
REMARK    9  A    between atoms: O4_22  and  C14_23
REMARK   10  A    between atoms: C14_23  and  C15_25
REMARK   11  A    between atoms: C16_26  and  C17_27
REMARK   12  A    between atoms: C20_30  and  O7_34
REMARK   13  A    between atoms: C21_31  and  O6_33
REMARK                            x       y       z     vdW  Elec       q    Type
REMARK                         _______ _______ _______ _____ _____    ______ ____
ROOT
ATOM      3  C   UNL     1      50.756  18.518  18.426  0.00  0.00    +0.081 A 
ATOM      4  C   UNL     1      51.666  18.193  17.424  0.00  0.00    +0.103 A 
ATOM      7  C   UNL     1      51.627  16.945  16.831  0.00  0.00    +0.088 A 
ATOM      8  C   UNL     1      50.675  16.011  17.241  0.00  0.00    -0.138 A 
ATOM      9  C   UNL     1      49.763  16.337  18.253  0.00  0.00    -0.070 A 
ATOM     10  C   UNL     1      48.757  15.314  18.695  0.00  0.00    +0.211 C 
ATOM     11  C   UNL     1      48.515  14.307  17.569  0.00  0.00    +0.172 C 
ATOM     12  O   UNL     1      49.763  13.748  17.160  0.00  0.00    -0.328 OA
ATOM     13  C   UNL     1      47.567  13.221  18.078  0.00  0.00    +0.172 C 
ATOM     16  C   UNL     1      46.265  13.894  18.533  0.00  0.00    +0.138 C 
ATOM     19  C   UNL     1      46.572  14.963  19.583  0.00  0.00    +0.195 C 
ATOM     36  O   UNL     1      47.510  15.906  19.046  0.00  0.00    -0.335 OA
ATOM     37  C   UNL     1      50.615  14.675  16.611  0.00  0.00    +0.528 C 
ATOM     38  O   UNL     1      51.301  14.403  15.645  0.00  0.00    -0.424 OA
ATOM     39  C   UNL     1      49.808  17.585  18.842  0.00  0.00    +0.131 A 
ENDROOT
BRANCH   3   2
ATOM      1  C   UNL     1      50.013  20.776  18.393  0.00  0.00    +0.239 C 
ATOM      2  O   UNL     1      50.794  19.747  19.004  0.00  0.00    -0.319 OA
ENDBRANCH   3   2
BRANCH   4   5
ATOM      5  O   UNL     1      52.595  19.106  17.027  0.00  0.00    -0.477 OA
ATOM      6  H   UNL     1      52.330  19.626  16.257  0.00  0.00    +0.395 HD
ENDBRANCH   4   5
BRANCH  13  14
ATOM     14  O   UNL     1      47.290  12.292  17.029  0.00  0.00    -0.542 OA
ATOM     15  H   UNL     1      48.078  11.963  16.576  0.00  0.00    +0.385 HD
ENDBRANCH  13  14
BRANCH  16  17
ATOM     17  O   UNL     1      45.395  12.912  19.098  0.00  0.00    -0.547 OA
ATOM     18  H   UNL     1      45.599  12.005  18.830  0.00  0.00    +0.388 HD
ENDBRANCH  16  17
BRANCH  39  40
ATOM     40  O   UNL     1      48.924  17.906  19.823  0.00  0.00    -0.469 OA
ATOM     41  H   UNL     1      48.237  18.528  19.547  0.00  0.00    +0.402 HD
ENDBRANCH  39  40
BRANCH  19  20
ATOM     20  C   UNL     1      45.281  15.693  19.957  0.00  0.00    +0.260 C 
BRANCH  20  21
ATOM     21  O   UNL     1      45.510  16.505  21.110  0.00  0.00    -0.340 OA
BRANCH  21  22
ATOM     22  C   UNL     1      45.434  17.842  20.942  0.00  0.00    +0.504 C 
ATOM     35  O   UNL     1      46.336  18.556  21.337  0.00  0.00    -0.512 OA
BRANCH  22  23
ATOM     23  C   UNL     1      44.303  18.414  20.306  0.00  0.00    -0.062 C 
ATOM     24  C   UNL     1      43.998  19.714  20.513  0.00  0.00    +0.156 C 
BRANCH  24  25
ATOM     25  C   UNL     1      42.827  20.307  19.854  0.00  0.00    -0.080 A 
ATOM     26  C   UNL     1      41.645  19.567  19.722  0.00  0.00    +0.056 A 
ATOM     27  C   UNL     1      40.549  20.126  19.103  0.00  0.00    +0.007 A 
ATOM     28  C   UNL     1      40.610  21.422  18.611  0.00  0.00    +0.101 A 
ATOM     31  C   UNL     1      41.783  22.167  18.739  0.00  0.00    +0.077 A 
ATOM     34  C   UNL     1      42.885  21.617  19.363  0.00  0.00    +0.043 A 
BRANCH  28  29
ATOM     29  O   UNL     1      39.526  21.967  18.002  0.00  0.00    -0.486 OA
ATOM     30  H   UNL     1      38.799  22.176  18.605  0.00  0.00    +0.392 HD
ENDBRANCH  28  29
BRANCH  31  32
ATOM     32  O   UNL     1      41.839  23.436  18.255  0.00  0.00    -0.485 OA
ATOM     33  H   UNL     1      41.076  23.685  17.716  0.00  0.00    +0.390 HD
ENDBRANCH  31  32
ENDBRANCH  24  25
ENDBRANCH  22  23
ENDBRANCH  21  22
ENDBRANCH  20  21
ENDBRANCH  19  20
TORSDOF 12
ENDMDL
MODEL 6
REMARK VINA RESULT:      -6.3      2.170      8.132
REMARK  Name = ZINC95486358
REMARK  13 active torsions:
REMARK  status: ('A' for Active; 'I' for Inactive)
REMARK    1  A    between atoms: C1_1  and  O1_2
REMARK    2  A    between atoms: O1_2  and  C2_3
REMARK    3  A    between atoms: C3_4  and  O12_40
REMARK    4  A    between atoms: C7_8  and  O2_9
REMARK    5  A    between atoms: C10_14  and  O9_36
REMARK    6  A    between atoms: C11_16  and  O8_35
REMARK    7  A    between atoms: C12_18  and  C13_21
REMARK    8  A    between atoms: C13_21  and  O4_22
REMARK    9  A    between atoms: O4_22  and  C14_23
REMARK   10  A    between atoms: C14_23  and  C15_25
REMARK   11  A    between atoms: C16_26  and  C17_27
REMARK   12  A    between atoms: C20_30  and  O7_34
REMARK   13  A    between atoms: C21_31  and  O6_33
REMARK                            x       y       z     vdW  Elec       q    Type
REMARK                         _______ _______ _______ _____ _____    ______ ____
ROOT
ATOM      3  C   UNL     1      50.683  19.147  17.639  0.00  0.00    +0.081 A 
ATOM      4  C   UNL     1      51.608  18.549  16.787  0.00  0.00    +0.103 A 
ATOM      7  C   UNL     1      51.536  17.193  16.529  0.00  0.00    +0.088 A 
ATOM      8  C   UNL     1      50.535  16.425  17.126  0.00  0.00    -0.138 A 
ATOM      9  C   UNL     1      49.609  17.027  17.987  0.00  0.00    -0.070 A 
ATOM     10  C   UNL     1      48.550  16.183  18.635  0.00  0.00    +0.211 C 
ATOM     11  C   UNL     1      48.299  14.931  17.792  0.00  0.00    +0.172 C 
ATOM     12  O   UNL     1      49.535  14.247  17.586  0.00  0.00    -0.328 OA
ATOM     13  C   UNL     1      47.294  14.041  18.524  0.00  0.00    +0.172 C 
ATOM     16  C   UNL     1      46.008  14.849  18.744  0.00  0.00    +0.138 C 
ATOM     19  C   UNL     1      46.328  16.139  19.500  0.00  0.00    +0.195 C 
ATOM     36  O   UNL     1      47.318  16.884  18.778  0.00  0.00    -0.335 OA
ATOM     37  C   UNL     1      50.439  14.975  16.853  0.00  0.00    +0.528 C 
ATOM     38  O   UNL     1      51.141  14.444  16.014  0.00  0.00    -0.424 OA
ATOM     39  C   UNL     1      49.687  18.382  18.242  0.00  0.00    +0.131 A 
ENDROOT
BRANCH   3   2
ATOM      1  C   UNL     1      51.579  20.893  18.981  0.00  0.00    +0.239 C 
ATOM      2  O   UNL     1      50.755  20.481  17.888  0.00  0.00    -0.319 OA
ENDBRANCH   3   2
BRANCH   4   5
ATOM      5  O   UNL     1      52.584  19.300  16.208  0.00  0.00    -0.477 OA
ATOM      6  H   UNL     1      53.481  19.019  16.432  0.00  0.00    +0.395 HD
ENDBRANCH   4   5
BRANCH  13  14
ATOM     14  O   UNL     1      47.009  12.885  17.735  0.00  0.00    -0.542 OA
ATOM     15  H   UNL     1      46.740  13.083  16.827  0.00  0.00    +0.385 HD
ENDBRANCH  13  14
BRANCH  16  17
ATOM     17  O   UNL     1      45.083  14.071  19.506  0.00  0.00    -0.547 OA
ATOM     18  H   UNL     1      44.316  13.768  19.001  0.00  0.00    +0.388 HD
ENDBRANCH  16  17
BRANCH  39  40
ATOM     40  O   UNL     1      48.789  18.969  19.076  0.00  0.00    -0.469 OA
ATOM     41  H   UNL     1      48.965  18.817  20.014  0.00  0.00    +0.402 HD
ENDBRANCH  39  40
BRANCH  19  20
ATOM     20  C   UNL     1      45.057  16.981  19.627  0.00  0.00    +0.260 C 
BRANCH  20  21
ATOM     21  O   UNL     1      44.412  16.684  20.867  0.00  0.00    -0.340 OA
BRANCH  21  22
ATOM     22  C   UNL     1      43.572  17.618  21.360  0.00  0.00    +0.504 C 
ATOM     35  O   UNL     1      42.669  17.290  22.106  0.00  0.00    -0.512 OA
BRANCH  22  23
ATOM     23  C   UNL     1      43.742  18.981  21.008  0.00  0.00    -0.062 C 
ATOM     24  C   UNL     1      44.688  19.724  21.624  0.00  0.00    +0.156 C 
BRANCH  24  25
ATOM     25  C   UNL     1      44.865  21.136  21.260  0.00  0.00    -0.080 A 
ATOM     26  C   UNL     1      45.912  21.880  21.817  0.00  0.00    +0.056 A 
ATOM     27  C   UNL     1      46.074  23.204  21.474  0.00  0.00    +0.007 A 
ATOM     28  C   UNL     1      45.204  23.805  20.575  0.00  0.00    +0.101 A 
ATOM     31  C   UNL     1      44.158  23.070  20.014  0.00  0.00    +0.077 A 
ATOM     34  C   UNL     1      43.991  21.741  20.349  0.00  0.00    +0.043 A 
BRANCH  28  29
ATOM     29  O   UNL     1      45.368  25.110  20.240  0.00  0.00    -0.486 OA
ATOM     30  H   UNL     1      44.588  25.514  19.837  0.00  0.00    +0.392 HD
ENDBRANCH  28  29
BRANCH  31  32
ATOM     32  O   UNL     1      43.307  23.662  19.135  0.00  0.00    -0.485 OA
ATOM     33  H   UNL     1      42.572  23.097  18.857  0.00  0.00    +0.390 HD
ENDBRANCH  31  32
ENDBRANCH  24  25
ENDBRANCH  22  23
ENDBRANCH  21  22
ENDBRANCH  20  21
ENDBRANCH  19  20
TORSDOF 12
ENDMDL
MODEL 7
REMARK VINA RESULT:      -6.2      3.122      3.844
REMARK  Name = ZINC95486358
REMARK  13 active torsions:
REMARK  status: ('A' for Active; 'I' for Inactive)
REMARK    1  A    between atoms: C1_1  and  O1_2
REMARK    2  A    between atoms: O1_2  and  C2_3
REMARK    3  A    between atoms: C3_4  and  O12_40
REMARK    4  A    between atoms: C7_8  and  O2_9
REMARK    5  A    between atoms: C10_14  and  O9_36
REMARK    6  A    between atoms: C11_16  and  O8_35
REMARK    7  A    between atoms: C12_18  and  C13_21
REMARK    8  A    between atoms: C13_21  and  O4_22
REMARK    9  A    between atoms: O4_22  and  C14_23
REMARK   10  A    between atoms: C14_23  and  C15_25
REMARK   11  A    between atoms: C16_26  and  C17_27
REMARK   12  A    between atoms: C20_30  and  O7_34
REMARK   13  A    between atoms: C21_31  and  O6_33
REMARK                            x       y       z     vdW  Elec       q    Type
REMARK                         _______ _______ _______ _____ _____    ______ ____
ROOT
ATOM      3  C   UNL     1      42.231  21.383  19.033  0.00  0.00    +0.081 A 
ATOM      4  C   UNL     1      42.745  22.671  19.148  0.00  0.00    +0.103 A 
ATOM      7  C   UNL     1      43.886  22.897  19.894  0.00  0.00    +0.088 A 
ATOM      8  C   UNL     1      44.519  21.831  20.534  0.00  0.00    -0.138 A 
ATOM      9  C   UNL     1      43.998  20.536  20.422  0.00  0.00    -0.070 A 
ATOM     10  C   UNL     1      44.682  19.403  21.131  0.00  0.00    +0.211 C 
ATOM     11  C   UNL     1      46.152  19.753  21.367  0.00  0.00    +0.172 C 
ATOM     12  O   UNL     1      46.234  20.999  22.059  0.00  0.00    -0.328 OA
ATOM     13  C   UNL     1      46.799  18.630  22.179  0.00  0.00    +0.172 C 
ATOM     16  C   UNL     1      46.642  17.320  21.396  0.00  0.00    +0.138 C 
ATOM     19  C   UNL     1      45.164  17.068  21.096  0.00  0.00    +0.195 C 
ATOM     36  O   UNL     1      44.622  18.190  20.387  0.00  0.00    -0.335 OA
ATOM     37  C   UNL     1      45.747  22.055  21.329  0.00  0.00    +0.528 C 
ATOM     38  O   UNL     1      46.299  23.137  21.343  0.00  0.00    -0.424 OA
ATOM     39  C   UNL     1      42.857  20.317  19.676  0.00  0.00    +0.131 A 
ENDROOT
BRANCH   3   2
ATOM      1  C   UNL     1      39.855  21.357  18.951  0.00  0.00    +0.239 C 
ATOM      2  O   UNL     1      41.111  21.164  18.296  0.00  0.00    -0.319 OA
ENDBRANCH   3   2
BRANCH   4   5
ATOM      5  O   UNL     1      42.124  23.710  18.525  0.00  0.00    -0.477 OA
ATOM      6  H   UNL     1      41.660  23.460  17.715  0.00  0.00    +0.395 HD
ENDBRANCH   4   5
BRANCH  13  14
ATOM     14  O   UNL     1      48.185  18.913  22.375  0.00  0.00    -0.542 OA
ATOM     15  H   UNL     1      48.648  19.190  21.572  0.00  0.00    +0.385 HD
ENDBRANCH  13  14
BRANCH  16  17
ATOM     17  O   UNL     1      47.158  16.238  22.173  0.00  0.00    -0.547 OA
ATOM     18  H   UNL     1      47.544  16.509  23.018  0.00  0.00    +0.388 HD
ENDBRANCH  16  17
BRANCH  39  40
ATOM     40  O   UNL     1      42.349  19.062  19.563  0.00  0.00    -0.469 OA
ATOM     41  H   UNL     1      41.475  18.954  19.963  0.00  0.00    +0.402 HD
ENDBRANCH  39  40
BRANCH  19  20
ATOM     20  C   UNL     1      45.028  15.812  20.233  0.00  0.00    +0.260 C 
BRANCH  20  21
ATOM     21  O   UNL     1      46.056  15.803  19.241  0.00  0.00    -0.340 OA
BRANCH  21  22
ATOM     22  C   UNL     1      46.288  14.633  18.609  0.00  0.00    +0.504 C 
ATOM     35  O   UNL     1      45.445  13.756  18.626  0.00  0.00    -0.512 OA
BRANCH  22  23
ATOM     23  C   UNL     1      47.513  14.426  17.927  0.00  0.00    -0.062 C 
ATOM     24  C   UNL     1      47.524  13.785  16.737  0.00  0.00    +0.156 C 
BRANCH  24  25
ATOM     25  C   UNL     1      48.793  13.571  16.030  0.00  0.00    -0.080 A 
ATOM     26  C   UNL     1      49.991  14.052  16.574  0.00  0.00    +0.056 A 
ATOM     27  C   UNL     1      51.179  13.850  15.908  0.00  0.00    +0.007 A 
ATOM     28  C   UNL     1      51.195  13.169  14.699  0.00  0.00    +0.101 A 
ATOM     31  C   UNL     1      50.007  12.686  14.149  0.00  0.00    +0.077 A 
ATOM     34  C   UNL     1      48.811  12.879  14.813  0.00  0.00    +0.043 A 
BRANCH  28  29
ATOM     29  O   UNL     1      52.370  12.973  14.047  0.00  0.00    -0.486 OA
ATOM     30  H   UNL     1      52.840  13.789  13.829  0.00  0.00    +0.392 HD
ENDBRANCH  28  29
BRANCH  31  32
ATOM     32  O   UNL     1      50.026  12.020  12.965  0.00  0.00    -0.485 OA
ATOM     33  H   UNL     1      50.831  12.162  12.447  0.00  0.00    +0.390 HD
ENDBRANCH  31  32
ENDBRANCH  24  25
ENDBRANCH  22  23
ENDBRANCH  21  22
ENDBRANCH  20  21
ENDBRANCH  19  20
TORSDOF 12
ENDMDL
MODEL 8
REMARK VINA RESULT:      -6.2      4.057      8.744
REMARK  Name = ZINC95486358
REMARK  13 active torsions:
REMARK  status: ('A' for Active; 'I' for Inactive)
REMARK    1  A    between atoms: C1_1  and  O1_2
REMARK    2  A    between atoms: O1_2  and  C2_3
REMARK    3  A    between atoms: C3_4  and  O12_40
REMARK    4  A    between atoms: C7_8  and  O2_9
REMARK    5  A    between atoms: C10_14  and  O9_36
REMARK    6  A    between atoms: C11_16  and  O8_35
REMARK    7  A    between atoms: C12_18  and  C13_21
REMARK    8  A    between atoms: C13_21  and  O4_22
REMARK    9  A    between atoms: O4_22  and  C14_23
REMARK   10  A    between atoms: C14_23  and  C15_25
REMARK   11  A    between atoms: C16_26  and  C17_27
REMARK   12  A    between atoms: C20_30  and  O7_34
REMARK   13  A    between atoms: C21_31  and  O6_33
REMARK                            x       y       z     vdW  Elec       q    Type
REMARK                         _______ _______ _______ _____ _____    ______ ____
ROOT
ATOM      3  C   UNL     1      50.430  12.358  15.408  0.00  0.00    +0.081 A 
ATOM      4  C   UNL     1      49.832  11.575  14.424  0.00  0.00    +0.103 A 
ATOM      7  C   UNL     1      48.524  11.155  14.575  0.00  0.00    +0.088 A 
ATOM      8  C   UNL     1      47.806  11.515  15.716  0.00  0.00    -0.138 A 
ATOM      9  C   UNL     1      48.410  12.298  16.707  0.00  0.00    -0.070 A 
ATOM     10  C   UNL     1      47.630  12.661  17.937  0.00  0.00    +0.211 C 
ATOM     11  C   UNL     1      46.131  12.614  17.631  0.00  0.00    +0.172 C 
ATOM     12  O   UNL     1      45.800  11.332  17.096  0.00  0.00    -0.328 OA
ATOM     13  C   UNL     1      45.359  12.887  18.921  0.00  0.00    +0.172 C 
ATOM     16  C   UNL     1      45.789  14.258  19.458  0.00  0.00    +0.138 C 
ATOM     19  C   UNL     1      47.306  14.288  19.650  0.00  0.00    +0.195 C 
ATOM     36  O   UNL     1      47.951  13.965  18.411  0.00  0.00    -0.335 OA
ATOM     37  C   UNL     1      46.402  11.080  15.888  0.00  0.00    +0.528 C 
ATOM     38  O   UNL     1      45.805  10.512  14.994  0.00  0.00    -0.424 OA
ATOM     39  C   UNL     1      49.718  12.714  16.551  0.00  0.00    +0.131 A 
ENDROOT
BRANCH   3   2
ATOM      1  C   UNL     1      51.928  13.951  14.475  0.00  0.00    +0.239 C 
ATOM      2  O   UNL     1      51.715  12.773  15.255  0.00  0.00    -0.319 OA
ENDBRANCH   3   2
BRANCH   4   5
ATOM      5  O   UNL     1      50.535  11.224  13.314  0.00  0.00    -0.477 OA
ATOM      6  H   UNL     1      50.109  10.540  12.779  0.00  0.00    +0.395 HD
ENDBRANCH   4   5
BRANCH  13  14
ATOM     14  O   UNL     1      43.956  12.892  18.652  0.00  0.00    -0.542 OA
ATOM     15  H   UNL     1      43.403  12.824  19.442  0.00  0.00    +0.385 HD
ENDBRANCH  13  14
BRANCH  16  17
ATOM     17  O   UNL     1      45.149  14.500  20.713  0.00  0.00    -0.547 OA
ATOM     18  H   UNL     1      44.494  13.830  20.954  0.00  0.00    +0.388 HD
ENDBRANCH  16  17
BRANCH  39  40
ATOM     40  O   UNL     1      50.308  13.475  17.511  0.00  0.00    -0.469 OA
ATOM     41  H   UNL     1      51.060  13.049  17.944  0.00  0.00    +0.402 HD
ENDBRANCH  39  40
BRANCH  19  20
ATOM     20  C   UNL     1      47.734  15.689  20.092  0.00  0.00    +0.260 C 
BRANCH  20  21
ATOM     21  O   UNL     1      46.654  16.602  19.892  0.00  0.00    -0.340 OA
BRANCH  21  22
ATOM     22  C   UNL     1      46.942  17.918  19.968  0.00  0.00    +0.504 C 
ATOM     35  O   UNL     1      46.435  18.602  20.836  0.00  0.00    -0.512 OA
BRANCH  22  23
ATOM     23  C   UNL     1      47.836  18.503  19.036  0.00  0.00    -0.062 C 
ATOM     24  C   UNL     1      49.072  18.880  19.431  0.00  0.00    +0.156 C 
BRANCH  24  25
ATOM     25  C   UNL     1      49.999  19.486  18.465  0.00  0.00    -0.080 A 
ATOM     26  C   UNL     1      50.211  20.870  18.469  0.00  0.00    +0.056 A 
ATOM     27  C   UNL     1      51.080  21.435  17.561  0.00  0.00    +0.007 A 
ATOM     28  C   UNL     1      51.748  20.637  16.644  0.00  0.00    +0.101 A 
ATOM     31  C   UNL     1      51.543  19.257  16.634  0.00  0.00    +0.077 A 
ATOM     34  C   UNL     1      50.678  18.681  17.544  0.00  0.00    +0.043 A 
BRANCH  28  29
ATOM     29  O   UNL     1      52.603  21.200  15.752  0.00  0.00    -0.486 OA
ATOM     30  H   UNL     1      52.875  22.099  15.981  0.00  0.00    +0.392 HD
ENDBRANCH  28  29
BRANCH  31  32
ATOM     32  O   UNL     1      52.199  18.478  15.734  0.00  0.00    -0.485 OA
ATOM     33  H   UNL     1      52.423  17.597  16.064  0.00  0.00    +0.390 HD
ENDBRANCH  31  32
ENDBRANCH  24  25
ENDBRANCH  22  23
ENDBRANCH  21  22
ENDBRANCH  20  21
ENDBRANCH  19  20
TORSDOF 12
ENDMDL
MODEL 9
REMARK VINA RESULT:      -6.2      1.884      7.707
REMARK  Name = ZINC95486358
REMARK  13 active torsions:
REMARK  status: ('A' for Active; 'I' for Inactive)
REMARK    1  A    between atoms: C1_1  and  O1_2
REMARK    2  A    between atoms: O1_2  and  C2_3
REMARK    3  A    between atoms: C3_4  and  O12_40
REMARK    4  A    between atoms: C7_8  and  O2_9
REMARK    5  A    between atoms: C10_14  and  O9_36
REMARK    6  A    between atoms: C11_16  and  O8_35
REMARK    7  A    between atoms: C12_18  and  C13_21
REMARK    8  A    between atoms: C13_21  and  O4_22
REMARK    9  A    between atoms: O4_22  and  C14_23
REMARK   10  A    between atoms: C14_23  and  C15_25
REMARK   11  A    between atoms: C16_26  and  C17_27
REMARK   12  A    between atoms: C20_30  and  O7_34
REMARK   13  A    between atoms: C21_31  and  O6_33
REMARK                            x       y       z     vdW  Elec       q    Type
REMARK                         _______ _______ _______ _____ _____    ______ ____
ROOT
ATOM      3  C   UNL     1      50.643  16.315  16.884  0.00  0.00    +0.081 A 
ATOM      4  C   UNL     1      51.598  17.207  16.405  0.00  0.00    +0.103 A 
ATOM      7  C   UNL     1      51.571  18.531  16.801  0.00  0.00    +0.088 A 
ATOM      8  C   UNL     1      50.581  18.971  17.680  0.00  0.00    -0.138 A 
ATOM      9  C   UNL     1      49.617  18.075  18.158  0.00  0.00    -0.070 A 
ATOM     10  C   UNL     1      48.548  18.570  19.089  0.00  0.00    +0.211 C 
ATOM     11  C   UNL     1      49.037  19.822  19.819  0.00  0.00    +0.172 C 
ATOM     12  O   UNL     1      49.460  20.791  18.859  0.00  0.00    -0.328 OA
ATOM     13  C   UNL     1      47.898  20.363  20.682  0.00  0.00    +0.172 C 
ATOM     16  C   UNL     1      47.471  19.262  21.661  0.00  0.00    +0.138 C 
ATOM     19  C   UNL     1      47.090  17.998  20.887  0.00  0.00    +0.195 C 
ATOM     36  O   UNL     1      48.190  17.593  20.062  0.00  0.00    -0.335 OA
ATOM     37  C   UNL     1      50.543  20.383  18.121  0.00  0.00    +0.528 C 
ATOM     38  O   UNL     1      51.435  21.157  17.832  0.00  0.00    -0.424 OA
ATOM     39  C   UNL     1      49.649  16.754  17.757  0.00  0.00    +0.131 A 
ENDROOT
BRANCH   3   2
ATOM      1  C   UNL     1      51.422  14.111  17.313  0.00  0.00    +0.239 C 
ATOM      2  O   UNL     1      50.675  15.014  16.496  0.00  0.00    -0.319 OA
ENDBRANCH   3   2
BRANCH   4   5
ATOM      5  O   UNL     1      52.561  16.774  15.546  0.00  0.00    -0.477 OA
ATOM      6  H   UNL     1      52.842  17.440  14.904  0.00  0.00    +0.395 HD
ENDBRANCH   4   5
BRANCH  13  14
ATOM     14  O   UNL     1      48.345  21.509  21.409  0.00  0.00    -0.542 OA
ATOM     15  H   UNL     1      49.260  21.449  21.714  0.00  0.00    +0.385 HD
ENDBRANCH  13  14
BRANCH  16  17
ATOM     17  O   UNL     1      46.346  19.709  22.419  0.00  0.00    -0.547 OA
ATOM     18  H   UNL     1      46.509  20.519  22.923  0.00  0.00    +0.388 HD
ENDBRANCH  16  17
BRANCH  39  40
ATOM     40  O   UNL     1      48.716  15.881  18.220  0.00  0.00    -0.469 OA
ATOM     41  H   UNL     1      48.550  15.133  17.629  0.00  0.00    +0.402 HD
ENDBRANCH  39  40
BRANCH  19  20
ATOM     20  C   UNL     1      46.761  16.878  21.875  0.00  0.00    +0.260 C 
BRANCH  20  21
ATOM     21  O   UNL     1      45.644  16.130  21.392  0.00  0.00    -0.340 OA
BRANCH  21  22
ATOM     22  C   UNL     1      44.418  16.657  21.597  0.00  0.00    +0.504 C 
ATOM     35  O   UNL     1      43.695  16.196  22.460  0.00  0.00    -0.512 OA
BRANCH  22  23
ATOM     23  C   UNL     1      43.974  17.746  20.807  0.00  0.00    -0.062 C 
ATOM     24  C   UNL     1      42.877  18.445  21.176  0.00  0.00    +0.156 C 
BRANCH  24  25
ATOM     25  C   UNL     1      42.416  19.574  20.357  0.00  0.00    -0.080 A 
ATOM     26  C   UNL     1      41.129  19.563  19.806  0.00  0.00    +0.056 A 
ATOM     27  C   UNL     1      40.701  20.624  19.038  0.00  0.00    +0.007 A 
ATOM     28  C   UNL     1      41.540  21.705  18.810  0.00  0.00    +0.101 A 
ATOM     31  C   UNL     1      42.824  21.724  19.356  0.00  0.00    +0.077 A 
ATOM     34  C   UNL     1      43.260  20.668  20.131  0.00  0.00    +0.043 A 
BRANCH  28  29
ATOM     29  O   UNL     1      41.112  22.747  18.052  0.00  0.00    -0.486 OA
ATOM     30  H   UNL     1      40.933  23.553  18.556  0.00  0.00    +0.392 HD
ENDBRANCH  28  29
BRANCH  31  32
ATOM     32  O   UNL     1      43.643  22.785  19.130  0.00  0.00    -0.485 OA
ATOM     33  H   UNL     1      43.373  23.595  19.584  0.00  0.00    +0.390 HD
ENDBRANCH  31  32
ENDBRANCH  24  25
ENDBRANCH  22  23
ENDBRANCH  21  22
ENDBRANCH  20  21
ENDBRANCH  19  20
TORSDOF 12
ENDMDL
