@<TRIPOS>MOLECULE
ZINC06523722
   28    30     0     0     0
SMALL
USER_CHARGES

@<TRIPOS>ATOM
      1 C1         -0.0178    1.4608    0.0101 C.3       1 <0>         0.0684
      2 N1          0.0021   -0.0041    0.0020 N.pl3     1 <0>        -0.5290
      3 C2         -0.0996   -0.6709   -1.2019 C.ar      1 <0>         0.2157
      4 C3         -0.5204    0.0024   -2.3460 C.ar      1 <0>        -0.1814
      5 C4         -0.6138   -0.6695   -3.5450 C.ar      1 <0>        -0.0506
      6 C5         -0.2920   -2.0169   -3.6297 C.ar      1 <0>        -0.1647
      7 C6          0.1235   -2.7036   -2.5105 C.ar      1 <0>        -0.0244
      8 C7          0.2203   -2.0367   -1.2889 C.ar      1 <0>        -0.2091
      9 C8          0.6518   -2.7454   -0.0681 C.2       1 <0>         0.4383
     10 C9          0.4496   -2.0489    1.2134 C.ar      1 <0>        -0.2434
     11 C10         0.5766   -2.7283    2.4321 C.ar      1 <0>         0.2051
     12 O1          0.8968   -4.0467    2.4501 O.3       1 <0>        -0.4815
     13 C11         0.3723   -2.0436    3.6178 C.ar      1 <0>        -0.1961
     14 C12         0.0459   -0.6975    3.5983 C.ar      1 <0>        -0.0322
     15 C13        -0.0789   -0.0177    2.4049 C.ar      1 <0>        -0.1949
     16 C14         0.1277   -0.6811    1.1981 C.ar      1 <0>         0.2354
     17 O2          1.1514   -3.8550   -0.1185 O.2       1 <0>        -0.4535
     18 H1          0.5729    1.8275    0.8495 H         1 <0>         0.0868
     19 H2          0.4047    1.8350   -0.9224 H         1 <0>         0.0866
     20 H3         -1.0457    1.8097    0.1091 H         1 <0>         0.0720
     21 H4         -0.7738    1.0509   -2.2932 H         1 <0>         0.1344
     22 H5         -0.9414   -0.1421   -4.4287 H         1 <0>         0.1331
     23 H6         -0.3681   -2.5292   -4.5774 H         1 <0>         0.1325
     24 H7          0.3730   -3.7522   -2.5782 H         1 <0>         0.1387
     25 H8          0.4674   -2.5607    4.5611 H         1 <0>         0.1380
     26 H9         -0.1133   -0.1740    4.5294 H         1 <0>         0.1376
     27 H10        -0.3337    1.0318    2.4067 H         1 <0>         0.1367
     28 H11         1.8476   -4.2201    2.4822 H         1 <0>         0.4013
@<TRIPOS>BOND
     1    1    2 1
     2    1   18 1
     3    1   19 1
     4    1   20 1
     5    2   16 1
     6    2    3 1
     7    3    8 ar
     8    3    4 ar
     9    4    5 ar
    10    4   21 1
    11    5    6 ar
    12    5   22 1
    13    6    7 ar
    14    6   23 1
    15    7    8 ar
    16    7   24 1
    17    8    9 1
    18    9   10 1
    19    9   17 2
    20   10   16 ar
    21   10   11 ar
    22   11   12 1
    23   11   13 ar
    24   12   28 1
    25   13   14 ar
    26   13   25 1
    27   14   15 ar
    28   14   26 1
    29   15   16 ar
    30   15   27 1
@<TRIPOS>MOLECULE
ZINC95485881
   52    55     0     0     0
SMALL
USER_CHARGES

@<TRIPOS>ATOM
      1 C1         -0.8058    0.9154   -0.2980 C.3       1 <0>        -0.1193
      2 C2         -0.6823   -0.5827   -0.4050 C.ar      1 <0>        -0.0311
      3 C3         -0.4731   -1.1532   -1.6247 C.ar      1 <0>        -0.1547
      4 C4         -0.3562   -2.5462   -1.7354 C.ar      1 <0>         0.0187
      5 C5         -0.1381   -3.1644   -2.9905 C.ar      1 <0>        -0.0584
      6 C6         -0.0273   -4.5418   -3.0631 C.ar      1 <0>        -0.0689
      7 C7         -0.1279   -5.3240   -1.9197 C.ar      1 <0>        -0.1616
      8 C8         -0.3399   -4.7491   -0.6854 C.ar      1 <0>         0.1493
      9 C9         -0.4572   -3.3492   -0.5745 C.ar      1 <0>        -0.1023
     10 C10        -0.6740   -2.7336    0.6739 C.ar      1 <0>         0.1603
     11 C11        -0.7778   -1.3617    0.7437 C.ar      1 <0>        -0.2275
     12 O1         -0.7737   -3.4858    1.8001 O.3       1 <0>        -0.2950
     13 C12        -0.9937   -2.7892    3.0282 C.3       1 <0>         0.0233
     14 O2         -0.4352   -5.5297    0.4215 O.3       1 <0>        -0.4806
     15 C13        -0.0299   -2.3422   -4.2175 C.ar      1 <0>        -0.0516
     16 C14        -0.9947   -2.4549   -5.2167 C.ar      1 <0>        -0.0865
     17 C15        -0.8900   -1.6884   -6.3579 C.ar      1 <0>        -0.1496
     18 C16         0.1736   -0.8116   -6.5079 C.ar      1 <0>         0.1178
     19 C17         1.1413   -0.6954   -5.5125 C.ar      1 <0>        -0.1325
     20 C18         1.0375   -1.4504   -4.3677 C.ar      1 <0>        -0.0421
     21 C19         2.0494   -1.3468   -3.2557 C.3       1 <0>        -0.1186
     22 C20         3.3180   -0.6626   -3.7658 C.3       1 <0>         0.0807
     23 H1          3.9724   -0.4310   -2.9254 H         1 <0>         0.0895
     24 N1          2.9340    0.5818   -4.4511 N.3       1 <0>        -0.6696
     25 C21         2.2787    0.2683   -5.7288 C.3       1 <0>         0.1297
     26 H2          2.9994   -0.1743   -6.4164 H         1 <0>         0.0981
     27 C22         1.7346    1.5639   -6.3339 C.3       1 <0>        -0.1608
     28 C23         4.0444   -1.5892   -4.7428 C.3       1 <0>        -0.1510
     29 O3          0.2731   -0.0597   -7.6354 O.3       1 <0>        -0.4932
     30 H3          0.1806    1.3508   -0.1374 H         1 <0>         0.0750
     31 H4         -1.2321    1.3116   -1.2196 H         1 <0>         0.0690
     32 H5         -1.4551    1.1675    0.5405 H         1 <0>         0.0683
     33 H6         -0.3977   -0.5329   -2.5057 H         1 <0>         0.1279
     34 H7          0.1391   -5.0142   -4.0200 H         1 <0>         0.1301
     35 H8         -0.0391   -6.3974   -1.9991 H         1 <0>         0.1339
     36 H9         -0.9397   -0.8862    1.6997 H         1 <0>         0.1301
     37 H10        -0.1682   -2.1005    3.2082 H         1 <0>         0.0565
     38 H11        -1.9269   -2.2294    2.9663 H         1 <0>         0.0569
     39 H12        -1.0537   -3.5062    3.8469 H         1 <0>         0.1035
     40 H13         0.4101   -5.6919    0.8623 H         1 <0>         0.3921
     41 H14        -1.8209   -3.1402   -5.0978 H         1 <0>         0.1286
     42 H15        -1.6358   -1.7711   -7.1346 H         1 <0>         0.1310
     43 H16         1.6284   -0.7639   -2.4365 H         1 <0>         0.0865
     44 H17         2.2965   -2.3460   -2.8971 H         1 <0>         0.0817
     45 H18         0.8336    1.8644   -5.7991 H         1 <0>         0.0481
     46 H19         2.4864    2.3485   -6.2486 H         1 <0>         0.0674
     47 H20         1.4962    1.4019   -7.3851 H         1 <0>         0.0861
     48 H21         3.3904   -1.8134   -5.5855 H         1 <0>         0.0592
     49 H22         4.9482   -1.0990   -5.1048 H         1 <0>         0.0641
     50 H23         4.3123   -2.5153   -4.2343 H         1 <0>         0.0595
     51 H24        -0.2427    0.7579   -7.6098 H         1 <0>         0.3899
     52 H25         2.3429    1.1506   -3.8635 H         1 <0>         0.3423
@<TRIPOS>BOND
     1    1    2 1
     2    1   30 1
     3    1   31 1
     4    1   32 1
     5    2   11 ar
     6    2    3 ar
     7    3    4 ar
     8    3   33 1
     9    4    9 ar
    10    4    5 ar
    11    5    6 ar
    12    5   15 1
    13    6    7 ar
    14    6   34 1
    15    7    8 ar
    16    7   35 1
    17    8    9 ar
    18    8   14 1
    19    9   10 ar
    20   10   11 ar
    21   10   12 1
    22   11   36 1
    23   12   13 1
    24   13   37 1
    25   13   38 1
    26   13   39 1
    27   14   40 1
    28   15   20 ar
    29   15   16 ar
    30   16   17 ar
    31   16   41 1
    32   17   18 ar
    33   17   42 1
    34   18   19 ar
    35   18   29 1
    36   19   25 1
    37   19   20 ar
    38   20   21 1
    39   21   22 1
    40   21   43 1
    41   21   44 1
    42   22   23 1
    43   22   24 1
    44   22   28 1
    45   24   25 1
    46   24   52 1
    47   25   26 1
    48   25   27 1
    49   27   45 1
    50   27   46 1
    51   27   47 1
    52   28   48 1
    53   28   49 1
    54   28   50 1
    55   29   51 1
@<TRIPOS>MOLECULE
ZINC95485884
   49    50     0     0     0
SMALL
NO_CHARGES

@<TRIPOS>ATOM
      1 C1          0.2300    0.0906   -3.0368 C.3       1 <0>        -0.1354
      2 C2         -0.4079    0.1953   -1.6501 C.3       1 <0>        -0.1900
      3 C3         -1.5706   -0.7693   -1.5478 C.2       1 <0>         0.3783
      4 C4         -2.1894   -1.0032   -0.1858 C.3       1 <0>        -0.1582
      5 C5         -1.0730   -1.3092    0.7903 C.2       1 <0>         0.3810
      6 C6          0.1197   -0.3774    0.8293 C.3       1 <0>        -0.1996
      7 C7          0.6068   -0.1791   -0.5905 C.2       1 <0>         0.3795
      8 O1          1.7735   -0.3163   -0.8705 O.2       1 <0>        -0.4067
      9 C8          1.2330   -0.9978    1.6758 C.3       1 <0>        -0.0811
     10 C9          0.7870   -1.0608    3.1380 C.3       1 <0>        -0.1989
     11 C10         1.8319   -1.7844    3.9609 C.2       1 <0>         0.3829
     12 C11         1.7076   -1.7471    5.4694 C.3       1 <0>        -0.1562
     13 C12         1.5120   -0.3054    5.8885 C.2       1 <0>         0.3797
     14 C13         0.4478    0.5077    5.1823 C.3       1 <0>        -0.1870
     15 C14         0.6440    0.3419    3.6901 C.2       1 <0>         0.3784
     16 O2          0.6856    1.3027    2.9597 O.2       1 <0>        -0.4174
     17 C15        -0.9396    0.0006    5.5808 C.3       1 <0>        -0.1442
     18 O3          2.1866    0.1829    6.7631 O.2       1 <0>        -0.4106
     19 C16         2.9827   -2.3024    6.1071 C.3       1 <0>        -0.1311
     20 C17         0.5029   -2.5814    5.9096 C.3       1 <0>        -0.1413
     21 O4          2.7405   -2.3753    3.4282 O.2       1 <0>        -0.4050
     22 O5         -1.1326   -2.2707    1.5186 O.2       1 <0>        -0.4142
     23 C18        -2.9394    0.2523    0.2638 C.3       1 <0>        -0.1358
     24 C19        -3.1558   -2.1873   -0.2535 C.3       1 <0>        -0.1302
     25 O6         -1.9929   -1.3371   -2.5263 O.2       1 <0>        -0.4075
     26 H1          0.5672   -0.9322   -3.2053 H         1 <0>         0.0658
     27 H2         -0.5040    0.3609   -3.7958 H         1 <0>         0.0759
     28 H3          1.0815    0.7684   -3.0971 H         1 <0>         0.0764
     29 H4          1.4441   -2.0051    1.3167 H         1 <0>         0.0952
     30 H5          2.1328   -0.3878    1.5964 H         1 <0>         0.0951
     31 H6         -0.9710   -0.1632    6.6579 H         1 <0>         0.0823
     32 H7         -1.6904    0.7406    5.3037 H         1 <0>         0.0819
     33 H8         -1.1458   -0.9370    5.0646 H         1 <0>         0.0775
     34 H9          3.8357   -1.6971    5.8002 H         1 <0>         0.0655
     35 H10         2.8884   -2.2735    7.1926 H         1 <0>         0.0760
     36 H11         3.1325   -3.3322    5.7827 H         1 <0>         0.0766
     37 H12         0.7133   -3.6382    5.7456 H         1 <0>         0.0821
     38 H13         0.3094   -2.4095    6.9685 H         1 <0>         0.0807
     39 H14        -0.3722   -2.2906    5.3285 H         1 <0>         0.0779
     40 H15        -3.7257    0.4827   -0.4550 H         1 <0>         0.0826
     41 H16        -3.3828    0.0790    1.2443 H         1 <0>         0.0806
     42 H17        -2.2439    1.0895    0.3224 H         1 <0>         0.0727
     43 H18        -2.6140   -3.0814   -0.5621 H         1 <0>         0.0660
     44 H19        -3.5985   -2.3517    0.7289 H         1 <0>         0.0756
     45 H20        -3.9436   -1.9725   -0.9757 H         1 <0>         0.0761
     46 H21        -0.1760    0.5817    1.2545 H         1 <0>         0.1632
     47 H22        -0.7576    1.2138   -1.4816 H         1 <0>         0.1495
     48 H23        -0.1666   -1.5839    3.2099 H         1 <0>         0.1627
     49 H24         0.5479    1.5590    5.4522 H         1 <0>         0.1326
@<TRIPOS>BOND
     1    1    2 1
     2    1   26 1
     3    1   27 1
     4    1   28 1
     5    2    7 1
     6    2    3 1
     7    2   47 1
     8    3    4 1
     9    3   25 2
    10    4    5 1
    11    4   23 1
    12    4   24 1
    13    5    6 1
    14    5   22 2
    15    6    7 1
    16    6    9 1
    17    6   46 1
    18    7    8 2
    19    9   10 1
    20    9   29 1
    21    9   30 1
    22   10   15 1
    23   10   11 1
    24   10   48 1
    25   11   12 1
    26   11   21 2
    27   12   13 1
    28   12   19 1
    29   12   20 1
    30   13   14 1
    31   13   18 2
    32   14   15 1
    33   14   17 1
    34   14   49 1
    35   15   16 2
    36   17   31 1
    37   17   32 1
    38   17   33 1
    39   19   34 1
    40   19   35 1
    41   19   36 1
    42   20   37 1
    43   20   38 1
    44   20   39 1
    45   23   40 1
    46   23   41 1
    47   23   42 1
    48   24   43 1
    49   24   44 1
    50   24   45 1
@<TRIPOS>MOLECULE
ZINC95485885
   82    84     0     0     0
SMALL
USER_CHARGES

@<TRIPOS>ATOM
      1 C1          2.7872    1.4749    0.2815 C.3       1 <0>        -0.1417
      2 C2          1.6771    0.4287    0.1627 C.3       1 <0>        -0.1349
      3 C3          0.4339    0.9173    0.9088 C.3       1 <0>        -0.1374
      4 C4          1.3398    0.2168   -1.2907 C.2       1 <0>         0.4287
      5 O1          1.5593    1.0954   -2.0989 O.2       1 <0>        -0.4271
      6 C5          0.7484   -1.0466   -1.7271 C.ar      1 <0>        -0.2134
      7 C6          1.5714   -2.1549   -2.0127 C.ar      1 <0>         0.1965
      8 C7          1.0109   -3.3491   -2.4276 C.ar      1 <0>        -0.1697
      9 C8         -0.3650   -3.4670   -2.5725 C.ar      1 <0>         0.1942
     10 C9         -1.1930   -2.3737   -2.3035 C.ar      1 <0>        -0.1627
     11 C10        -0.6424   -1.1674   -1.8593 C.ar      1 <0>         0.2044
     12 O2         -1.4689   -0.1408   -1.5479 O.3       1 <0>        -0.2920
     13 C11        -2.6684   -0.0088   -2.3103 C.3       1 <0>         0.1514
     14 C12        -3.3669   -1.3372   -2.4358 C.2       1 <0>        -0.1804
     15 C13        -2.6600   -2.4616   -2.4561 C.2       1 <0>        -0.0849
     16 C14        -3.5999    0.9870   -1.6163 C.3       1 <0>        -0.1406
     17 C15        -2.3236    0.5135   -3.7064 C.3       1 <0>        -0.1310
     18 C16        -1.6397    1.8768   -3.5864 C.3       1 <0>        -0.0935
     19 C17        -1.3001    2.3913   -4.9615 C.2       1 <0>        -0.1592
     20 C18        -1.7236    3.5709   -5.3426 C.2       1 <0>        -0.1365
     21 C19        -2.5505    4.4134   -4.4059 C.3       1 <0>        -0.1174
     22 C20        -1.3840    4.0853   -6.7178 C.3       1 <0>        -0.1171
     23 O3         -0.9056   -4.6435   -2.9757 O.3       1 <0>        -0.4850
     24 C21         1.8989   -4.5300   -2.7239 C.3       1 <0>        -0.0566
     25 C22         2.1983   -5.2815   -1.4252 C.3       1 <0>        -0.1743
     26 C23         3.1827   -6.4062   -1.6899 C.2       1 <0>         0.3782
     27 C24         2.7362   -7.5249   -2.6022 C.3       1 <0>        -0.0981
     28 C25         1.3390   -7.9498   -2.2508 C.2       1 <0>         0.0183
     29 C26         0.5141   -7.2147   -1.4842 C.2       1 <0>        -0.2725
     30 C27         0.9345   -5.9313   -0.8976 C.2       1 <0>         0.4000
     31 O4          0.2867   -5.4078   -0.0162 O.2       1 <0>        -0.4018
     32 C28        -0.8472   -7.7070   -1.2242 C.2       1 <0>         0.3942
     33 O5         -1.6113   -7.0496   -0.5500 O.2       1 <0>        -0.4205
     34 C29        -1.2926   -9.0285   -1.7956 C.3       1 <0>        -0.1402
     35 C30        -0.7330  -10.1679   -0.9416 C.3       1 <0>        -0.1469
     36 C31        -2.8212   -9.0947   -1.7961 C.3       1 <0>        -0.1419
     37 C32         3.6835   -8.7161   -2.4456 C.3       1 <0>        -0.1390
     38 C33         2.7696   -7.0404   -4.0531 C.3       1 <0>        -0.1474
     39 O6          4.2821   -6.4068   -1.1902 O.2       1 <0>        -0.4139
     40 O7          2.9166   -2.0496   -1.8806 O.3       1 <0>        -0.4809
     41 H1          3.0311    1.6281    1.3327 H         1 <0>         0.0647
     42 H2          3.6728    1.1268   -0.2500 H         1 <0>         0.0585
     43 H3          2.4484    2.4151   -0.1537 H         1 <0>         0.0659
     44 H4          2.0159   -0.5115    0.5979 H         1 <0>         0.0909
     45 H5          0.0951    1.8575    0.4736 H         1 <0>         0.0620
     46 H6         -0.3570    0.1719    0.8242 H         1 <0>         0.0641
     47 H7          0.6778    1.0705    1.9600 H         1 <0>         0.0684
     48 H8         -4.4432   -1.3747   -2.5174 H         1 <0>         0.1375
     49 H9         -3.1481   -3.4183   -2.5700 H         1 <0>         0.1356
     50 H10        -3.1058    1.9557   -1.5420 H         1 <0>         0.0746
     51 H11        -4.5174    1.0906   -2.1955 H         1 <0>         0.0832
     52 H12        -3.8401    0.6240   -0.6169 H         1 <0>         0.0697
     53 H13        -1.6516   -0.1879   -4.2010 H         1 <0>         0.0667
     54 H14        -3.2373    0.6157   -4.2920 H         1 <0>         0.0817
     55 H15        -2.3117    2.5782   -3.0918 H         1 <0>         0.0752
     56 H16        -0.7260    1.7746   -3.0008 H         1 <0>         0.0802
     57 H17        -0.7075    1.7875   -5.6328 H         1 <0>         0.1050
     58 H18        -1.9784    4.6187   -3.5011 H         1 <0>         0.0651
     59 H19        -2.8080    5.3533   -4.8941 H         1 <0>         0.0594
     60 H20        -3.4631    3.8775   -4.1450 H         1 <0>         0.0647
     61 H21        -2.1594    3.7814   -7.4211 H         1 <0>         0.0651
     62 H22        -1.3216    5.1732   -6.6935 H         1 <0>         0.0620
     63 H23        -0.4255    3.6733   -7.0334 H         1 <0>         0.0609
     64 H24        -1.2076   -5.2068   -2.2501 H         1 <0>         0.3925
     65 H25         1.3944   -5.1979   -3.4220 H         1 <0>         0.1042
     66 H26         2.8324   -4.1810   -3.1652 H         1 <0>         0.1040
     67 H27         0.9785   -8.8932   -2.6335 H         1 <0>         0.1516
     68 H28        -0.9244   -9.1253   -2.8169 H         1 <0>         0.1005
     69 H29        -1.1632  -10.1174    0.0587 H         1 <0>         0.0653
     70 H30        -0.9882  -11.1239   -1.3989 H         1 <0>         0.0748
     71 H31         0.3510  -10.0744   -0.8761 H         1 <0>         0.0601
     72 H32        -3.2198   -8.2829   -2.4045 H         1 <0>         0.0604
     73 H33        -3.1433  -10.0505   -2.2094 H         1 <0>         0.0667
     74 H34        -3.1894   -8.9979   -0.7747 H         1 <0>         0.0666
     75 H35         3.6663   -9.0605   -1.4116 H         1 <0>         0.0655
     76 H36         3.3628   -9.5242   -3.1031 H         1 <0>         0.0763
     77 H37         4.6962   -8.4123   -2.7105 H         1 <0>         0.0794
     78 H38         3.7099   -6.5224   -4.2416 H         1 <0>         0.0783
     79 H39         2.6852   -7.8956   -4.7237 H         1 <0>         0.0840
     80 H40         1.9376   -6.3582   -4.2276 H         1 <0>         0.0804
     81 H41         3.2448   -2.2819   -1.0012 H         1 <0>         0.3975
     82 H42         2.6039   -4.5951   -0.6818 H         1 <0>         0.1236
@<TRIPOS>BOND
     1    1    2 1
     2    1   41 1
     3    1   42 1
     4    1   43 1
     5    2    3 1
     6    2    4 1
     7    2   44 1
     8    3   45 1
     9    3   46 1
    10    3   47 1
    11    4    5 2
    12    4    6 1
    13    6   11 ar
    14    6    7 ar
    15    7    8 ar
    16    7   40 1
    17    8    9 ar
    18    8   24 1
    19    9   10 ar
    20    9   23 1
    21   10   15 1
    22   10   11 ar
    23   11   12 1
    24   12   13 1
    25   13   14 1
    26   13   16 1
    27   13   17 1
    28   14   15 2
    29   14   48 1
    30   15   49 1
    31   16   50 1
    32   16   51 1
    33   16   52 1
    34   17   18 1
    35   17   53 1
    36   17   54 1
    37   18   19 1
    38   18   55 1
    39   18   56 1
    40   19   20 2
    41   19   57 1
    42   20   21 1
    43   20   22 1
    44   21   58 1
    45   21   59 1
    46   21   60 1
    47   22   61 1
    48   22   62 1
    49   22   63 1
    50   23   64 1
    51   24   25 1
    52   24   65 1
    53   24   66 1
    54   25   30 1
    55   25   26 1
    56   25   82 1
    57   26   27 1
    58   26   39 2
    59   27   28 1
    60   27   37 1
    61   27   38 1
    62   28   29 2
    63   28   67 1
    64   29   30 1
    65   29   32 1
    66   30   31 2
    67   32   33 2
    68   32   34 1
    69   34   35 1
    70   34   36 1
    71   34   68 1
    72   35   69 1
    73   35   70 1
    74   35   71 1
    75   36   72 1
    76   36   73 1
    77   36   74 1
    78   37   75 1
    79   37   76 1
    80   37   77 1
    81   38   78 1
    82   38   79 1
    83   38   80 1
    84   40   81 1
@<TRIPOS>MOLECULE
ZINC95485886
   95   101     0     0     0
SMALL
USER_CHARGES

@<TRIPOS>ATOM
      1 C1          0.8788    1.3210    0.0229 C.3       1 <0>         0.0092
      2 N1          0.9993   -0.1379    0.1458 N.3       1 <0>        -0.5223
      3 C2          2.0198   -0.6623   -0.7757 C.3       1 <0>         0.0497
      4 C3          1.8496   -2.1783   -0.8764 C.3       1 <0>        -0.0817
      5 C4          1.7864   -2.7818    0.5033 C.ar      1 <0>        -0.0148
      6 C5          1.9923   -4.1458    0.6370 C.ar      1 <0>        -0.2112
      7 C6          1.9384   -4.7417    1.8864 C.ar      1 <0>         0.1464
      8 C7          1.6770   -3.9667    3.0073 C.ar      1 <0>        -0.1221
      9 C8          1.4748   -2.6093    2.8703 C.ar      1 <0>        -0.0763
     10 C9          1.5317   -2.0124    1.6188 C.ar      1 <0>        -0.1122
     11 C10         1.3133   -0.5249    1.5247 C.3       1 <0>         0.1396
     12 H1          2.2174   -0.0081    1.8464 H         1 <0>         0.0516
     13 C11         0.1525   -0.1257    2.4380 C.3       1 <0>        -0.0691
     14 C12         0.0788    1.3768    2.5292 C.ar      1 <0>        -0.1056
     15 C13         1.1230    2.0875    3.0892 C.ar      1 <0>        -0.1082
     16 C14         1.0558    3.4657    3.1736 C.ar      1 <0>        -0.1220
     17 C15        -0.0559    4.1366    2.6976 C.ar      1 <0>        -0.1023
     18 C16        -1.1022    3.4307    2.1365 C.ar      1 <0>        -0.1477
     19 C17        -1.0349    2.0478    2.0459 C.ar      1 <0>         0.1077
     20 O1         -2.0606    1.3514    1.4892 O.3       1 <0>        -0.4914
     21 C18         1.6135   -4.6064    4.3703 C.3       1 <0>        -0.0309
     22 C19         0.2686   -5.2603    4.5562 C.ar      1 <0>        -0.0608
     23 C20        -0.7839   -4.5242    5.0999 C.ar      1 <0>        -0.0511
     24 C21        -2.0115   -5.1012    5.2686 C.ar      1 <0>        -0.1080
     25 C22        -2.1842   -6.4410    4.9005 C.ar      1 <0>        -0.1930
     26 C23        -1.1484   -7.1759    4.3653 C.ar      1 <0>         0.1161
     27 C24         0.0950   -6.5771    4.1807 C.ar      1 <0>         0.1232
     28 O2          1.1262   -7.2818    3.6427 O.3       1 <0>        -0.2913
     29 C25         1.9673   -7.9961    4.5506 C.3       1 <0>         0.0366
     30 O3         -1.3410   -8.4757    4.0145 O.3       1 <0>        -0.2970
     31 C26        -2.6454   -9.0188    4.2282 C.3       1 <0>         0.0221
     32 C27        -3.2324   -4.4270    5.8057 C.3       1 <0>         0.1594
     33 H2         -4.0862   -5.0937    5.6849 H         1 <0>         0.1414
     34 C28        -3.5585   -3.1079    5.1929 C.ar      1 <0>        -0.1360
     35 C29        -4.6440   -2.8992    4.3717 C.ar      1 <0>        -0.1313
     36 C30        -4.8862   -1.6301    3.8657 C.ar      1 <0>         0.1149
     37 C31        -4.0395   -0.5730    4.1872 C.ar      1 <0>         0.1311
     38 C32        -2.9404   -0.7920    5.0084 C.ar      1 <0>        -0.1530
     39 C33        -2.7044   -2.0529    5.4928 C.ar      1 <0>        -0.0725
     40 C34        -1.5178   -2.4230    6.3330 C.3       1 <0>        -0.0514
     41 H3         -1.0713   -1.5001    6.7032 H         1 <0>         0.1217
     42 C35        -0.4821   -3.1120    5.4822 C.3       1 <0>        -0.0926
     43 C36        -1.9755   -3.2334    7.5354 C.3       1 <0>        -0.0067
     44 N2         -3.0020   -4.2029    7.2465 N.4       1 <0>        -0.3763
     45 C37        -2.6047   -5.4752    7.8641 C.3       1 <0>        -0.0539
     46 O4         -4.2874    0.6715    3.6981 O.3       1 <0>        -0.2928
     47 C38        -3.3764    1.7079    4.0696 C.3       1 <0>         0.0025
     48 O5         -5.9556   -1.4180    3.0527 O.3       1 <0>        -0.2949
     49 C39        -6.7842   -2.5457    2.7632 C.3       1 <0>         0.0216
     50 O6          2.1404   -6.0796    2.0137 O.3       1 <0>        -0.2814
     51 C40         2.4039   -6.8128    0.8158 C.3       1 <0>         0.0290
     52 H4          1.6230    1.8018    0.6579 H         1 <0>         0.0321
     53 H5          1.0430    1.6131   -1.0143 H         1 <0>         0.0593
     54 H6         -0.1189    1.6307    0.3340 H         1 <0>         0.0914
     55 H7          1.8897   -0.2129   -1.7602 H         1 <0>         0.0832
     56 H8          3.0133   -0.4300   -0.3923 H         1 <0>         0.0387
     57 H9          0.9279   -2.4041   -1.4127 H         1 <0>         0.0878
     58 H10         2.6950   -2.6021   -1.4184 H         1 <0>         0.0806
     59 H11         2.1952   -4.7470   -0.2369 H         1 <0>         0.1289
     60 H12         1.2712   -2.0067    3.7431 H         1 <0>         0.1245
     61 H13        -0.7812   -0.5110    2.0284 H         1 <0>         0.0888
     62 H14         0.3125   -0.5426    3.4323 H         1 <0>         0.0739
     63 H15         1.9922    1.5658    3.4616 H         1 <0>         0.1236
     64 H16         1.8727    4.0194    3.6123 H         1 <0>         0.1261
     65 H17        -0.1061    5.2133    2.7650 H         1 <0>         0.1286
     66 H18        -1.9701    3.9551    1.7650 H         1 <0>         0.1307
     67 H19        -2.7419    1.0826    2.1205 H         1 <0>         0.3796
     68 H20         2.3980   -5.3583    4.4556 H         1 <0>         0.0929
     69 H21         1.7560   -3.8442    5.1364 H         1 <0>         0.0846
     70 H22        -3.1481   -6.9079    5.0391 H         1 <0>         0.1355
     71 H23         2.7475   -8.5137    3.9924 H         1 <0>         0.0988
     72 H24         2.4244   -7.2960    5.2498 H         1 <0>         0.0448
     73 H25         1.3716   -8.7236    5.1020 H         1 <0>         0.0452
     74 H26        -2.6624  -10.0602    3.9068 H         1 <0>         0.1090
     75 H27        -2.8936   -8.9616    5.2881 H         1 <0>         0.0557
     76 H28        -3.3750   -8.4490    3.6529 H         1 <0>         0.0580
     77 H29        -5.3025   -3.7183    4.1228 H         1 <0>         0.1460
     78 H30        -2.2786    0.0227    5.2626 H         1 <0>         0.1477
     79 H31         0.4528   -3.1047    6.0426 H         1 <0>         0.0960
     80 H32        -0.3275   -2.5388    4.5681 H         1 <0>         0.1056
     81 H33        -1.1112   -3.7516    7.9508 H         1 <0>         0.1334
     82 H34        -2.3550   -2.5450    8.2905 H         1 <0>         0.1330
     83 H35        -1.6896   -5.8367    7.3949 H         1 <0>         0.1258
     84 H36        -2.4313   -5.3234    8.9294 H         1 <0>         0.1263
     85 H37        -3.3983   -6.2095    7.7262 H         1 <0>         0.1211
     86 H38        -3.6889    2.6471    3.6132 H         1 <0>         0.1158
     87 H39        -3.3710    1.8152    5.1543 H         1 <0>         0.0683
     88 H40        -2.3746    1.4519    3.7248 H         1 <0>         0.0611
     89 H41        -6.1905   -3.3161    2.2713 H         1 <0>         0.0592
     90 H42        -7.1960   -2.9418    3.6915 H         1 <0>         0.0578
     91 H43        -7.5982   -2.2393    2.1062 H         1 <0>         0.1108
     92 H44         3.3058   -6.4242    0.3429 H         1 <0>         0.0517
     93 H45         2.5457   -7.8660    1.0582 H         1 <0>         0.0999
     94 H46         1.5611   -6.7075    0.1326 H         1 <0>         0.0514
     95 H47        -3.8655   -3.8962    7.6688 H         1 <0>         0.4248
@<TRIPOS>BOND
     1    1    2 1
     2    1   52 1
     3    1   53 1
     4    1   54 1
     5    2   11 1
     6    2    3 1
     7    3    4 1
     8    3   55 1
     9    3   56 1
    10    4    5 1
    11    4   57 1
    12    4   58 1
    13    5   10 ar
    14    5    6 ar
    15    6    7 ar
    16    6   59 1
    17    7    8 ar
    18    7   50 1
    19    8    9 ar
    20    8   21 1
    21    9   10 ar
    22    9   60 1
    23   10   11 1
    24   11   12 1
    25   11   13 1
    26   13   14 1
    27   13   61 1
    28   13   62 1
    29   14   19 ar
    30   14   15 ar
    31   15   16 ar
    32   15   63 1
    33   16   17 ar
    34   16   64 1
    35   17   18 ar
    36   17   65 1
    37   18   19 ar
    38   18   66 1
    39   19   20 1
    40   20   67 1
    41   21   22 1
    42   21   68 1
    43   21   69 1
    44   22   27 ar
    45   22   23 ar
    46   23   42 1
    47   23   24 ar
    48   24   25 ar
    49   24   32 1
    50   25   26 ar
    51   25   70 1
    52   26   27 ar
    53   26   30 1
    54   27   28 1
    55   28   29 1
    56   29   71 1
    57   29   72 1
    58   29   73 1
    59   30   31 1
    60   31   74 1
    61   31   75 1
    62   31   76 1
    63   32   33 1
    64   32   44 1
    65   32   34 1
    66   34   39 ar
    67   34   35 ar
    68   35   36 ar
    69   35   77 1
    70   36   37 ar
    71   36   48 1
    72   37   38 ar
    73   37   46 1
    74   38   39 ar
    75   38   78 1
    76   39   40 1
    77   40   41 1
    78   40   42 1
    79   40   43 1
    80   42   79 1
    81   42   80 1
    82   43   44 1
    83   43   81 1
    84   43   82 1
    85   44   45 1
    86   44   95 1
    87   45   83 1
    88   45   84 1
    89   45   85 1
    90   46   47 1
    91   47   86 1
    92   47   87 1
    93   47   88 1
    94   48   49 1
    95   49   89 1
    96   49   90 1
    97   49   91 1
    98   50   51 1
    99   51   92 1
   100   51   93 1
   101   51   94 1
@<TRIPOS>MOLECULE
ZINC95485887
   95   101     0     0     0
SMALL
USER_CHARGES

@<TRIPOS>ATOM
      1 C1          1.1067    1.3368    0.1134 C.3       1 <0>         0.0141
      2 N1          1.2025   -0.1243    0.2314 N.3       1 <0>        -0.5235
      3 C2          2.2972   -0.6500   -0.5997 C.3       1 <0>         0.0501
      4 C3          2.1232   -2.1632   -0.7311 C.3       1 <0>        -0.0810
      5 C4          1.9304   -2.7792    0.6310 C.ar      1 <0>        -0.0165
      6 C5          2.1111   -4.1464    0.7685 C.ar      1 <0>        -0.2116
      7 C6          1.9395   -4.7537    2.0017 C.ar      1 <0>         0.1450
      8 C7          1.5849   -3.9868    3.1024 C.ar      1 <0>        -0.1224
      9 C8          1.4081   -2.6263    2.9619 C.ar      1 <0>        -0.0755
     10 C9          1.5830   -2.0180    1.7268 C.ar      1 <0>        -0.1098
     11 C10         1.3873   -0.5276    1.6290 C.3       1 <0>         0.1359
     12 H1          2.2634   -0.0228    2.0361 H         1 <0>         0.0514
     13 C11         0.1525   -0.1257    2.4380 C.3       1 <0>        -0.0583
     14 C12         0.0788    1.3768    2.5292 C.ar      1 <0>        -0.1119
     15 C13         1.1230    2.0875    3.0892 C.ar      1 <0>        -0.0887
     16 C14         1.0558    3.4657    3.1736 C.ar      1 <0>        -0.1561
     17 C15        -0.0559    4.1366    2.6976 C.ar      1 <0>        -0.0807
     18 C16        -1.1022    3.4307    2.1365 C.ar      1 <0>        -0.2103
     19 C17        -1.0349    2.0478    2.0459 C.ar      1 <0>         0.1417
     20 O1         -2.0606    1.3514    1.4892 O.3       1 <0>        -0.2991
     21 C18        -3.1752    2.1081    1.0127 C.3       1 <0>         0.0408
     22 C19         1.3931   -4.6388    4.4475 C.3       1 <0>        -0.0309
     23 C20         0.0310   -5.2811    4.5046 C.ar      1 <0>        -0.0620
     24 C21        -1.0596   -4.5400    4.9588 C.ar      1 <0>        -0.0453
     25 C22        -2.3026   -5.1064    5.0103 C.ar      1 <0>        -0.1185
     26 C23        -2.4533   -6.4408    4.6142 C.ar      1 <0>        -0.1892
     27 C24        -1.3801   -7.1808    4.1668 C.ar      1 <0>         0.1141
     28 C25        -0.1198   -6.5925    4.1014 C.ar      1 <0>         0.1260
     29 O2          0.9494   -7.3022    3.6511 O.3       1 <0>        -0.2915
     30 C26         1.6987   -8.0334    4.6237 C.3       1 <0>         0.0367
     31 O3         -1.5519   -8.4752    3.7867 O.3       1 <0>        -0.2972
     32 C27        -2.8750   -9.0075    3.8763 C.3       1 <0>         0.0222
     33 C28        -3.5608   -4.4254    5.4421 C.3       1 <0>         0.1581
     34 H2         -4.4062   -5.0824    5.2379 H         1 <0>         0.1412
     35 C29        -3.8185   -3.0973    4.8161 C.ar      1 <0>        -0.1041
     36 C30        -4.8236   -2.8701    3.9027 C.ar      1 <0>        -0.1560
     37 C31        -5.0078   -1.5939    3.3901 C.ar      1 <0>         0.1135
     38 C32        -4.1841   -0.5483    3.7976 C.ar      1 <0>         0.1233
     39 C33        -3.1655   -0.7859    4.7121 C.ar      1 <0>        -0.0825
     40 C34        -2.9855   -2.0536    5.2028 C.ar      1 <0>        -0.1012
     41 C35        -1.8829   -2.4435    6.1426 C.3       1 <0>        -0.0493
     42 H3         -1.4634   -1.5286    6.5610 H         1 <0>         0.1224
     43 C36        -0.7809   -3.1345    5.3815 C.3       1 <0>        -0.0944
     44 C37        -2.4545   -3.2608    7.2903 C.3       1 <0>        -0.0076
     45 N2         -3.4593   -4.2173    6.9000 N.4       1 <0>        -0.3767
     46 C38        -4.7628   -3.7643    7.4037 C.3       1 <0>        -0.0540
     47 O4         -4.3757    0.7032    3.3011 O.3       1 <0>        -0.4703
     48 O5         -5.9975   -1.3635    2.4863 O.3       1 <0>        -0.2971
     49 C39        -6.8067   -2.4802    2.1116 C.3       1 <0>         0.0214
     50 O6          2.1171   -6.0946    2.1328 O.3       1 <0>        -0.2818
     51 C40         2.4811   -6.8189    0.9559 C.3       1 <0>         0.0292
     52 H4          1.8388    1.8033    0.7725 H         1 <0>         0.0336
     53 H5          1.3053    1.6318   -0.9170 H         1 <0>         0.0590
     54 H6          0.1049    1.6593    0.3969 H         1 <0>         0.0825
     55 H7          2.2605   -0.1900   -1.5872 H         1 <0>         0.0821
     56 H8          3.2542   -0.4311   -0.1260 H         1 <0>         0.0390
     57 H9          1.2517   -2.3748   -1.3506 H         1 <0>         0.0868
     58 H10         3.0103   -2.5902   -1.1991 H         1 <0>         0.0799
     59 H11         2.3867   -4.7412   -0.0898 H         1 <0>         0.1282
     60 H12         1.1320   -2.0300    3.8190 H         1 <0>         0.1254
     61 H13        -0.7434   -0.5041    1.9458 H         1 <0>         0.0903
     62 H14         0.2219   -0.5476    3.4406 H         1 <0>         0.0702
     63 H15         1.9922    1.5658    3.4616 H         1 <0>         0.1225
     64 H16         1.8727    4.0194    3.6123 H         1 <0>         0.1216
     65 H17        -0.1061    5.2133    2.7650 H         1 <0>         0.1228
     66 H18        -1.9701    3.9551    1.7650 H         1 <0>         0.1265
     67 H19        -3.6149    2.6668    1.8388 H         1 <0>         0.0544
     68 H20        -2.8402    2.8024    0.2420 H         1 <0>         0.0469
     69 H21        -3.9207    1.4323    0.5936 H         1 <0>         0.0966
     70 H22         2.1599   -5.3992    4.5953 H         1 <0>         0.0927
     71 H23         1.4727   -3.8854    5.2311 H         1 <0>         0.0851
     72 H24        -3.4300   -6.8995    4.6605 H         1 <0>         0.1352
     73 H25         2.0971   -7.3445    5.3685 H         1 <0>         0.0451
     74 H26         1.0492   -8.7602    5.1116 H         1 <0>         0.0452
     75 H27         2.5214   -8.5533    4.1328 H         1 <0>         0.0988
     76 H28        -3.2174   -8.9579    4.9100 H         1 <0>         0.0558
     77 H29        -3.5446   -8.4250    3.2435 H         1 <0>         0.0574
     78 H30        -2.8723  -10.0456    3.5439 H         1 <0>         0.1089
     79 H31        -5.4642   -3.6802    3.5869 H         1 <0>         0.1408
     80 H32        -2.5220    0.0197    5.0334 H         1 <0>         0.1473
     81 H33         0.0997   -3.1418    6.0239 H         1 <0>         0.0964
     82 H34        -0.5393   -2.5541    4.4910 H         1 <0>         0.1074
     83 H35        -1.6358   -3.7913    7.7765 H         1 <0>         0.1322
     84 H36        -2.8944   -2.5759    8.0153 H         1 <0>         0.1340
     85 H37        -5.5179   -4.5207    7.1896 H         1 <0>         0.1216
     86 H38        -4.7015   -3.6068    8.4805 H         1 <0>         0.1264
     87 H39        -5.0363   -2.8293    6.9147 H         1 <0>         0.1226
     88 H40        -4.9859    1.2436    3.8213 H         1 <0>         0.3920
     89 H41        -7.5552   -2.1596    1.3871 H         1 <0>         0.1100
     90 H42        -6.1779   -3.2517    1.6672 H         1 <0>         0.0593
     91 H43        -7.3041   -2.8810    2.9948 H         1 <0>         0.0573
     92 H44         2.5910   -7.8757    1.1992 H         1 <0>         0.0994
     93 H45         1.7044   -6.6988    0.2007 H         1 <0>         0.0510
     94 H46         3.4254   -6.4347    0.5703 H         1 <0>         0.0515
     95 H47        -3.2336   -5.0978    7.3380 H         1 <0>         0.4258
@<TRIPOS>BOND
     1    1    2 1
     2    1   52 1
     3    1   53 1
     4    1   54 1
     5    2   11 1
     6    2    3 1
     7    3    4 1
     8    3   55 1
     9    3   56 1
    10    4    5 1
    11    4   57 1
    12    4   58 1
    13    5   10 ar
    14    5    6 ar
    15    6    7 ar
    16    6   59 1
    17    7    8 ar
    18    7   50 1
    19    8    9 ar
    20    8   22 1
    21    9   10 ar
    22    9   60 1
    23   10   11 1
    24   11   12 1
    25   11   13 1
    26   13   14 1
    27   13   61 1
    28   13   62 1
    29   14   19 ar
    30   14   15 ar
    31   15   16 ar
    32   15   63 1
    33   16   17 ar
    34   16   64 1
    35   17   18 ar
    36   17   65 1
    37   18   19 ar
    38   18   66 1
    39   19   20 1
    40   20   21 1
    41   21   67 1
    42   21   68 1
    43   21   69 1
    44   22   23 1
    45   22   70 1
    46   22   71 1
    47   23   28 ar
    48   23   24 ar
    49   24   43 1
    50   24   25 ar
    51   25   26 ar
    52   25   33 1
    53   26   27 ar
    54   26   72 1
    55   27   28 ar
    56   27   31 1
    57   28   29 1
    58   29   30 1
    59   30   73 1
    60   30   74 1
    61   30   75 1
    62   31   32 1
    63   32   76 1
    64   32   77 1
    65   32   78 1
    66   33   34 1
    67   33   45 1
    68   33   35 1
    69   35   40 ar
    70   35   36 ar
    71   36   37 ar
    72   36   79 1
    73   37   38 ar
    74   37   48 1
    75   38   39 ar
    76   38   47 1
    77   39   40 ar
    78   39   80 1
    79   40   41 1
    80   41   42 1
    81   41   43 1
    82   41   44 1
    83   43   81 1
    84   43   82 1
    85   44   45 1
    86   44   83 1
    87   44   84 1
    88   45   46 1
    89   45   95 1
    90   46   85 1
    91   46   86 1
    92   46   87 1
    93   47   88 1
    94   48   49 1
    95   49   89 1
    96   49   90 1
    97   49   91 1
    98   50   51 1
    99   51   92 1
   100   51   93 1
   101   51   94 1
@<TRIPOS>MOLECULE
ZINC95485888
   98   104     0     0     0
SMALL
USER_CHARGES

@<TRIPOS>ATOM
      1 C1          0.9286    1.3305    0.0442 C.3       1 <0>         0.0136
      2 N1          1.0403   -0.1296    0.1614 N.3       1 <0>        -0.5227
      3 C2          2.0749   -0.6537   -0.7444 C.3       1 <0>         0.0502
      4 C3          1.8998   -2.1684   -0.8564 C.3       1 <0>        -0.0811
      5 C4          1.8092   -2.7789    0.5188 C.ar      1 <0>        -0.0160
      6 C5          2.0065   -4.1446    0.6488 C.ar      1 <0>        -0.2115
      7 C6          1.9275   -4.7468    1.8938 C.ar      1 <0>         0.1458
      8 C7          1.6493   -3.9765    3.0139 C.ar      1 <0>        -0.1218
      9 C8          1.4557   -2.6176    2.8807 C.ar      1 <0>        -0.0755
     10 C9          1.5378   -2.0143    1.6336 C.ar      1 <0>        -0.1110
     11 C10         1.3277   -0.5253    1.5436 C.3       1 <0>         0.1379
     12 H1          2.2283   -0.0143    1.8842 H         1 <0>         0.0512
     13 C11         0.1525   -0.1257    2.4380 C.3       1 <0>        -0.0617
     14 C12         0.0788    1.3768    2.5292 C.ar      1 <0>        -0.1136
     15 C13         1.1230    2.0875    3.0892 C.ar      1 <0>        -0.0863
     16 C14         1.0558    3.4657    3.1736 C.ar      1 <0>        -0.1524
     17 C15        -0.0559    4.1366    2.6976 C.ar      1 <0>        -0.0781
     18 C16        -1.1022    3.4307    2.1365 C.ar      1 <0>        -0.2132
     19 C17        -1.0349    2.0478    2.0459 C.ar      1 <0>         0.1338
     20 O1         -2.0606    1.3514    1.4892 O.3       1 <0>        -0.3042
     21 C18        -3.1752    2.1081    1.0127 C.3       1 <0>         0.0235
     22 C19         1.5586   -4.6232    4.3721 C.3       1 <0>        -0.0309
     23 C20         0.2076   -5.2719    4.5304 C.ar      1 <0>        -0.0608
     24 C21        -0.8513   -4.5339    5.0589 C.ar      1 <0>        -0.0505
     25 C22        -2.0843   -5.1062    5.2025 C.ar      1 <0>        -0.1072
     26 C23        -2.2563   -6.4432    4.8242 C.ar      1 <0>        -0.1933
     27 C24        -1.2142   -7.1801    4.3036 C.ar      1 <0>         0.1155
     28 C25         0.0349   -6.5859    4.1447 C.ar      1 <0>         0.1224
     29 O2          1.0724   -7.2924    3.6215 O.3       1 <0>        -0.2914
     30 C26         1.8939   -8.0154    4.5405 C.3       1 <0>         0.0367
     31 O3         -1.4063   -8.4770    3.9426 O.3       1 <0>        -0.2973
     32 C27        -2.7167   -9.0154    4.1298 C.3       1 <0>         0.0223
     33 C28        -3.3116   -4.4293    5.7211 C.3       1 <0>         0.1606
     34 H2         -4.1661   -5.0915    5.5815 H         1 <0>         0.1402
     35 C29        -3.6207   -3.1055    5.1097 C.ar      1 <0>        -0.1426
     36 C30        -4.6903   -2.8876    4.2703 C.ar      1 <0>        -0.1310
     37 C31        -4.9178   -1.6147    3.7668 C.ar      1 <0>         0.1083
     38 C32        -4.0723   -0.5632    4.1091 C.ar      1 <0>         0.1468
     39 C33        -2.9891   -0.7915    4.9488 C.ar      1 <0>        -0.1528
     40 C34        -2.7675   -2.0560    5.4306 C.ar      1 <0>        -0.0709
     41 C35        -1.5979   -2.4360    6.2900 C.3       1 <0>        -0.0514
     42 H3         -1.1540   -1.5171    6.6730 H         1 <0>         0.1211
     43 C36        -0.5501   -3.1251    5.4542 C.3       1 <0>        -0.0921
     44 C37        -2.0808   -3.2507    7.4796 C.3       1 <0>        -0.0064
     45 N2         -3.1062   -4.2139    7.1670 N.4       1 <0>        -0.3762
     46 C38        -2.7257   -5.4912    7.7848 C.3       1 <0>        -0.0538
     47 O4         -4.3058    0.6850    3.6223 O.3       1 <0>        -0.2877
     48 C39        -3.3971    1.7153    4.0158 C.3       1 <0>         0.0128
     49 O5         -5.9714   -1.3935    2.9359 O.3       1 <0>        -0.2966
     50 C40        -6.7996   -2.5158    2.6255 C.3       1 <0>         0.0226
     51 O6          2.1212   -6.0863    2.0175 O.3       1 <0>        -0.2814
     52 C41         2.4029   -6.8143    0.8206 C.3       1 <0>         0.0292
     53 H4          1.6751    1.8043    0.6817 H         1 <0>         0.0338
     54 H5          1.0954    1.6256   -0.9918 H         1 <0>         0.0585
     55 H6         -0.0675    1.6448    0.3556 H         1 <0>         0.0828
     56 H7          1.9646   -0.1986   -1.7287 H         1 <0>         0.0822
     57 H8          3.0624   -0.4280   -0.3420 H         1 <0>         0.0390
     58 H9          0.9869   -2.3872   -1.4103 H         1 <0>         0.0870
     59 H10         2.7530   -2.5932   -1.3853 H         1 <0>         0.0801
     60 H11         2.2225   -4.7420   -0.2245 H         1 <0>         0.1284
     61 H12         1.2391   -2.0187    3.7529 H         1 <0>         0.1250
     62 H13        -0.7748   -0.5098    2.0128 H         1 <0>         0.0909
     63 H14         0.2957   -0.5436    3.4345 H         1 <0>         0.0717
     64 H15         1.9922    1.5658    3.4616 H         1 <0>         0.1247
     65 H16         1.8727    4.0194    3.6123 H         1 <0>         0.1237
     66 H17        -0.1061    5.2133    2.7650 H         1 <0>         0.1251
     67 H18        -1.9701    3.9551    1.7650 H         1 <0>         0.1286
     68 H19        -2.8402    2.8024    0.2420 H         1 <0>         0.0549
     69 H20        -3.9207    1.4323    0.5936 H         1 <0>         0.1021
     70 H21        -3.6149    2.6668    1.8388 H         1 <0>         0.0568
     71 H22         2.3380   -5.3791    4.4675 H         1 <0>         0.0926
     72 H23         1.6906   -3.8657    5.1447 H         1 <0>         0.0846
     73 H24        -3.2246   -6.9065    4.9429 H         1 <0>         0.1351
     74 H25         1.2852   -8.7430    5.0773 H         1 <0>         0.0450
     75 H26         2.6817   -8.5335    3.9937 H         1 <0>         0.0985
     76 H27         2.3415   -7.3210    5.2517 H         1 <0>         0.0447
     77 H28        -2.7326  -10.0550    3.8026 H         1 <0>         0.1087
     78 H29        -2.9838   -8.9626    5.1853 H         1 <0>         0.0555
     79 H30        -3.4333   -8.4392    3.5445 H         1 <0>         0.0578
     80 H31        -5.3479   -3.7023    4.0051 H         1 <0>         0.1436
     81 H32        -2.3283    0.0188    5.2192 H         1 <0>         0.1462
     82 H33         0.3746   -3.1251    6.0314 H         1 <0>         0.0952
     83 H34        -0.3765   -2.5478    4.5461 H         1 <0>         0.1062
     84 H35        -1.2264   -3.7749    7.9076 H         1 <0>         0.1328
     85 H36        -2.4707   -2.5645    8.2314 H         1 <0>         0.1324
     86 H37        -1.8040   -5.8544    7.3303 H         1 <0>         0.1255
     87 H38        -2.5708   -5.3459    8.8539 H         1 <0>         0.1259
     88 H39        -3.5200   -6.2212    7.6287 H         1 <0>         0.1207
     89 H40        -3.6970    2.6583    3.5588 H         1 <0>         0.1042
     90 H41        -3.4106    1.8169    5.1009 H         1 <0>         0.0556
     91 H42        -2.3903    1.4565    3.6876 H         1 <0>         0.0729
     92 H43        -6.2006   -3.2863    2.1401 H         1 <0>         0.0580
     93 H44        -7.2299   -2.9149    3.5440 H         1 <0>         0.0567
     94 H45        -7.6003   -2.2023    1.9555 H         1 <0>         0.1090
     95 H46         2.5357   -7.8694    1.0599 H         1 <0>         0.0996
     96 H47         1.5731   -6.7016    0.1229 H         1 <0>         0.0512
     97 H48         3.3149   -6.4273    0.3661 H         1 <0>         0.0514
     98 H49        -3.9758   -3.9056    7.5754 H         1 <0>         0.4245
@<TRIPOS>BOND
     1    1    2 1
     2    1   53 1
     3    1   54 1
     4    1   55 1
     5    2   11 1
     6    2    3 1
     7    3    4 1
     8    3   56 1
     9    3   57 1
    10    4    5 1
    11    4   58 1
    12    4   59 1
    13    5   10 ar
    14    5    6 ar
    15    6    7 ar
    16    6   60 1
    17    7    8 ar
    18    7   51 1
    19    8    9 ar
    20    8   22 1
    21    9   10 ar
    22    9   61 1
    23   10   11 1
    24   11   12 1
    25   11   13 1
    26   13   14 1
    27   13   62 1
    28   13   63 1
    29   14   19 ar
    30   14   15 ar
    31   15   16 ar
    32   15   64 1
    33   16   17 ar
    34   16   65 1
    35   17   18 ar
    36   17   66 1
    37   18   19 ar
    38   18   67 1
    39   19   20 1
    40   20   21 1
    41   21   68 1
    42   21   69 1
    43   21   70 1
    44   22   23 1
    45   22   71 1
    46   22   72 1
    47   23   28 ar
    48   23   24 ar
    49   24   43 1
    50   24   25 ar
    51   25   26 ar
    52   25   33 1
    53   26   27 ar
    54   26   73 1
    55   27   28 ar
    56   27   31 1
    57   28   29 1
    58   29   30 1
    59   30   74 1
    60   30   75 1
    61   30   76 1
    62   31   32 1
    63   32   77 1
    64   32   78 1
    65   32   79 1
    66   33   34 1
    67   33   45 1
    68   33   35 1
    69   35   40 ar
    70   35   36 ar
    71   36   37 ar
    72   36   80 1
    73   37   38 ar
    74   37   49 1
    75   38   39 ar
    76   38   47 1
    77   39   40 ar
    78   39   81 1
    79   40   41 1
    80   41   42 1
    81   41   43 1
    82   41   44 1
    83   43   82 1
    84   43   83 1
    85   44   45 1
    86   44   84 1
    87   44   85 1
    88   45   46 1
    89   45   98 1
    90   46   86 1
    91   46   87 1
    92   46   88 1
    93   47   48 1
    94   48   89 1
    95   48   90 1
    96   48   91 1
    97   49   50 1
    98   50   92 1
    99   50   93 1
   100   50   94 1
   101   51   52 1
   102   52   95 1
   103   52   96 1
   104   52   97 1
@<TRIPOS>MOLECULE
ZINC95485889
   92    98     0     0     0
SMALL
USER_CHARGES

@<TRIPOS>ATOM
      1 C1         -2.2024    0.2300   -0.9114 C.3       1 <0>         0.0158
      2 N1         -1.3778   -0.9711   -0.7234 N.3       1 <0>        -0.5241
      3 C2         -0.5766   -1.2541   -1.9249 C.3       1 <0>         0.0527
      4 C3         -0.0348   -2.6800   -1.8222 C.3       1 <0>        -0.0803
      5 C4          0.6281   -2.8834   -0.4838 C.ar      1 <0>        -0.0149
      6 C5          1.4818   -3.9639   -0.3276 C.ar      1 <0>        -0.2111
      7 C6          2.1081   -4.1901    0.8871 C.ar      1 <0>         0.1511
      8 C7          1.8774   -3.3292    1.9505 C.ar      1 <0>        -0.1218
      9 C8          1.0288   -2.2538    1.7905 C.ar      1 <0>        -0.0765
     10 C9          0.4040   -2.0260    0.5725 C.ar      1 <0>        -0.1035
     11 C10        -0.5060   -0.8320    0.4472 C.3       1 <0>         0.1328
     12 H1          0.0972    0.0696    0.3413 H         1 <0>         0.0544
     13 C11        -1.3666   -0.7179    1.7070 C.3       1 <0>        -0.0719
     14 C12        -2.2745   -1.9166    1.8055 C.ar      1 <0>        -0.0607
     15 C13        -3.5243   -1.8861    1.2150 C.ar      1 <0>        -0.0709
     16 C14        -4.3587   -2.9836    1.3043 C.ar      1 <0>        -0.1419
     17 C15        -3.9413   -4.1171    1.9867 C.ar      1 <0>         0.0984
     18 C16        -2.6866   -4.1453    2.5779 C.ar      1 <0>        -0.1444
     19 C17        -1.8540   -3.0472    2.4814 C.ar      1 <0>        -0.0907
     20 O1         -4.7604   -5.1978    2.0763 O.3       1 <0>        -0.5058
     21 C18         2.5519   -3.5687    3.2767 C.3       1 <0>        -0.0334
     22 C19         1.6898   -4.4695    4.1233 C.ar      1 <0>        -0.0608
     23 C20         0.7914   -3.9072    5.0298 C.ar      1 <0>        -0.0496
     24 C21        -0.0020   -4.7107    5.7999 C.ar      1 <0>        -0.1134
     25 C22         0.1162   -6.0999    5.6706 C.ar      1 <0>        -0.1893
     26 C23         1.0036   -6.6633    4.7791 C.ar      1 <0>         0.1166
     27 C24         1.7970   -5.8387    3.9859 C.ar      1 <0>         0.1228
     28 O2          2.6698   -6.3752    3.0916 O.3       1 <0>        -0.2950
     29 C25         3.9916   -6.6501    3.5600 C.3       1 <0>         0.0409
     30 O3          1.0997   -8.0155    4.6711 O.3       1 <0>        -0.2972
     31 C26         0.2492   -8.7958    5.5137 C.3       1 <0>         0.0220
     32 C27        -1.0272   -4.2489    6.7844 C.3       1 <0>         0.1565
     33 H2         -1.5960   -5.1109    7.1330 H         1 <0>         0.1411
     34 C28        -1.9760   -3.2138    6.2841 C.ar      1 <0>        -0.1009
     35 C29        -3.3109   -3.4569    6.0493 C.ar      1 <0>        -0.1503
     36 C30        -4.1277   -2.4255    5.6083 C.ar      1 <0>         0.1251
     37 C31        -3.6031   -1.1520    5.4064 C.ar      1 <0>         0.1150
     38 C32        -2.2533   -0.9154    5.6359 C.ar      1 <0>        -0.0864
     39 C33        -1.4535   -1.9452    6.0601 C.ar      1 <0>        -0.1045
     40 C34         0.0261   -1.8264    6.2784 C.3       1 <0>        -0.0487
     41 H3          0.2725   -0.7653    6.3174 H         1 <0>         0.1224
     42 C35         0.7664   -2.4154    5.1052 C.3       1 <0>        -0.0965
     43 C36         0.3959   -2.4397    7.6197 C.3       1 <0>        -0.0072
     44 N2         -0.2956   -3.6663    7.9265 N.4       1 <0>        -0.3766
     45 C37        -1.2476   -3.4115    9.0159 C.3       1 <0>        -0.0542
     46 O4         -4.4099   -0.1416    4.9850 O.3       1 <0>        -0.4770
     47 O5         -5.4465   -2.6597    5.3727 O.3       1 <0>        -0.2940
     48 C38        -5.9202   -3.9885    5.6003 C.3       1 <0>         0.0227
     49 O6          2.9443   -5.2509    1.0368 O.3       1 <0>        -0.2880
     50 C39         3.1329   -6.0940   -0.1015 C.3       1 <0>         0.0291
     51 H4         -1.5563    1.0918   -1.0785 H         1 <0>         0.0288
     52 H5         -2.8542    0.0919   -1.7740 H         1 <0>         0.0733
     53 H6         -2.8086    0.3976   -0.0211 H         1 <0>         0.0731
     54 H7         -1.2029   -1.1634   -2.8124 H         1 <0>         0.0832
     55 H8          0.2535   -0.5504   -1.9856 H         1 <0>         0.0406
     56 H9         -0.8564   -3.3881   -1.9304 H         1 <0>         0.0856
     57 H10         0.6931   -2.8486   -2.6158 H         1 <0>         0.0796
     58 H11         1.6594   -4.6328   -1.1567 H         1 <0>         0.1274
     59 H12         0.8497   -1.5842    2.6187 H         1 <0>         0.1230
     60 H13        -0.7219   -0.6773    2.5850 H         1 <0>         0.0702
     61 H14        -1.9677    0.1899    1.6554 H         1 <0>         0.0774
     62 H15        -3.8488   -1.0035    0.6839 H         1 <0>         0.1212
     63 H16        -5.3351   -2.9590    0.8435 H         1 <0>         0.1212
     64 H17        -2.3595   -5.0265    3.1097 H         1 <0>         0.1089
     65 H18        -0.8754   -3.0703    2.9377 H         1 <0>         0.1172
     66 H19        -4.6532   -5.8334    1.3554 H         1 <0>         0.3888
     67 H20         3.5198   -4.0421    3.1119 H         1 <0>         0.0940
     68 H21         2.6953   -2.6171    3.7886 H         1 <0>         0.0854
     69 H22        -0.4999   -6.7427    6.2819 H         1 <0>         0.1354
     70 H23         3.9443   -7.3605    4.3853 H         1 <0>         0.0445
     71 H24         4.5836   -7.0743    2.7490 H         1 <0>         0.0980
     72 H25         4.4552   -5.7251    3.9029 H         1 <0>         0.0453
     73 H26         0.4653   -8.5693    6.5577 H         1 <0>         0.0561
     74 H27        -0.7926   -8.5580    5.2984 H         1 <0>         0.0580
     75 H28         0.4261   -9.8551    5.3275 H         1 <0>         0.1090
     76 H29        -3.7194   -4.4441    6.2069 H         1 <0>         0.1396
     77 H30        -1.8384    0.0697    5.4816 H         1 <0>         0.1468
     78 H31         1.7957   -2.0614    5.1623 H         1 <0>         0.0976
     79 H32         0.3340   -2.0362    4.1792 H         1 <0>         0.1041
     80 H33         1.4689   -2.6311    7.6268 H         1 <0>         0.1319
     81 H34         0.1743   -1.7145    8.4028 H         1 <0>         0.1343
     82 H35        -1.7160   -4.3489    9.3159 H         1 <0>         0.1216
     83 H36        -0.7195   -2.9806    9.8666 H         1 <0>         0.1264
     84 H37        -2.0137   -2.7157    8.6736 H         1 <0>         0.1232
     85 H38        -4.8226    0.3576    5.7030 H         1 <0>         0.3954
     86 H39        -5.3799   -4.6822    4.9561 H         1 <0>         0.0649
     87 H40        -5.7565   -4.2589    6.6435 H         1 <0>         0.0541
     88 H41        -6.9855   -4.0381    5.3750 H         1 <0>         0.1081
     89 H42         3.5464   -5.5086   -0.9227 H         1 <0>         0.0519
     90 H43         3.8214   -6.8997    0.1531 H         1 <0>         0.0986
     91 H44         2.1746   -6.5168   -0.4033 H         1 <0>         0.0528
     92 H45         0.3891   -4.3344    8.2475 H         1 <0>         0.4255
@<TRIPOS>BOND
     1    1    2 1
     2    1   51 1
     3    1   52 1
     4    1   53 1
     5    2   11 1
     6    2    3 1
     7    3    4 1
     8    3   54 1
     9    3   55 1
    10    4    5 1
    11    4   56 1
    12    4   57 1
    13    5   10 ar
    14    5    6 ar
    15    6    7 ar
    16    6   58 1
    17    7    8 ar
    18    7   49 1
    19    8    9 ar
    20    8   21 1
    21    9   10 ar
    22    9   59 1
    23   10   11 1
    24   11   12 1
    25   11   13 1
    26   13   14 1
    27   13   60 1
    28   13   61 1
    29   14   19 ar
    30   14   15 ar
    31   15   16 ar
    32   15   62 1
    33   16   17 ar
    34   16   63 1
    35   17   18 ar
    36   17   20 1
    37   18   19 ar
    38   18   64 1
    39   19   65 1
    40   20   66 1
    41   21   22 1
    42   21   67 1
    43   21   68 1
    44   22   27 ar
    45   22   23 ar
    46   23   42 1
    47   23   24 ar
    48   24   25 ar
    49   24   32 1
    50   25   26 ar
    51   25   69 1
    52   26   27 ar
    53   26   30 1
    54   27   28 1
    55   28   29 1
    56   29   70 1
    57   29   71 1
    58   29   72 1
    59   30   31 1
    60   31   73 1
    61   31   74 1
    62   31   75 1
    63   32   33 1
    64   32   44 1
    65   32   34 1
    66   34   39 ar
    67   34   35 ar
    68   35   36 ar
    69   35   76 1
    70   36   37 ar
    71   36   47 1
    72   37   38 ar
    73   37   46 1
    74   38   39 ar
    75   38   77 1
    76   39   40 1
    77   40   41 1
    78   40   42 1
    79   40   43 1
    80   42   78 1
    81   42   79 1
    82   43   44 1
    83   43   80 1
    84   43   81 1
    85   44   45 1
    86   44   92 1
    87   45   82 1
    88   45   83 1
    89   45   84 1
    90   46   85 1
    91   47   48 1
    92   48   86 1
    93   48   87 1
    94   48   88 1
    95   49   50 1
    96   50   89 1
    97   50   90 1
    98   50   91 1
@<TRIPOS>MOLECULE
ZINC95485906
   52    55     0     0     0
SMALL
USER_CHARGES

@<TRIPOS>ATOM
      1 C1         -0.0184    1.5028    0.0103 C.3       1 <0>        -0.1113
      2 C2          0.0021   -0.0041    0.0020 C.ar      1 <0>        -0.0920
      3 C3          0.0055   -0.6683   -1.1855 C.ar      1 <0>        -0.0790
      4 C4          0.0250   -2.0732   -1.1995 C.ar      1 <0>        -0.0613
      5 C5          0.0296   -2.7855   -2.4129 C.ar      1 <0>        -0.1038
      6 C6          0.0489   -4.1435   -2.4059 C.ar      1 <0>        -0.1012
      7 C7          0.0646   -4.8589   -1.1982 C.ar      1 <0>        -0.0650
      8 C8          0.0603   -4.1889    0.0170 C.ar      1 <0>         0.1378
      9 C9          0.0408   -2.7804    0.0290 C.ar      1 <0>        -0.0403
     10 C10         0.0368   -2.0654    1.2374 C.ar      1 <0>        -0.1989
     11 C11         0.0230   -0.6994    1.2142 C.ar      1 <0>         0.1340
     12 O1          0.0243   -0.0083    2.3844 O.3       1 <0>        -0.3134
     13 C12         0.0462   -0.7745    3.5904 C.3       1 <0>         0.0254
     14 O2          0.0746   -4.8843    1.1832 O.3       1 <0>        -0.4769
     15 C13         0.0855   -6.3410   -1.2212 C.ar      1 <0>        -0.0750
     16 C14         1.1865   -7.0191   -1.7406 C.ar      1 <0>        -0.0902
     17 C15         1.1964   -8.3971   -1.7552 C.ar      1 <0>        -0.1292
     18 C16         0.1185   -9.1180   -1.2587 C.ar      1 <0>        -0.0603
     19 C17        -0.9775   -8.4571   -0.7459 C.ar      1 <0>        -0.1382
     20 C18        -0.9954   -7.0672   -0.7172 C.ar      1 <0>         0.1453
     21 O3         -2.0698   -6.4139   -0.2027 O.3       1 <0>        -0.4800
     22 C19        -2.1735   -9.1985   -0.2084 C.3       1 <0>         0.1276
     23 H1         -2.5092   -8.7205    0.7119 H         1 <0>         0.0978
     24 N1         -1.8292  -10.5962    0.0702 N.3       1 <0>        -0.6689
     25 C20        -1.2115  -11.2143   -1.1139 C.3       1 <0>         0.0764
     26 H2         -1.8163  -11.0018   -1.9954 H         1 <0>         0.0871
     27 C21         0.1867  -10.6237   -1.2960 C.3       1 <0>        -0.1152
     28 C22        -1.1125  -12.7276   -0.9111 C.3       1 <0>        -0.1425
     29 C23        -3.3015   -9.1534   -1.2412 C.3       1 <0>        -0.1374
     30 H3          1.0042    1.8801    0.0026 H         1 <0>         0.0721
     31 H4         -0.5455    1.8639   -0.8728 H         1 <0>         0.0684
     32 H5         -0.5286    1.8543    0.9071 H         1 <0>         0.0732
     33 H6         -0.0071   -0.1174   -2.1144 H         1 <0>         0.1381
     34 H7          0.0173   -2.2514   -3.3515 H         1 <0>         0.1309
     35 H8          0.0519   -4.6807   -3.3429 H         1 <0>         0.1261
     36 H9          0.0484   -2.5924    2.1800 H         1 <0>         0.1370
     37 H10         0.9451   -1.3906    3.6132 H         1 <0>         0.0560
     38 H11         0.0448   -0.1020    4.4482 H         1 <0>         0.1024
     39 H12        -0.8347   -1.4154    3.6297 H         1 <0>         0.0578
     40 H13         0.9621   -5.0735    1.5174 H         1 <0>         0.3837
     41 H14         2.0287   -6.4669   -2.1306 H         1 <0>         0.1268
     42 H15         2.0507   -8.9214   -2.1570 H         1 <0>         0.1250
     43 H16        -2.7584   -6.2168   -0.8523 H         1 <0>         0.3842
     44 H17         0.5926  -10.9439   -2.2556 H         1 <0>         0.0824
     45 H18         0.8357  -10.9765   -0.4944 H         1 <0>         0.0802
     46 H19        -2.1107  -13.1409   -0.7663 H         1 <0>         0.0659
     47 H20        -0.6547  -13.1827   -1.7894 H         1 <0>         0.0604
     48 H21        -0.5015  -12.9373   -0.0331 H         1 <0>         0.0552
     49 H22        -2.9662   -9.6228   -2.1660 H         1 <0>         0.0550
     50 H23        -4.1689   -9.6891   -0.8555 H         1 <0>         0.0695
     51 H24        -3.5729   -8.1162   -1.4377 H         1 <0>         0.0547
     52 H25        -1.2217  -10.6659    0.8728 H         1 <0>         0.3433
@<TRIPOS>BOND
     1    1    2 1
     2    1   30 1
     3    1   31 1
     4    1   32 1
     5    2   11 ar
     6    2    3 ar
     7    3    4 ar
     8    3   33 1
     9    4    9 ar
    10    4    5 ar
    11    5    6 ar
    12    5   34 1
    13    6    7 ar
    14    6   35 1
    15    7    8 ar
    16    7   15 1
    17    8    9 ar
    18    8   14 1
    19    9   10 ar
    20   10   11 ar
    21   10   36 1
    22   11   12 1
    23   12   13 1
    24   13   37 1
    25   13   38 1
    26   13   39 1
    27   14   40 1
    28   15   20 ar
    29   15   16 ar
    30   16   17 ar
    31   16   41 1
    32   17   18 ar
    33   17   42 1
    34   18   27 1
    35   18   19 ar
    36   19   20 ar
    37   19   22 1
    38   20   21 1
    39   21   43 1
    40   22   23 1
    41   22   24 1
    42   22   29 1
    43   24   25 1
    44   24   52 1
    45   25   26 1
    46   25   27 1
    47   25   28 1
    48   27   44 1
    49   27   45 1
    50   28   46 1
    51   28   47 1
    52   28   48 1
    53   29   49 1
    54   29   50 1
    55   29   51 1
@<TRIPOS>MOLECULE
ZINC95485929
   50    53     0     0     0
SMALL
USER_CHARGES

@<TRIPOS>ATOM
      1 C1         -5.8317   -4.8413   -1.5368 C.3       1 <0>        -0.1450
      2 C2         -5.0323   -4.4546   -0.2909 C.3       1 <0>        -0.0827
      3 C3         -3.9143   -3.5222   -0.6807 C.2       1 <0>        -0.1554
      4 C4         -4.0818   -2.2260   -0.5930 C.2       1 <0>        -0.1116
      5 C5         -3.0253   -1.2920   -1.1244 C.3       1 <0>        -0.0624
      6 C6         -3.6499   -0.3326   -2.1044 C.ar      1 <0>         0.0296
      7 C7         -4.2827    0.8245   -1.6477 C.ar      1 <0>        -0.2336
      8 C8         -4.8738    1.7214   -2.5521 C.ar      1 <0>         0.2023
      9 C9         -4.8101    1.4470   -3.9130 C.ar      1 <0>        -0.2420
     10 C10        -4.1797    0.3005   -4.3622 C.ar      1 <0>         0.1634
     11 C11        -3.5945   -0.5900   -3.4586 C.ar      1 <0>         0.0240
     12 O1         -2.9761   -1.7132   -3.9134 O.3       1 <0>        -0.3141
     13 C12        -3.7813   -2.8853   -4.0542 C.3       1 <0>         0.0232
     14 O2         -4.1238    0.0414   -5.6940 O.3       1 <0>        -0.3003
     15 C13        -4.7351    0.9939   -6.5665 C.3       1 <0>         0.0213
     16 O3         -5.5044    2.8328   -2.1199 O.3       1 <0>        -0.2348
     17 C14        -5.3300    3.3123   -0.8699 C.ar      1 <0>         0.2238
     18 C15        -5.7135    4.6099   -0.5745 C.ar      1 <0>        -0.2725
     19 C16        -5.5488    5.1179    0.7082 C.ar      1 <0>         0.1384
     20 C17        -4.9915    4.3120    1.7174 C.ar      1 <0>        -0.2671
     21 C18        -4.9698    5.1494    2.9238 C.2       1 <0>        -0.1443
     22 C19        -5.4860    6.3318    2.5656 C.2       1 <0>        -0.0775
     23 O4         -5.8251    6.3154    1.2638 O.3       1 <0>        -0.2001
     24 C20        -4.5975    3.0037    1.4351 C.ar      1 <0>         0.3765
     25 C21        -4.7638    2.5085    0.1400 C.ar      1 <0>        -0.3927
     26 C22        -4.3436    1.1373   -0.2050 C.2       1 <0>         0.4421
     27 O5         -4.0644    0.3133    0.6472 O.2       1 <0>        -0.4419
     28 O6         -4.0597    2.2236    2.4052 O.3       1 <0>        -0.6392
     29 C23        -2.6036   -4.0811   -1.1714 C.3       1 <0>        -0.1173
     30 H1         -6.6403   -5.5156   -1.2549 H         1 <0>         0.0527
     31 H2         -6.2494   -3.9440   -1.9935 H         1 <0>         0.0532
     32 H3         -5.1748   -5.3397   -2.2497 H         1 <0>         0.0528
     33 H4         -5.6891   -3.9562    0.4220 H         1 <0>         0.0658
     34 H5         -4.6145   -5.3518    0.1658 H         1 <0>         0.0635
     35 H6         -4.9771   -1.8266   -0.1398 H         1 <0>         0.1122
     36 H7         -2.5859   -0.7328   -0.2983 H         1 <0>         0.1077
     37 H8         -2.2488   -1.8695   -1.6260 H         1 <0>         0.0858
     38 H9         -5.2542    2.1303   -4.6217 H         1 <0>         0.1460
     39 H10        -4.2030   -3.1549   -3.0859 H         1 <0>         0.0586
     40 H11        -4.5883   -2.6891   -4.7601 H         1 <0>         0.0405
     41 H12        -3.1666   -3.7061   -4.4240 H         1 <0>         0.0871
     42 H13        -4.6190    0.6669   -7.5998 H         1 <0>         0.1005
     43 H14        -5.7956    1.0764   -6.3285 H         1 <0>         0.0579
     44 H15        -4.2570    1.9648   -6.4367 H         1 <0>         0.0595
     45 H16        -6.1432    5.2312   -1.3464 H         1 <0>         0.1213
     46 H17        -4.6099    4.8682    3.9025 H         1 <0>         0.1451
     47 H18        -5.6124    7.1765    3.2266 H         1 <0>         0.1942
     48 H19        -2.6152   -4.1320   -2.2602 H         1 <0>         0.0646
     49 H20        -1.7885   -3.4344   -0.8466 H         1 <0>         0.0650
     50 H21        -2.4591   -5.0811   -0.7624 H         1 <0>         0.0560
@<TRIPOS>BOND
     1    1    2 1
     2    1   30 1
     3    1   31 1
     4    1   32 1
     5    2    3 1
     6    2   33 1
     7    2   34 1
     8    3    4 2
     9    3   29 1
    10    4    5 1
    11    4   35 1
    12    5    6 1
    13    5   36 1
    14    5   37 1
    15    6   11 ar
    16    6    7 ar
    17    7   26 1
    18    7    8 ar
    19    8    9 ar
    20    8   16 1
    21    9   10 ar
    22    9   38 1
    23   10   11 ar
    24   10   14 1
    25   11   12 1
    26   12   13 1
    27   13   39 1
    28   13   40 1
    29   13   41 1
    30   14   15 1
    31   15   42 1
    32   15   43 1
    33   15   44 1
    34   16   17 1
    35   17   25 ar
    36   17   18 ar
    37   18   19 ar
    38   18   45 1
    39   19   23 1
    40   19   20 ar
    41   20   21 1
    42   20   24 ar
    43   21   22 2
    44   21   46 1
    45   22   23 1
    46   22   47 1
    47   24   25 ar
    48   24   28 1
    49   25   26 1
    50   26   27 2
    51   29   48 1
    52   29   49 1
    53   29   50 1
@<TRIPOS>MOLECULE
ZINC95485964
   78    80     0     0     0
SMALL
USER_CHARGES

@<TRIPOS>ATOM
      1 C1         -8.6367    3.6924    1.1616 C.3       1 <0>        -0.1137
      2 C2         -7.5194    2.7850    1.6080 C.ar      1 <0>        -0.0461
      3 C3         -6.8621    2.0265    0.6851 C.ar      1 <0>        -0.1659
      4 C4         -5.8215    1.1761    1.0877 C.ar      1 <0>         0.0472
      5 C5         -5.1372    0.3754    0.1534 C.ar      1 <0>        -0.2673
      6 C6         -4.1270   -0.4461    0.5475 C.ar      1 <0>         0.0620
      7 C7         -3.7428   -0.4991    1.9013 C.ar      1 <0>        -0.3813
      8 C8         -4.4102    0.2764    2.8579 C.ar      1 <0>         0.3435
      9 C9         -5.4596    1.1216    2.4564 C.ar      1 <0>        -0.1775
     10 C10        -6.1564    1.9144    3.3893 C.ar      1 <0>         0.1874
     11 C11        -7.1719    2.7392    2.9531 C.ar      1 <0>        -0.1813
     12 C12        -7.9169    3.5942    3.9456 C.3       1 <0>        -0.0521
     13 C13        -9.1166    2.8161    4.4898 C.3       1 <0>        -0.0885
     14 C14        -9.8615    3.6712    5.4823 C.2       1 <0>        -0.1605
     15 C15       -10.0656    3.2341    6.7002 C.2       1 <0>        -0.1397
     16 C16        -9.7021    1.8173    7.0632 C.3       1 <0>        -0.1193
     17 C17       -10.6639    4.1480    7.7384 C.3       1 <0>        -0.1140
     18 O1         -5.8272    1.8713    4.7052 O.3       1 <0>        -0.4725
     19 O2         -4.0478    0.2119    4.1604 O.3       1 <0>        -0.6147
     20 C18        -2.6323   -1.3504    2.3457 C.2       1 <0>         0.4055
     21 O3         -2.1367   -1.1993    3.4430 O.2       1 <0>        -0.4566
     22 C19        -2.1187   -2.4210    1.4068 C.3       1 <0>        -0.2194
     23 C20        -2.1371   -1.8198    0.0142 C.2       1 <0>         0.3899
     24 C21        -3.4503   -1.2889   -0.5045 C.3       1 <0>        -0.0659
     25 C22        -4.3596   -2.4621   -0.8756 C.3       1 <0>        -0.0898
     26 C23        -3.6799   -3.3145   -1.9490 C.3       1 <0>        -0.1035
     27 C24        -4.5912   -4.4488   -2.3413 C.2       1 <0>        -0.1560
     28 C25        -4.1528   -5.6828   -2.3082 C.2       1 <0>        -0.1416
     29 C26        -2.7107   -5.9612   -1.9705 C.3       1 <0>        -0.1209
     30 C27        -5.0904   -6.8239   -2.6077 C.3       1 <0>        -0.1147
     31 C28        -3.1957   -0.4368   -1.7494 C.3       1 <0>        -0.0890
     32 C29        -2.2955    0.7449   -1.3833 C.3       1 <0>        -0.1064
     33 C30        -2.0447    1.5843   -2.6095 C.2       1 <0>        -0.1526
     34 C31        -2.4640    2.8246   -2.6512 C.2       1 <0>        -0.1416
     35 C32        -3.2349    3.3989   -1.4906 C.3       1 <0>        -0.1220
     36 C33        -2.1755    3.6773   -3.8598 C.3       1 <0>        -0.1127
     37 O4         -1.1344   -1.7683   -0.6567 O.2       1 <0>        -0.4522
     38 H1         -8.2298    4.6706    0.9052 H         1 <0>         0.0635
     39 H2         -9.1269    3.2625    0.2882 H         1 <0>         0.0599
     40 H3         -9.3614    3.8005    1.9686 H         1 <0>         0.0652
     41 H4         -7.1429    2.0802   -0.3564 H         1 <0>         0.1121
     42 H5         -5.4179    0.4136   -0.8888 H         1 <0>         0.1064
     43 H6         -7.2523    3.8591    4.7679 H         1 <0>         0.0636
     44 H7         -8.2656    4.5021    3.4533 H         1 <0>         0.0616
     45 H8         -9.7812    2.5512    3.6675 H         1 <0>         0.0638
     46 H9         -8.7678    1.9083    4.9820 H         1 <0>         0.0767
     47 H10       -10.2271    4.6443    5.1894 H         1 <0>         0.1033
     48 H11        -8.6437    1.7679    7.3189 H         1 <0>         0.0700
     49 H12       -10.2978    1.4970    7.9180 H         1 <0>         0.0557
     50 H13        -9.9020    1.1623    6.2151 H         1 <0>         0.0657
     51 H14       -11.7500    4.0578    7.7194 H         1 <0>         0.0606
     52 H15       -10.2933    3.8692    8.7249 H         1 <0>         0.0610
     53 H16       -10.3811    5.1782    7.5219 H         1 <0>         0.0590
     54 H17        -5.1520    2.5138    4.9630 H         1 <0>         0.3820
     55 H18        -1.1010   -2.7000    1.6796 H         1 <0>         0.0995
     56 H19        -4.5454   -3.0716    0.0087 H         1 <0>         0.0718
     57 H20        -5.3059   -2.0810   -1.2595 H         1 <0>         0.0808
     58 H21        -3.4697   -2.6983   -2.8232 H         1 <0>         0.0769
     59 H22        -2.7466   -3.7176   -1.5558 H         1 <0>         0.0703
     60 H23        -5.6058   -4.2443   -2.6498 H         1 <0>         0.1087
     61 H24        -2.5900   -5.9889   -0.8876 H         1 <0>         0.0659
     62 H25        -2.4175   -6.9221   -2.3935 H         1 <0>         0.0582
     63 H26        -2.0817   -5.1741   -2.3862 H         1 <0>         0.0665
     64 H27        -5.0716   -7.0387   -3.6762 H         1 <0>         0.0620
     65 H28        -4.7753   -7.7081   -2.0537 H         1 <0>         0.0607
     66 H29        -6.1026   -6.5502   -2.3100 H         1 <0>         0.0611
     67 H30        -2.7066   -1.0437   -2.5114 H         1 <0>         0.0687
     68 H31        -4.1447   -0.0647   -2.1353 H         1 <0>         0.0731
     69 H32        -2.7846    1.3519   -0.6214 H         1 <0>         0.0831
     70 H33        -1.3464    0.3728   -0.9974 H         1 <0>         0.0733
     71 H34        -1.5194    1.1632   -3.4540 H         1 <0>         0.1017
     72 H35        -2.5377    3.7650   -0.7370 H         1 <0>         0.0614
     73 H36        -3.8578    4.2223   -1.8400 H         1 <0>         0.0544
     74 H37        -3.8667    2.6246   -1.0554 H         1 <0>         0.0793
     75 H38        -2.9856    3.5711   -4.5813 H         1 <0>         0.0615
     76 H39        -2.0933    4.7211   -3.5568 H         1 <0>         0.0585
     77 H40        -1.2387    3.3565   -4.3156 H         1 <0>         0.0571
     78 H41        -2.7695   -3.2946    1.4449 H         1 <0>         0.1192
@<TRIPOS>BOND
     1    1    2 1
     2    1   38 1
     3    1   39 1
     4    1   40 1
     5    2   11 ar
     6    2    3 ar
     7    3    4 ar
     8    3   41 1
     9    4    9 ar
    10    4    5 ar
    11    5    6 ar
    12    5   42 1
    13    6   24 1
    14    6    7 ar
    15    7    8 ar
    16    7   20 1
    17    8    9 ar
    18    8   19 1
    19    9   10 ar
    20   10   11 ar
    21   10   18 1
    22   11   12 1
    23   12   13 1
    24   12   43 1
    25   12   44 1
    26   13   14 1
    27   13   45 1
    28   13   46 1
    29   14   15 2
    30   14   47 1
    31   15   16 1
    32   15   17 1
    33   16   48 1
    34   16   49 1
    35   16   50 1
    36   17   51 1
    37   17   52 1
    38   17   53 1
    39   18   54 1
    40   20   21 2
    41   20   22 1
    42   22   23 1
    43   22   55 1
    44   22   78 1
    45   23   24 1
    46   23   37 2
    47   24   25 1
    48   24   31 1
    49   25   26 1
    50   25   56 1
    51   25   57 1
    52   26   27 1
    53   26   58 1
    54   26   59 1
    55   27   28 2
    56   27   60 1
    57   28   29 1
    58   28   30 1
    59   29   61 1
    60   29   62 1
    61   29   63 1
    62   30   64 1
    63   30   65 1
    64   30   66 1
    65   31   32 1
    66   31   67 1
    67   31   68 1
    68   32   33 1
    69   32   69 1
    70   32   70 1
    71   33   34 2
    72   33   71 1
    73   34   35 1
    74   34   36 1
    75   35   72 1
    76   35   73 1
    77   35   74 1
    78   36   75 1
    79   36   76 1
    80   36   77 1
@<TRIPOS>MOLECULE
ZINC95485965
   78    80     0     0     0
SMALL
USER_CHARGES

@<TRIPOS>ATOM
      1 C1         -0.5778    0.8141    2.3383 C.3       1 <0>        -0.1145
      2 C2         -0.4548   -0.3449    3.2936 C.ar      1 <0>        -0.0476
      3 C3          0.7367   -1.0591    3.3526 C.ar      1 <0>        -0.2149
      4 C4          0.8760   -2.1243    4.2167 C.ar      1 <0>         0.1794
      5 C5         -0.2036   -2.4892    5.0456 C.ar      1 <0>        -0.1788
      6 C6         -1.4117   -1.7519    4.9809 C.ar      1 <0>         0.0557
      7 C7         -1.5116   -0.6724    4.0898 C.ar      1 <0>        -0.1322
      8 C8         -2.7897    0.1220    4.0095 C.3       1 <0>        -0.0625
      9 C9         -3.6915   -0.4710    2.9250 C.3       1 <0>        -0.0930
     10 C10        -4.9192    0.3885    2.7671 C.2       1 <0>        -0.1497
     11 C11        -5.2260    0.8831    1.5935 C.2       1 <0>        -0.1475
     12 C12        -4.2873    0.6982    0.4291 C.3       1 <0>        -0.1194
     13 C13        -6.5176    1.6370    1.4077 C.3       1 <0>        -0.1133
     14 C14        -2.4896   -2.1060    5.8140 C.ar      1 <0>        -0.2671
     15 C15        -2.3883   -3.1528    6.6775 C.ar      1 <0>         0.0618
     16 C16        -1.2008   -3.9062    6.7424 C.ar      1 <0>        -0.3801
     17 C17        -0.1055   -3.5732    5.9349 C.ar      1 <0>         0.3430
     18 O1          1.0399   -4.2905    6.0109 O.3       1 <0>        -0.6154
     19 C18        -1.0796   -5.0623    7.6393 C.2       1 <0>         0.4048
     20 O2         -0.1719   -5.8567    7.5064 O.2       1 <0>        -0.4559
     21 C19        -2.1101   -5.2426    8.7334 C.3       1 <0>        -0.2194
     22 C20        -3.4480   -4.8495    8.1365 C.2       1 <0>         0.3897
     23 C21        -3.5767   -3.4648    7.5523 C.3       1 <0>        -0.0655
     24 C22        -3.6526   -2.4414    8.6871 C.3       1 <0>        -0.0888
     25 C23        -4.7782   -2.8285    9.6484 C.3       1 <0>        -0.1035
     26 C24        -4.9193   -1.7679   10.7097 C.2       1 <0>        -0.1558
     27 C25        -4.8909   -2.1010   11.9764 C.2       1 <0>        -0.1414
     28 C26        -4.8493   -3.5544   12.3726 C.3       1 <0>        -0.1207
     29 C27        -4.9000   -1.0307   13.0373 C.3       1 <0>        -0.1146
     30 C28        -4.8557   -3.3845    6.7165 C.3       1 <0>        -0.0881
     31 C29        -4.8159   -4.4505    5.6197 C.3       1 <0>        -0.1048
     32 C30        -6.1243   -4.4510    4.8719 C.2       1 <0>        -0.1509
     33 C31        -6.1322   -4.3518    3.5657 C.2       1 <0>        -0.1417
     34 C32        -4.8321   -4.3259    2.8041 C.3       1 <0>        -0.1168
     35 C33        -7.4415   -4.2635    2.8247 C.3       1 <0>        -0.1112
     36 O3         -4.3785   -5.6192    8.1289 O.2       1 <0>        -0.4512
     37 O4          2.0426   -2.8158    4.2682 O.3       1 <0>        -0.4777
     38 H1         -0.2570    1.7298    2.8348 H         1 <0>         0.0637
     39 H2          0.0508    0.6343    1.4662 H         1 <0>         0.0587
     40 H3         -1.6161    0.9163    2.0229 H         1 <0>         0.0669
     41 H4          1.5613   -0.7767    2.7148 H         1 <0>         0.1125
     42 H5         -3.3030    0.0827    4.9703 H         1 <0>         0.0698
     43 H6         -2.5585    1.1583    3.7632 H         1 <0>         0.0625
     44 H7         -3.1487   -0.5063    1.9804 H         1 <0>         0.0712
     45 H8         -3.9886   -1.4800    3.2111 H         1 <0>         0.0775
     46 H9         -5.5461    0.5968    3.6215 H         1 <0>         0.1049
     47 H10        -4.4685   -0.2723   -0.0331 H         1 <0>         0.0630
     48 H11        -4.4575    1.4870   -0.3037 H         1 <0>         0.0558
     49 H12        -3.2571    0.7460    0.7818 H         1 <0>         0.0689
     50 H13        -6.3524    2.6956    1.6079 H         1 <0>         0.0609
     51 H14        -6.8676    1.5112    0.3831 H         1 <0>         0.0586
     52 H15        -7.2670    1.2494    2.0978 H         1 <0>         0.0591
     53 H16        -3.4080   -1.5397    5.7676 H         1 <0>         0.1111
     54 H17        -2.1358   -6.2840    9.0541 H         1 <0>         0.0994
     55 H18        -2.7049   -2.4247    9.2253 H         1 <0>         0.0726
     56 H19        -3.8525   -1.4533    8.2726 H         1 <0>         0.0800
     57 H20        -5.7137   -2.9163    9.0960 H         1 <0>         0.0765
     58 H21        -4.5426   -3.7834   10.1181 H         1 <0>         0.0694
     59 H22        -5.0438   -0.7333   10.4261 H         1 <0>         0.1087
     60 H23        -3.8191   -3.9094   12.3439 H         1 <0>         0.0660
     61 H24        -5.2445   -3.6672   13.3821 H         1 <0>         0.0584
     62 H25        -5.4541   -4.1377   11.6783 H         1 <0>         0.0660
     63 H26        -5.9294   -0.7976   13.3095 H         1 <0>         0.0618
     64 H27        -4.3632   -1.3864   13.9168 H         1 <0>         0.0609
     65 H28        -4.4138   -0.1340   12.6529 H         1 <0>         0.0611
     66 H29        -5.7202   -3.5554    7.3580 H         1 <0>         0.0673
     67 H30        -4.9307   -2.3972    6.2610 H         1 <0>         0.0737
     68 H31        -4.0024   -4.2304    4.9284 H         1 <0>         0.0788
     69 H32        -4.6547   -5.4298    6.0705 H         1 <0>         0.0761
     70 H33        -7.0554   -4.5330    5.4129 H         1 <0>         0.1017
     71 H34        -4.2617   -5.2273    3.0283 H         1 <0>         0.0631
     72 H35        -5.0383   -4.2830    1.7347 H         1 <0>         0.0528
     73 H36        -4.2559   -3.4487    3.0985 H         1 <0>         0.0720
     74 H37        -7.7320   -3.2179    2.7236 H         1 <0>         0.0626
     75 H38        -7.3295   -4.7068    1.8352 H         1 <0>         0.0568
     76 H39        -8.2099   -4.8022    3.3792 H         1 <0>         0.0564
     77 H40         2.6774   -2.4690    4.9099 H         1 <0>         0.3836
     78 H41        -1.8740   -4.5962    9.5787 H         1 <0>         0.1189
@<TRIPOS>BOND
     1    1    2 1
     2    1   38 1
     3    1   39 1
     4    1   40 1
     5    2    7 ar
     6    2    3 ar
     7    3    4 ar
     8    3   41 1
     9    4    5 ar
    10    4   37 1
    11    5   17 ar
    12    5    6 ar
    13    6    7 ar
    14    6   14 ar
    15    7    8 1
    16    8    9 1
    17    8   42 1
    18    8   43 1
    19    9   10 1
    20    9   44 1
    21    9   45 1
    22   10   11 2
    23   10   46 1
    24   11   12 1
    25   11   13 1
    26   12   47 1
    27   12   48 1
    28   12   49 1
    29   13   50 1
    30   13   51 1
    31   13   52 1
    32   14   15 ar
    33   14   53 1
    34   15   23 1
    35   15   16 ar
    36   16   17 ar
    37   16   19 1
    38   17   18 1
    39   19   20 2
    40   19   21 1
    41   21   22 1
    42   21   54 1
    43   21   78 1
    44   22   23 1
    45   22   36 2
    46   23   24 1
    47   23   30 1
    48   24   25 1
    49   24   55 1
    50   24   56 1
    51   25   26 1
    52   25   57 1
    53   25   58 1
    54   26   27 2
    55   26   59 1
    56   27   28 1
    57   27   29 1
    58   28   60 1
    59   28   61 1
    60   28   62 1
    61   29   63 1
    62   29   64 1
    63   29   65 1
    64   30   31 1
    65   30   66 1
    66   30   67 1
    67   31   32 1
    68   31   68 1
    69   31   69 1
    70   32   33 2
    71   32   70 1
    72   33   34 1
    73   33   35 1
    74   34   71 1
    75   34   72 1
    76   34   73 1
    77   35   74 1
    78   35   75 1
    79   35   76 1
    80   37   77 1
@<TRIPOS>MOLECULE
ZINC95485966
   78    80     0     0     0
SMALL
USER_CHARGES

@<TRIPOS>ATOM
      1 C1          3.5047    1.0013    0.7618 C.3       1 <0>        -0.1172
      2 C2          2.8275   -0.3229    0.5190 C.ar      1 <0>        -0.0416
      3 C3          1.9488   -0.4469   -0.5162 C.ar      1 <0>        -0.1307
      4 C4          1.3131   -1.6745   -0.7543 C.ar      1 <0>         0.0527
      5 C5          0.4101   -1.8278   -1.8238 C.ar      1 <0>        -0.2681
      6 C6         -0.2038   -3.0202   -2.0517 C.ar      1 <0>         0.0503
      7 C7          0.0444   -4.1190   -1.2064 C.ar      1 <0>        -0.3817
      8 C8          0.9440   -4.0028   -0.1392 C.ar      1 <0>         0.3431
      9 C9          1.5889   -2.7754    0.0938 C.ar      1 <0>        -0.1760
     10 C10         2.5026   -2.6205    1.1548 C.ar      1 <0>         0.1843
     11 C11         3.1133   -1.3995    1.3504 C.ar      1 <0>        -0.1782
     12 C12         4.0960   -1.2293    2.4802 C.3       1 <0>        -0.0525
     13 C13         3.3525   -0.7800    3.7396 C.3       1 <0>        -0.0924
     14 C14         4.3352   -0.6098    4.8693 C.2       1 <0>        -0.1577
     15 C15         4.1092   -1.1820    6.0259 C.2       1 <0>        -0.1410
     16 C16         2.7909   -1.8652    6.2837 C.3       1 <0>        -0.1299
     17 C17         5.1674   -1.1569    7.0986 C.3       1 <0>        -0.1138
     18 O1          2.7834   -3.6653    1.9742 O.3       1 <0>        -0.4716
     19 O2          1.1902   -5.0649    0.6629 O.3       1 <0>        -0.6143
     20 C18        -0.6359   -5.4042   -1.4081 C.2       1 <0>         0.4050
     21 O3         -0.6321   -6.2502   -0.5380 O.2       1 <0>        -0.4558
     22 C19        -1.3426   -5.6521   -2.7235 C.3       1 <0>        -0.2170
     23 C20        -2.0076   -4.3449   -3.1106 C.2       1 <0>         0.3857
     24 C21        -1.1341   -3.1216   -3.2345 C.3       1 <0>        -0.0966
     25 H1         -1.7627   -2.2321   -3.2763 H         1 <0>         0.0998
     26 C22        -0.3101   -3.2157   -4.5202 C.3       1 <0>        -0.0924
     27 C23        -1.2473   -3.1931   -5.7294 C.3       1 <0>        -0.1026
     28 C24        -0.4357   -3.2859   -6.9958 C.2       1 <0>        -0.1543
     29 C25        -0.6058   -2.4034   -7.9489 C.2       1 <0>        -0.1420
     30 C26        -1.6235   -1.3041   -7.7850 C.3       1 <0>        -0.1202
     31 C27         0.2161   -2.4876   -9.2092 C.3       1 <0>        -0.1144
     32 O4         -3.1967   -4.2857   -3.3129 O.2       1 <0>        -0.4610
     33 C28         1.6599    0.7356   -1.4046 C.3       1 <0>        -0.0631
     34 C29         2.6271    0.7312   -2.5900 C.3       1 <0>        -0.0905
     35 C30         2.3383    1.9137   -3.4784 C.2       1 <0>        -0.1518
     36 C31         3.2397    2.8513   -3.6346 C.2       1 <0>        -0.1470
     37 C32         4.5790    2.7297   -2.9546 C.3       1 <0>        -0.1199
     38 C33         2.9374    4.0515   -4.4944 C.3       1 <0>        -0.1138
     39 H2          4.4452    1.0347    0.2117 H         1 <0>         0.0629
     40 H3          2.8562    1.8088    0.4220 H         1 <0>         0.0661
     41 H4          3.7027    1.1182    1.8273 H         1 <0>         0.0638
     42 H5          0.2021   -0.9884   -2.4708 H         1 <0>         0.1079
     43 H6          4.5962   -2.1785    2.6727 H         1 <0>         0.0637
     44 H7          4.8364   -0.4772    2.2075 H         1 <0>         0.0613
     45 H8          2.8523    0.1692    3.5470 H         1 <0>         0.0648
     46 H9          2.6121   -1.5321    4.0122 H         1 <0>         0.0820
     47 H10         5.2259   -0.0162    4.7254 H         1 <0>         0.1037
     48 H11         2.1965   -1.8646    5.3700 H         1 <0>         0.0777
     49 H12         2.9700   -2.8928    6.6000 H         1 <0>         0.0606
     50 H13         2.2527   -1.3323    7.0676 H         1 <0>         0.0611
     51 H14         5.0362   -0.2695    7.7177 H         1 <0>         0.0601
     52 H15         5.0775   -2.0490    7.7185 H         1 <0>         0.0606
     53 H16         6.1538   -1.1343    6.6354 H         1 <0>         0.0592
     54 H17         3.5259   -4.2092    1.6776 H         1 <0>         0.3809
     55 H18        -0.6205   -5.9438   -3.4861 H         1 <0>         0.1205
     56 H19         0.3749   -2.3697   -4.5756 H         1 <0>         0.0818
     57 H20         0.2596   -4.1450   -4.5194 H         1 <0>         0.0714
     58 H21        -1.9323   -4.0392   -5.6740 H         1 <0>         0.0685
     59 H22        -1.8170   -2.2639   -5.7302 H         1 <0>         0.0759
     60 H23         0.2862   -4.0799   -7.1176 H         1 <0>         0.1084
     61 H24        -1.1802   -0.4786   -7.2281 H         1 <0>         0.0664
     62 H25        -1.9392   -0.9518   -8.7670 H         1 <0>         0.0570
     63 H26        -2.4873   -1.6867   -7.2413 H         1 <0>         0.0675
     64 H27         0.8920   -3.3404   -9.1459 H         1 <0>         0.0591
     65 H28        -0.4453   -2.6110  -10.0667 H         1 <0>         0.0610
     66 H29         0.7961   -1.5722   -9.3265 H         1 <0>         0.0628
     67 H30        -2.0933   -6.4332   -2.6027 H         1 <0>         0.0999
     68 H31         0.6354    0.6728   -1.7713 H         1 <0>         0.0688
     69 H32         1.7864    1.6568   -0.8358 H         1 <0>         0.0658
     70 H33         3.6517    0.7940   -2.2233 H         1 <0>         0.0706
     71 H34         2.5006   -0.1900   -3.1588 H         1 <0>         0.0734
     72 H35         1.3881    1.9882   -3.9863 H         1 <0>         0.1052
     73 H36         5.2426    2.1179   -3.5657 H         1 <0>         0.0631
     74 H37         5.0134    3.7213   -2.8276 H         1 <0>         0.0554
     75 H38         4.4498    2.2620   -1.9786 H         1 <0>         0.0703
     76 H39         2.4927    4.8351   -3.8810 H         1 <0>         0.0626
     77 H40         3.8607    4.4201   -4.9414 H         1 <0>         0.0577
     78 H41         2.2402    3.7675   -5.2826 H         1 <0>         0.0589
@<TRIPOS>BOND
     1    1    2 1
     2    1   39 1
     3    1   40 1
     4    1   41 1
     5    2   11 ar
     6    2    3 ar
     7    3    4 ar
     8    3   33 1
     9    4    9 ar
    10    4    5 ar
    11    5    6 ar
    12    5   42 1
    13    6    7 ar
    14    6   24 1
    15    7    8 ar
    16    7   20 1
    17    8    9 ar
    18    8   19 1
    19    9   10 ar
    20   10   11 ar
    21   10   18 1
    22   11   12 1
    23   12   13 1
    24   12   43 1
    25   12   44 1
    26   13   14 1
    27   13   45 1
    28   13   46 1
    29   14   15 2
    30   14   47 1
    31   15   16 1
    32   15   17 1
    33   16   48 1
    34   16   49 1
    35   16   50 1
    36   17   51 1
    37   17   52 1
    38   17   53 1
    39   18   54 1
    40   20   21 2
    41   20   22 1
    42   22   55 1
    43   22   67 1
    44   22   23 1
    45   23   24 1
    46   23   32 2
    47   24   26 1
    48   24   25 1
    49   26   27 1
    50   26   56 1
    51   26   57 1
    52   27   28 1
    53   27   58 1
    54   27   59 1
    55   28   29 2
    56   28   60 1
    57   29   30 1
    58   29   31 1
    59   30   61 1
    60   30   62 1
    61   30   63 1
    62   31   64 1
    63   31   65 1
    64   31   66 1
    65   33   34 1
    66   33   68 1
    67   33   69 1
    68   34   35 1
    69   34   70 1
    70   34   71 1
    71   35   36 2
    72   35   72 1
    73   36   37 1
    74   36   38 1
    75   37   73 1
    76   37   74 1
    77   37   75 1
    78   38   76 1
    79   38   77 1
    80   38   78 1
@<TRIPOS>MOLECULE
ZINC95485967
   62    64     0     0     0
SMALL
USER_CHARGES

@<TRIPOS>ATOM
      1 C1          2.7490    1.4606    0.5850 C.3       1 <0>        -0.1141
      2 C2          1.7718    0.3259    0.4159 C.ar      1 <0>        -0.0475
      3 C3          1.4033   -0.0742   -0.8637 C.ar      1 <0>        -0.2142
      4 C4          0.5125   -1.1104   -1.0471 C.ar      1 <0>         0.1798
      5 C5         -0.0261   -1.7676    0.0770 C.ar      1 <0>        -0.1789
      6 C6          0.3532   -1.3495    1.3765 C.ar      1 <0>         0.0550
      7 C7          1.2680   -0.2951    1.5198 C.ar      1 <0>        -0.1331
      8 C8          1.6898    0.1543    2.8951 C.3       1 <0>        -0.0627
      9 C9          0.7381    1.2455    3.3893 C.3       1 <0>        -0.0917
     10 C10         1.1599    1.6949    4.7645 C.2       1 <0>        -0.1522
     11 C11         1.4895    2.9456    4.9725 C.2       1 <0>        -0.1474
     12 C12         1.5792    3.9040    3.8130 C.3       1 <0>        -0.1195
     13 C13         1.7790    3.4259    6.3712 C.3       1 <0>        -0.1140
     14 C14        -0.1887   -1.9969    2.5027 C.ar      1 <0>        -0.2694
     15 C15        -1.0717   -3.0223    2.3593 C.ar      1 <0>         0.0515
     16 C16        -1.4456   -3.4618    1.0751 C.ar      1 <0>        -0.3810
     17 C17        -0.9318   -2.8329   -0.0665 C.ar      1 <0>         0.3429
     18 O1         -1.3051   -3.2484   -1.2994 O.3       1 <0>        -0.6149
     19 C18        -2.3661   -4.5912    0.8942 C.2       1 <0>         0.4059
     20 O2         -2.4750   -5.1345   -0.1854 O.2       1 <0>        -0.4559
     21 C19        -3.1761   -5.0643    2.0823 C.3       1 <0>        -0.2172
     22 C20        -2.2611   -4.9845    3.2895 C.2       1 <0>         0.3861
     23 C21        -1.6353   -3.6498    3.6096 C.3       1 <0>        -0.0969
     24 H1         -0.8340   -3.7917    4.3348 H         1 <0>         0.1009
     25 C22        -2.6962   -2.7234    4.2072 C.3       1 <0>        -0.0927
     26 C23        -3.1808   -3.2963    5.5406 C.3       1 <0>        -0.1044
     27 C24        -4.2258   -2.3838    6.1293 C.2       1 <0>        -0.1555
     28 C25        -5.3852   -2.8684    6.4992 C.2       1 <0>        -0.1417
     29 C26        -5.6034   -4.3592    6.5305 C.3       1 <0>        -0.1283
     30 C27        -6.5008   -1.9352    6.8935 C.3       1 <0>        -0.1144
     31 O3         -2.0414   -5.9565    3.9715 O.2       1 <0>        -0.4610
     32 O4          0.1571   -1.4938   -2.2995 O.3       1 <0>        -0.4781
     33 H2          3.7647    1.0654    0.6056 H         1 <0>         0.0642
     34 H3          2.6464    2.1557   -0.2483 H         1 <0>         0.0594
     35 H4          2.5428    1.9814    1.5201 H         1 <0>         0.0664
     36 H5          1.8186    0.4321   -1.7225 H         1 <0>         0.1136
     37 H6          1.6579   -0.6931    3.5799 H         1 <0>         0.0704
     38 H7          2.7049    0.5493    2.8528 H         1 <0>         0.0635
     39 H8          0.7700    2.0929    2.7044 H         1 <0>         0.0706
     40 H9         -0.2770    0.8505    3.4315 H         1 <0>         0.0761
     41 H10         1.1904    0.9858    5.5786 H         1 <0>         0.1061
     42 H11         0.5892    4.3050    3.5957 H         1 <0>         0.0632
     43 H12         2.2541    4.7209    4.0683 H         1 <0>         0.0566
     44 H13         1.9591    3.3793    2.9364 H         1 <0>         0.0688
     45 H14         2.8403    3.3007    6.5860 H         1 <0>         0.0615
     46 H15         1.5130    4.4795    6.4560 H         1 <0>         0.0591
     47 H16         1.1932    2.8448    7.0835 H         1 <0>         0.0595
     48 H17         0.1001   -1.6762    3.4927 H         1 <0>         0.1091
     49 H18        -4.0411   -4.4168    2.2260 H         1 <0>         0.1208
     50 H19        -2.2652   -1.7358    4.3713 H         1 <0>         0.0819
     51 H20        -3.5376   -2.6429    3.5190 H         1 <0>         0.0720
     52 H21        -3.6118   -4.2840    5.3765 H         1 <0>         0.0744
     53 H22        -2.3394   -3.3768    6.2288 H         1 <0>         0.0722
     54 H23        -4.0187   -1.3303    6.2462 H         1 <0>         0.1093
     55 H24        -4.6641   -4.8685    6.3153 H         1 <0>         0.0722
     56 H25        -5.9585   -4.6538    7.5181 H         1 <0>         0.0626
     57 H26        -6.3456   -4.6336    5.7808 H         1 <0>         0.0623
     58 H27        -7.0922   -1.6834    6.0131 H         1 <0>         0.0661
     59 H28        -7.1378   -2.4219    7.6320 H         1 <0>         0.0576
     60 H29        -6.0794   -1.0251    7.3205 H         1 <0>         0.0600
     61 H30        -3.5018   -6.0927    1.9263 H         1 <0>         0.1003
     62 H31         0.7252   -2.1792   -2.6771 H         1 <0>         0.3847
@<TRIPOS>BOND
     1    1    2 1
     2    1   33 1
     3    1   34 1
     4    1   35 1
     5    2    7 ar
     6    2    3 ar
     7    3    4 ar
     8    3   36 1
     9    4    5 ar
    10    4   32 1
    11    5   17 ar
    12    5    6 ar
    13    6    7 ar
    14    6   14 ar
    15    7    8 1
    16    8    9 1
    17    8   37 1
    18    8   38 1
    19    9   10 1
    20    9   39 1
    21    9   40 1
    22   10   11 2
    23   10   41 1
    24   11   12 1
    25   11   13 1
    26   12   42 1
    27   12   43 1
    28   12   44 1
    29   13   45 1
    30   13   46 1
    31   13   47 1
    32   14   15 ar
    33   14   48 1
    34   15   16 ar
    35   15   23 1
    36   16   17 ar
    37   16   19 1
    38   17   18 1
    39   19   20 2
    40   19   21 1
    41   21   49 1
    42   21   61 1
    43   21   22 1
    44   22   23 1
    45   22   31 2
    46   23   25 1
    47   23   24 1
    48   25   26 1
    49   25   50 1
    50   25   51 1
    51   26   27 1
    52   26   52 1
    53   26   53 1
    54   27   28 2
    55   27   54 1
    56   28   29 1
    57   28   30 1
    58   29   55 1
    59   29   56 1
    60   29   57 1
    61   30   58 1
    62   30   59 1
    63   30   60 1
    64   32   62 1
@<TRIPOS>MOLECULE
ZINC95485968
  102   105     0     0     0
SMALL
USER_CHARGES

@<TRIPOS>ATOM
      1 C1          0.2164   -4.3960    1.1135 C.3       1 <0>        -0.1244
      2 C2         -1.1335   -4.9873    0.7987 C.2       1 <0>        -0.1335
      3 C3         -2.1680   -4.6931    1.5465 C.2       1 <0>        -0.1638
      4 C4         -1.9855   -3.8673    2.7939 C.3       1 <0>        -0.0991
      5 C5         -2.6244   -4.5897    3.9817 C.3       1 <0>        -0.1045
      6 C6         -2.3268   -3.8172    5.2684 C.3       1 <0>        -0.0999
      7 H1         -1.2498   -3.6800    5.3656 H         1 <0>         0.0880
      8 C7         -3.0076   -2.4485    5.2058 C.3       1 <0>        -0.1041
      9 C8         -2.6582   -1.6573    6.4736 C.3       1 <0>        -0.0959
     10 C9         -3.3644   -0.3187    6.4773 C.3       1 <0>        -0.1117
     11 C10        -2.5816    0.7766    5.7754 C.3       1 <0>        -0.1088
     12 H2         -3.0430    1.7403    5.9911 H         1 <0>         0.0943
     13 C11        -1.1291    0.8009    6.2439 C.3       1 <0>         0.1151
     14 O1         -0.5415   -0.4800    5.9935 O.3       1 <0>        -0.2790
     15 C12        -1.1620   -1.5266    6.5665 C.2       1 <0>         0.2028
     16 C13        -0.4088   -2.4805    7.2154 C.2       1 <0>        -0.2899
     17 C14        -1.0066   -3.6624    7.8265 C.2       1 <0>         0.4257
     18 O2         -0.3036   -4.4799    8.3840 O.2       1 <0>        -0.4150
     19 C15        -2.5047   -3.8675    7.7648 C.3       1 <0>        -0.1317
     20 C16        -3.1293   -2.4823    7.6622 C.2       1 <0>         0.3871
     21 O3         -3.9353   -2.0706    8.4617 O.2       1 <0>        -0.4133
     22 C17        -2.8452   -4.6121    6.4666 C.3       1 <0>        -0.0324
     23 C18        -4.3620   -4.7762    6.3513 C.3       1 <0>        -0.1495
     24 C19        -2.1843   -5.9919    6.4870 C.3       1 <0>        -0.1511
     25 C20        -3.0121   -4.6135    9.0004 C.3       1 <0>        -0.0825
     26 C21        -2.6815   -3.8044   10.2562 C.3       1 <0>        -0.1155
     27 C22        -3.1812   -4.5393   11.4733 C.2       1 <0>        -0.1520
     28 C23        -3.9515   -3.9267   12.3379 C.2       1 <0>        -0.1388
     29 C24        -4.2381   -2.4555   12.1818 C.3       1 <0>        -0.1167
     30 C25        -4.5509   -4.6933   13.4886 C.3       1 <0>        -0.1139
     31 C26         1.0491   -2.3011    7.2943 C.2       1 <0>         0.4710
     32 O4          1.7261   -2.3713    6.2857 O.2       1 <0>        -0.4829
     33 C27         1.6907   -2.0358    8.5970 C.ar      1 <0>        -0.2897
     34 C28         0.9073   -1.8623    9.7411 C.ar      1 <0>        -0.0129
     35 C29         1.5076   -1.6148   10.9562 C.ar      1 <0>        -0.2684
     36 C30         2.8910   -1.5372   11.0476 C.ar      1 <0>         0.2831
     37 C31         3.6787   -1.7094    9.9102 C.ar      1 <0>        -0.0666
     38 C32         3.0834   -1.9635    8.6900 C.ar      1 <0>        -0.0292
     39 O5          5.0333   -1.6319   10.0030 O.3       1 <0>        -0.4891
     40 O6          3.4780   -1.2926   12.2475 O.3       1 <0>        -0.6962
     41 C33        -0.3601    1.8770    5.4746 C.3       1 <0>        -0.1419
     42 C34        -1.0788    1.1038    7.7428 C.3       1 <0>        -0.1820
     43 C35        -2.6167    0.5301    4.2658 C.3       1 <0>        -0.1202
     44 C36        -4.0617    0.6108    3.7694 C.3       1 <0>        -0.0955
     45 C37        -4.0852    0.4807    2.2682 C.2       1 <0>        -0.1610
     46 C38        -4.7019    1.3800    1.5423 C.2       1 <0>        -0.1371
     47 C39        -5.5037    2.4670    2.2106 C.3       1 <0>        -0.1197
     48 C40        -4.6095    1.3276    0.0391 C.3       1 <0>        -0.1172
     49 C41        -1.2933   -5.9172   -0.3764 C.3       1 <0>        -0.1162
     50 H3          0.7730   -5.0811    1.7529 H         1 <0>         0.0670
     51 H4          0.7676   -4.2350    0.1869 H         1 <0>         0.0599
     52 H5          0.0851   -3.4442    1.6282 H         1 <0>         0.0697
     53 H6         -3.1516   -5.0423    1.2692 H         1 <0>         0.1051
     54 H7         -0.9215   -3.7263    2.9839 H         1 <0>         0.0769
     55 H8         -2.4625   -2.8964    2.6598 H         1 <0>         0.0683
     56 H9         -3.7028   -4.6481    3.8342 H         1 <0>         0.0668
     57 H10        -2.2132   -5.5962    4.0588 H         1 <0>         0.0733
     58 H11        -2.6553   -1.9058    4.3286 H         1 <0>         0.0980
     59 H12        -4.0878   -2.5810    5.1448 H         1 <0>         0.0855
     60 H13        -4.3291   -0.4310    5.9824 H         1 <0>         0.0874
     61 H14        -3.5375   -0.0176    7.5105 H         1 <0>         0.0843
     62 H15        -4.6010   -5.3088    5.4308 H         1 <0>         0.0700
     63 H16        -4.7322   -5.3430    7.2056 H         1 <0>         0.0654
     64 H17        -4.8336   -3.7936    6.3354 H         1 <0>         0.0558
     65 H18        -1.1035   -5.8759    6.5679 H         1 <0>         0.0642
     66 H19        -2.5538   -6.5591    7.3413 H         1 <0>         0.0654
     67 H20        -2.4248   -6.5236    5.5664 H         1 <0>         0.0675
     68 H21        -4.0916   -4.7458    8.9272 H         1 <0>         0.0778
     69 H22        -2.5297   -5.5892    9.0593 H         1 <0>         0.0838
     70 H23        -1.6020   -3.6722   10.3294 H         1 <0>         0.0736
     71 H24        -3.1639   -2.8288   10.1973 H         1 <0>         0.0890
     72 H25        -2.9043   -5.5710   11.6327 H         1 <0>         0.1066
     73 H26        -5.0777   -2.3192   11.5002 H         1 <0>         0.0655
     74 H27        -4.4861   -2.0286   13.1536 H         1 <0>         0.0572
     75 H28        -3.3579   -1.9546   11.7788 H         1 <0>         0.0655
     76 H29        -3.8734   -4.6569   14.3416 H         1 <0>         0.0637
     77 H30        -5.5064   -4.2468   13.7641 H         1 <0>         0.0597
     78 H31        -4.7066   -5.7306   13.1923 H         1 <0>         0.0591
     79 H32        -0.1689   -1.9217    9.6727 H         1 <0>         0.0877
     80 H33         0.9009   -1.4805   11.8395 H         1 <0>         0.1024
     81 H34         3.6926   -2.1012    7.8088 H         1 <0>         0.1093
     82 H35         5.4639   -2.4777   10.1882 H         1 <0>         0.3559
     83 H36        -0.8161    2.8500    5.6572 H         1 <0>         0.0786
     84 H37         0.6767    1.8928    5.8105 H         1 <0>         0.0727
     85 H38        -0.3932    1.6546    4.4080 H         1 <0>         0.0718
     86 H39        -1.6225    0.3321    8.2878 H         1 <0>         0.0612
     87 H40        -0.0410    1.1208    8.0755 H         1 <0>         0.0785
     88 H41        -1.5372    2.0743    7.9330 H         1 <0>         0.0762
     89 H42        -2.0161    1.2861    3.7601 H         1 <0>         0.0736
     90 H43        -2.2130   -0.4590    4.0497 H         1 <0>         0.0761
     91 H44        -4.6440   -0.1967    4.2133 H         1 <0>         0.0704
     92 H45        -4.4919    1.5700    4.0577 H         1 <0>         0.0720
     93 H46        -3.5935   -0.3541    1.7908 H         1 <0>         0.1075
     94 H47        -4.8472    3.2996    2.4634 H         1 <0>         0.0651
     95 H48        -6.2837    2.8125    1.5321 H         1 <0>         0.0591
     96 H49        -5.9602    2.0753    3.1196 H         1 <0>         0.0655
     97 H50        -5.3672    0.6463   -0.3479 H         1 <0>         0.0631
     98 H51        -4.7742    2.3244   -0.3700 H         1 <0>         0.0607
     99 H52        -3.6204    0.9742   -0.2520 H         1 <0>         0.0621
    100 H53        -1.1217   -6.9439   -0.0533 H         1 <0>         0.0653
    101 H54        -2.3029   -5.8263   -0.7770 H         1 <0>         0.0592
    102 H55        -0.5709   -5.6539   -1.1490 H         1 <0>         0.0595
@<TRIPOS>BOND
     1    1    2 1
     2    1   50 1
     3    1   51 1
     4    1   52 1
     5    2    3 2
     6    2   49 1
     7    3    4 1
     8    3   53 1
     9    4    5 1
    10    4   54 1
    11    4   55 1
    12    5    6 1
    13    5   56 1
    14    5   57 1
    15    6    7 1
    16    6   22 1
    17    6    8 1
    18    8    9 1
    19    8   58 1
    20    8   59 1
    21    9   15 1
    22    9   20 1
    23    9   10 1
    24   10   11 1
    25   10   60 1
    26   10   61 1
    27   11   12 1
    28   11   13 1
    29   11   43 1
    30   13   14 1
    31   13   41 1
    32   13   42 1
    33   14   15 1
    34   15   16 2
    35   16   17 1
    36   16   31 1
    37   17   18 2
    38   17   19 1
    39   19   20 1
    40   19   22 1
    41   19   25 1
    42   20   21 2
    43   22   23 1
    44   22   24 1
    45   23   62 1
    46   23   63 1
    47   23   64 1
    48   24   65 1
    49   24   66 1
    50   24   67 1
    51   25   26 1
    52   25   68 1
    53   25   69 1
    54   26   27 1
    55   26   70 1
    56   26   71 1
    57   27   28 2
    58   27   72 1
    59   28   29 1
    60   28   30 1
    61   29   73 1
    62   29   74 1
    63   29   75 1
    64   30   76 1
    65   30   77 1
    66   30   78 1
    67   31   32 2
    68   31   33 1
    69   33   38 ar
    70   33   34 ar
    71   34   35 ar
    72   34   79 1
    73   35   36 ar
    74   35   80 1
    75   36   37 ar
    76   36   40 1
    77   37   38 ar
    78   37   39 1
    79   38   81 1
    80   39   82 1
    81   41   83 1
    82   41   84 1
    83   41   85 1
    84   42   86 1
    85   42   87 1
    86   42   88 1
    87   43   44 1
    88   43   89 1
    89   43   90 1
    90   44   45 1
    91   44   91 1
    92   44   92 1
    93   45   46 2
    94   45   93 1
    95   46   47 1
    96   46   48 1
    97   47   94 1
    98   47   95 1
    99   47   96 1
   100   48   97 1
   101   48   98 1
   102   48   99 1
   103   49  100 1
   104   49  101 1
   105   49  102 1
@<TRIPOS>MOLECULE
ZINC95486017
   65    68     0     0     0
SMALL
USER_CHARGES

@<TRIPOS>ATOM
      1 C1         -0.0184    1.5028    0.0103 C.3       1 <0>        -0.1178
      2 C2          0.0021   -0.0041    0.0020 C.ar      1 <0>        -0.0261
      3 C3          0.0054   -0.6685   -1.1877 C.ar      1 <0>        -0.1561
      4 C4          0.0244   -2.0705   -1.2066 C.ar      1 <0>         0.0464
      5 C5          0.0400   -2.7846    0.0151 C.ar      1 <0>        -0.1032
      6 C6          0.0356   -2.0728    1.2308 C.ar      1 <0>         0.1713
      7 C7          0.0229   -0.6956    1.2092 C.ar      1 <0>        -0.2403
      8 O1          0.0498   -2.7388    2.4141 O.3       1 <0>        -0.2908
      9 C8          0.0442   -1.9475    3.6040 C.3       1 <0>         0.0241
     10 C9          0.0600   -4.1935   -0.0037 C.ar      1 <0>         0.1728
     11 C10         0.0642   -4.8635   -1.2076 C.ar      1 <0>        -0.2373
     12 C11         0.0491   -4.1690   -2.4107 C.ar      1 <0>        -0.0082
     13 C12         0.0288   -2.7854   -2.4290 C.ar      1 <0>        -0.0717
     14 C13         0.0123   -2.0573   -3.7180 C.ar      1 <0>        -0.1018
     15 C14        -1.2071   -1.7265   -4.3167 C.ar      1 <0>         0.1823
     16 C15        -1.2152   -1.0466   -5.5220 C.ar      1 <0>        -0.3027
     17 C16        -0.0182   -0.7006   -6.1276 C.ar      1 <0>         0.1782
     18 C17         1.1992   -1.0294   -5.5339 C.ar      1 <0>        -0.1791
     19 C18         1.2164   -1.6969   -4.3312 C.ar      1 <0>         0.0135
     20 C19         2.5081   -2.0576   -3.6435 C.3       1 <0>        -0.1113
     21 C20         3.6706   -1.9621   -4.6317 C.3       1 <0>         0.0781
     22 H1          3.5904   -2.7601   -5.3699 H         1 <0>         0.0873
     23 N1          3.6036   -0.6559   -5.3064 N.3       1 <0>        -0.6701
     24 C21         2.4692   -0.6325   -6.2405 C.3       1 <0>         0.1403
     25 H2          2.3606    0.3778   -6.6350 H         1 <0>         0.0901
     26 C22         2.7271   -1.6004   -7.3970 C.3       1 <0>        -0.1355
     27 C23         4.9968   -2.0893   -3.8793 C.3       1 <0>        -0.1420
     28 O2         -0.0311   -0.0346   -7.3120 O.3       1 <0>        -0.3075
     29 C24        -1.3104    0.2730   -7.8694 C.3       1 <0>         0.0257
     30 O3         -2.3774   -2.0709   -3.7189 O.3       1 <0>        -0.3008
     31 C25        -3.5829   -1.6991   -4.3902 C.3       1 <0>         0.0253
     32 C26         0.0547   -4.9311   -3.7108 C.3       1 <0>        -0.1166
     33 O4          0.0754   -4.8894    1.1624 O.3       1 <0>        -0.2910
     34 C27         0.0953   -6.3151    1.0668 C.3       1 <0>         0.0238
     35 H3          1.0042    1.8801    0.0026 H         1 <0>         0.0738
     36 H4         -0.5455    1.8639   -0.8728 H         1 <0>         0.0674
     37 H5         -0.5286    1.8543    0.9071 H         1 <0>         0.0668
     38 H6         -0.0069   -0.1157   -2.1154 H         1 <0>         0.1236
     39 H7          0.0243   -0.1467    2.1393 H         1 <0>         0.1281
     40 H8          0.9257   -1.3065    3.6182 H         1 <0>         0.0558
     41 H9         -0.8541   -1.3306    3.6259 H         1 <0>         0.0554
     42 H10         0.0569   -2.6020    4.4756 H         1 <0>         0.1012
     43 H11         0.0800   -5.9433   -1.2162 H         1 <0>         0.1298
     44 H12        -2.1531   -0.7865   -5.9900 H         1 <0>         0.1353
     45 H13         2.6805   -1.3712   -2.8145 H         1 <0>         0.0835
     46 H14         2.4418   -3.0759   -3.2602 H         1 <0>         0.0856
     47 H15         1.8923   -1.5610   -8.0968 H         1 <0>         0.0611
     48 H16         3.6455   -1.3162   -7.9107 H         1 <0>         0.0643
     49 H17         2.8272   -2.6135   -7.0075 H         1 <0>         0.0521
     50 H18         5.0340   -3.0516   -3.3688 H         1 <0>         0.0593
     51 H19         5.8236   -2.0208   -4.5863 H         1 <0>         0.0652
     52 H20         5.0775   -1.2861   -3.1469 H         1 <0>         0.0548
     53 H21        -1.8611   -0.6508   -8.0468 H         1 <0>         0.0551
     54 H22        -1.8682    0.9006   -7.1744 H         1 <0>         0.0548
     55 H23        -1.1779    0.8037   -8.8122 H         1 <0>         0.1030
     56 H24        -4.4412   -2.0332   -3.8073 H         1 <0>         0.1014
     57 H25        -3.6181   -0.6152   -4.5001 H         1 <0>         0.0545
     58 H26        -3.6089   -2.1652   -5.3751 H         1 <0>         0.0545
     59 H27        -0.9714   -5.1298   -4.0200 H         1 <0>         0.0725
     60 H28         0.5568   -4.3397   -4.4765 H         1 <0>         0.0698
     61 H29         0.5830   -5.8750   -3.5764 H         1 <0>         0.0663
     62 H30        -0.7925   -6.6559    0.5341 H         1 <0>         0.0558
     63 H31         0.9873   -6.6306    0.5256 H         1 <0>         0.0561
     64 H32         0.1062   -6.7462    2.0678 H         1 <0>         0.1011
     65 H33         3.5440    0.0951   -4.6352 H         1 <0>         0.3429
@<TRIPOS>BOND
     1    1    2 1
     2    1   35 1
     3    1   36 1
     4    1   37 1
     5    2    7 ar
     6    2    3 ar
     7    3    4 ar
     8    3   38 1
     9    4   13 ar
    10    4    5 ar
    11    5    6 ar
    12    5   10 ar
    13    6    7 ar
    14    6    8 1
    15    7   39 1
    16    8    9 1
    17    9   40 1
    18    9   41 1
    19    9   42 1
    20   10   11 ar
    21   10   33 1
    22   11   12 ar
    23   11   43 1
    24   12   13 ar
    25   12   32 1
    26   13   14 1
    27   14   19 ar
    28   14   15 ar
    29   15   16 ar
    30   15   30 1
    31   16   17 ar
    32   16   44 1
    33   17   18 ar
    34   17   28 1
    35   18   24 1
    36   18   19 ar
    37   19   20 1
    38   20   21 1
    39   20   45 1
    40   20   46 1
    41   21   22 1
    42   21   23 1
    43   21   27 1
    44   23   24 1
    45   23   65 1
    46   24   25 1
    47   24   26 1
    48   26   47 1
    49   26   48 1
    50   26   49 1
    51   27   50 1
    52   27   51 1
    53   27   52 1
    54   28   29 1
    55   29   53 1
    56   29   54 1
    57   29   55 1
    58   30   31 1
    59   31   56 1
    60   31   57 1
    61   31   58 1
    62   32   59 1
    63   32   60 1
    64   32   61 1
    65   33   34 1
    66   34   62 1
    67   34   63 1
    68   34   64 1
@<TRIPOS>MOLECULE
ZINC95486018
   72    75     0     0     0
SMALL
USER_CHARGES

@<TRIPOS>ATOM
      1 C1         -0.6311    1.6478   -0.2402 C.3       1 <0>        -0.1179
      2 C2         -0.5450    0.1435   -0.2691 C.ar      1 <0>         0.0038
      3 C3         -0.6541   -0.5276   -1.4805 C.ar      1 <0>        -0.2446
      4 C4         -0.5796   -1.9024   -1.5377 C.ar      1 <0>         0.1812
      5 C5         -0.3898   -2.6450   -0.3553 C.ar      1 <0>        -0.1284
      6 C6         -0.2773   -1.9677    0.8824 C.ar      1 <0>         0.0768
      7 C7         -0.3524   -0.5537    0.9108 C.ar      1 <0>        -0.0776
      8 C8         -0.2316    0.1733    2.1949 C.ar      1 <0>        -0.1041
      9 C9          1.0245    0.5926    2.6436 C.ar      1 <0>         0.1822
     10 C10         1.1302    1.2709    3.8451 C.ar      1 <0>        -0.3020
     11 C11        -0.0058    1.5282    4.5952 C.ar      1 <0>         0.1766
     12 C12        -1.2593    1.1107    4.1514 C.ar      1 <0>        -0.1326
     13 C13        -1.3747    0.4443    2.9534 C.ar      1 <0>         0.0239
     14 C14        -2.7111   -0.0100    2.4249 C.3       1 <0>        -0.0671
     15 C15        -3.7480   -0.0002    3.5483 C.3       1 <0>         0.0720
     16 H1         -3.5203   -0.7903    4.2639 H         1 <0>         0.0513
     17 N1         -3.6943    1.3073    4.2217 N.3       1 <0>        -0.5174
     18 C16        -2.4589    1.4128    5.0113 C.3       1 <0>         0.1627
     19 C17        -2.5020    0.4284    6.1817 C.3       1 <0>        -0.1759
     20 C18        -2.3440    2.8382    5.5554 C.3       1 <0>        -0.1388
     21 C19        -4.8770    1.5123    5.0685 C.3       1 <0>         0.0098
     22 C20        -5.1433   -0.2242    2.9620 C.3       1 <0>        -0.1504
     23 O1          0.1032    2.1935    5.7750 O.3       1 <0>        -0.3003
     24 C21         1.4152    2.5943    6.1750 C.3       1 <0>         0.0185
     25 O2          2.1350    0.3350    1.9045 O.3       1 <0>        -0.3010
     26 C22         3.3832    0.7941    2.4273 C.3       1 <0>         0.0257
     27 C23        -0.0880   -2.7058    2.0590 C.ar      1 <0>        -0.1960
     28 C24        -0.0137   -4.0804    1.9970 C.ar      1 <0>         0.1816
     29 C25        -0.1244   -4.7463    0.7752 C.ar      1 <0>        -0.3178
     30 C26        -0.3097   -4.0515   -0.3862 C.ar      1 <0>         0.2079
     31 O3         -0.4164   -4.7140   -1.5667 O.3       1 <0>        -0.2869
     32 C27        -0.3257   -6.1394   -1.5212 C.3       1 <0>         0.0226
     33 O4          0.1699   -4.7955    3.1378 O.3       1 <0>        -0.3124
     34 C28         0.2387   -6.2169    3.0084 C.3       1 <0>         0.0262
     35 O5         -0.6894   -2.5404   -2.7314 O.3       1 <0>        -0.2921
     36 C29        -0.8809   -1.7238   -3.8883 C.3       1 <0>         0.0239
     37 H2          0.3657    2.0712   -0.3634 H         1 <0>         0.0729
     38 H3         -1.2741    1.9906   -1.0508 H         1 <0>         0.0663
     39 H4         -1.0471    1.9696    0.7145 H         1 <0>         0.0729
     40 H5         -0.7996    0.0360   -2.3902 H         1 <0>         0.1298
     41 H6          2.0969    1.5990    4.1977 H         1 <0>         0.1351
     42 H7         -3.0330    0.6621    1.6295 H         1 <0>         0.0887
     43 H8         -2.6182   -1.0206    2.0271 H         1 <0>         0.0832
     44 H9         -1.5930    0.5290    6.7748 H         1 <0>         0.0668
     45 H10        -3.3689    0.6440    6.8062 H         1 <0>         0.0612
     46 H11        -2.5747   -0.5893    5.7980 H         1 <0>         0.0551
     47 H12        -2.0866    3.5176    4.7429 H         1 <0>         0.0565
     48 H13        -3.2965    3.1383    5.9921 H         1 <0>         0.0556
     49 H14        -1.5669    2.8740    6.3190 H         1 <0>         0.0822
     50 H15        -4.8833    0.7726    5.8691 H         1 <0>         0.0311
     51 H16        -4.8466    2.5133    5.4989 H         1 <0>         0.0717
     52 H17        -5.7787    1.4031    4.4659 H         1 <0>         0.0745
     53 H18        -5.1725   -1.1865    2.4510 H         1 <0>         0.0611
     54 H19        -5.8804   -0.2166    3.7650 H         1 <0>         0.0600
     55 H20        -5.3712    0.5711    2.2522 H         1 <0>         0.0655
     56 H21         2.0493    1.7135    6.2758 H         1 <0>         0.0539
     57 H22         1.8365    3.2612    5.4228 H         1 <0>         0.0548
     58 H23         1.3605    3.1140    7.1316 H         1 <0>         0.1005
     59 H24         4.1859    0.5239    1.7412 H         1 <0>         0.1003
     60 H25         3.3525    1.8776    2.5421 H         1 <0>         0.0541
     61 H26         3.5631    0.3309    3.3975 H         1 <0>         0.0541
     62 H27        -0.0005   -2.1998    3.0090 H         1 <0>         0.1335
     63 H28        -0.0627   -5.8242    0.7477 H         1 <0>         0.1354
     64 H29        -1.1225   -6.5342   -0.8907 H         1 <0>         0.0557
     65 H30        -0.4265   -6.5422   -2.5290 H         1 <0>         0.1037
     66 H31         0.6409   -6.4290   -1.1091 H         1 <0>         0.0555
     67 H32         1.0727   -6.4827    2.3588 H         1 <0>         0.0549
     68 H33         0.3868   -6.6645    3.9912 H         1 <0>         0.1012
     69 H34        -0.6908   -6.5879    2.5766 H         1 <0>         0.0553
     70 H35        -1.7998   -1.1479   -3.7784 H         1 <0>         0.0567
     71 H36        -0.0364   -1.0433   -3.9965 H         1 <0>         0.0562
     72 H37        -0.9527   -2.3573   -4.7724 H         1 <0>         0.1005
@<TRIPOS>BOND
     1    1    2 1
     2    1   37 1
     3    1   38 1
     4    1   39 1
     5    2    7 ar
     6    2    3 ar
     7    3    4 ar
     8    3   40 1
     9    4    5 ar
    10    4   35 1
    11    5   30 ar
    12    5    6 ar
    13    6    7 ar
    14    6   27 ar
    15    7    8 1
    16    8   13 ar
    17    8    9 ar
    18    9   10 ar
    19    9   25 1
    20   10   11 ar
    21   10   41 1
    22   11   12 ar
    23   11   23 1
    24   12   18 1
    25   12   13 ar
    26   13   14 1
    27   14   15 1
    28   14   42 1
    29   14   43 1
    30   15   16 1
    31   15   17 1
    32   15   22 1
    33   17   18 1
    34   17   21 1
    35   18   19 1
    36   18   20 1
    37   19   44 1
    38   19   45 1
    39   19   46 1
    40   20   47 1
    41   20   48 1
    42   20   49 1
    43   21   50 1
    44   21   51 1
    45   21   52 1
    46   22   53 1
    47   22   54 1
    48   22   55 1
    49   23   24 1
    50   24   56 1
    51   24   57 1
    52   24   58 1
    53   25   26 1
    54   26   59 1
    55   26   60 1
    56   26   61 1
    57   27   28 ar
    58   27   62 1
    59   28   29 ar
    60   28   33 1
    61   29   30 ar
    62   29   63 1
    63   30   31 1
    64   31   32 1
    65   32   64 1
    66   32   65 1
    67   32   66 1
    68   33   34 1
    69   34   67 1
    70   34   68 1
    71   34   69 1
    72   35   36 1
    73   36   70 1
    74   36   71 1
    75   36   72 1
@<TRIPOS>MOLECULE
ZINC95486019
   62    65     0     0     0
SMALL
USER_CHARGES

@<TRIPOS>ATOM
      1 C1         -0.2999    1.5517    0.2480 C.3       1 <0>        -0.1510
      2 C2         -0.1301    0.0360    0.1265 C.3       1 <0>         0.0784
      3 H1         -1.1092   -0.4379    0.0572 H         1 <0>         0.0458
      4 C3          0.6883   -0.2907   -1.1229 C.3       1 <0>        -0.0681
      5 C4          1.0674   -1.7495   -1.1231 C.ar      1 <0>         0.0247
      6 C5          1.4944   -2.3262   -2.3238 C.ar      1 <0>        -0.1133
      7 C6          1.8592   -3.6750   -2.3640 C.ar      1 <0>         0.1829
      8 C7          1.7956   -4.4356   -1.2091 C.ar      1 <0>        -0.3016
      9 C8          1.3696   -3.8580   -0.0247 C.ar      1 <0>         0.1771
     10 C9          1.0030   -2.5135    0.0185 C.ar      1 <0>        -0.1415
     11 C10         0.5365   -1.9418    1.3320 C.3       1 <0>         0.1395
     12 H2         -0.4889   -2.2606    1.5191 H         1 <0>         0.0465
     13 N1          0.5856   -0.4776    1.3053 N.3       1 <0>        -0.5295
     14 C11         0.0386    0.0933    2.5434 C.3       1 <0>         0.0161
     15 C12         1.4383   -2.4570    2.4555 C.3       1 <0>        -0.1435
     16 O1          1.3086   -4.6087    1.1063 O.3       1 <0>        -0.3014
     17 C13         1.6976   -5.9794    0.9969 C.3       1 <0>         0.0188
     18 O2          2.2735   -4.2363   -3.5297 O.3       1 <0>        -0.3016
     19 C14         2.6300   -5.6196   -3.4930 C.3       1 <0>         0.0255
     20 C15         1.5605   -1.5062   -3.5547 C.ar      1 <0>        -0.0643
     21 C16         2.7228   -0.8274   -3.8782 C.ar      1 <0>        -0.0425
     22 C17         2.7968   -0.0548   -5.0297 C.ar      1 <0>        -0.2338
     23 C18         1.7167    0.0555   -5.8788 C.ar      1 <0>         0.1668
     24 C19         0.5182   -0.6222   -5.5806 C.ar      1 <0>        -0.0943
     25 C20         0.4373   -1.4157   -4.4117 C.ar      1 <0>         0.0371
     26 C21        -0.7544   -2.0947   -4.1179 C.ar      1 <0>        -0.1512
     27 C22        -1.8212   -1.9914   -4.9589 C.ar      1 <0>        -0.0614
     28 C23        -1.7510   -1.2188   -6.1144 C.ar      1 <0>        -0.2399
     29 C24        -0.6024   -0.5277   -6.4298 C.ar      1 <0>         0.1659
     30 O3         -0.5442    0.2243   -7.5591 O.3       1 <0>        -0.2913
     31 C25        -1.7207    0.2708   -8.3689 C.3       1 <0>         0.0241
     32 O4          1.8076    0.8160   -7.0001 O.3       1 <0>        -0.2915
     33 C26         3.0532    1.4746   -7.2382 C.3       1 <0>         0.0237
     34 H3          0.6806    2.0227    0.3171 H         1 <0>         0.0664
     35 H4         -0.8238    1.9301   -0.6297 H         1 <0>         0.0623
     36 H5         -0.8775    1.7819    1.1433 H         1 <0>         0.0610
     37 H6          0.0961   -0.0707   -2.0112 H         1 <0>         0.0845
     38 H7          1.5924    0.3181   -1.1327 H         1 <0>         0.0901
     39 H8          2.0773   -5.4779   -1.2319 H         1 <0>         0.1363
     40 H9         -0.9951   -0.2298    2.6668 H         1 <0>         0.0250
     41 H10         0.6298   -0.2479    3.3931 H         1 <0>         0.0725
     42 H11         0.0751    1.1813    2.4889 H         1 <0>         0.0766
     43 H12         2.4825   -2.3449    2.1635 H         1 <0>         0.0578
     44 H13         1.2513   -1.8835    3.3633 H         1 <0>         0.0566
     45 H14         1.2236   -3.5096    2.6399 H         1 <0>         0.0815
     46 H15         1.0541   -6.4833    0.2758 H         1 <0>         0.0545
     47 H16         2.7334   -6.0375    0.6623 H         1 <0>         0.0554
     48 H17         1.6022   -6.4629    1.9691 H         1 <0>         0.1015
     49 H18         1.7697   -6.2081   -3.1741 H         1 <0>         0.0546
     50 H19         2.9417   -5.9410   -4.4868 H         1 <0>         0.1013
     51 H20         3.4503   -5.7649   -2.7902 H         1 <0>         0.0548
     52 H21         3.5817   -0.8993   -3.2274 H         1 <0>         0.1244
     53 H22         3.7131    0.4672   -5.2630 H         1 <0>         0.1301
     54 H23        -0.8261   -2.6992   -3.2258 H         1 <0>         0.1250
     55 H24        -2.7352   -2.5173   -4.7255 H         1 <0>         0.1231
     56 H25        -2.6099   -1.1530   -6.7659 H         1 <0>         0.1280
     57 H26        -1.5392    0.9042   -9.2372 H         1 <0>         0.1010
     58 H27        -1.9737   -0.7363   -8.7003 H         1 <0>         0.0556
     59 H28        -2.5464    0.6800   -7.7868 H         1 <0>         0.0558
     60 H29         3.2727    2.1476   -6.4093 H         1 <0>         0.0565
     61 H30         3.8465    0.7319   -7.3231 H         1 <0>         0.0560
     62 H31         2.9906    2.0467   -8.1639 H         1 <0>         0.1008
@<TRIPOS>BOND
     1    1    2 1
     2    1   34 1
     3    1   35 1
     4    1   36 1
     5    2    3 1
     6    2   13 1
     7    2    4 1
     8    4    5 1
     9    4   37 1
    10    4   38 1
    11    5   10 ar
    12    5    6 ar
    13    6    7 ar
    14    6   20 1
    15    7    8 ar
    16    7   18 1
    17    8    9 ar
    18    8   39 1
    19    9   10 ar
    20    9   16 1
    21   10   11 1
    22   11   12 1
    23   11   13 1
    24   11   15 1
    25   13   14 1
    26   14   40 1
    27   14   41 1
    28   14   42 1
    29   15   43 1
    30   15   44 1
    31   15   45 1
    32   16   17 1
    33   17   46 1
    34   17   47 1
    35   17   48 1
    36   18   19 1
    37   19   49 1
    38   19   50 1
    39   19   51 1
    40   20   25 ar
    41   20   21 ar
    42   21   22 ar
    43   21   52 1
    44   22   23 ar
    45   22   53 1
    46   23   24 ar
    47   23   32 1
    48   24   29 ar
    49   24   25 ar
    50   25   26 ar
    51   26   27 ar
    52   26   54 1
    53   27   28 ar
    54   27   55 1
    55   28   29 ar
    56   28   56 1
    57   29   30 1
    58   30   31 1
    59   31   57 1
    60   31   58 1
    61   31   59 1
    62   32   33 1
    63   33   60 1
    64   33   61 1
    65   33   62 1
@<TRIPOS>MOLECULE
ZINC95486020
   65    68     0     0     0
SMALL
USER_CHARGES

@<TRIPOS>ATOM
      1 C1          1.4422    1.0923    0.5168 C.3       1 <0>        -0.1276
      2 C2          0.7011   -0.1881    0.2299 C.ar      1 <0>        -0.0524
      3 C3          0.9364   -0.8516   -0.9356 C.ar      1 <0>        -0.1196
      4 C4          0.2510   -2.0468   -1.2126 C.ar      1 <0>         0.0030
      5 C5          0.4748   -2.7524   -2.4077 C.ar      1 <0>        -0.1525
      6 C6         -0.2022   -3.9080   -2.6509 C.ar      1 <0>        -0.0606
      7 C7         -1.1203   -4.4095   -1.7323 C.ar      1 <0>        -0.2237
      8 C8         -1.3675   -3.7472   -0.5508 C.ar      1 <0>         0.1522
      9 C9         -0.6807   -2.5492   -0.2716 C.ar      1 <0>        -0.1042
     10 C10        -0.9037   -1.8417    0.9256 C.ar      1 <0>         0.1613
     11 C11        -0.2085   -0.6767    1.1631 C.ar      1 <0>        -0.1208
     12 C12        -0.4398    0.0806    2.4453 C.3       1 <0>        -0.0222
     13 H1         -0.7276    1.1063    2.2144 H         1 <0>         0.1126
     14 C13         0.8443    0.0863    3.2715 C.3       1 <0>         0.1505
     15 H2          1.6739    0.4200    2.6482 H         1 <0>         0.0932
     16 C14         1.1338   -1.3053    3.7895 C.2       1 <0>        -0.2165
     17 C15         0.1321   -2.0848    4.1704 C.2       1 <0>         0.0163
     18 C16         0.3618   -3.4676    4.7252 C.3       1 <0>        -0.1108
     19 C17         1.7731   -3.9427    4.3801 C.3       1 <0>         0.0305
     20 H3          1.8461   -4.1292    3.3086 H         1 <0>         0.1368
     21 N1          2.7243   -2.8880    4.7656 N.4       1 <0>        -0.3800
     22 C18         2.5698   -1.7568    3.8474 C.3       1 <0>         0.0878
     23 H4          2.8914   -2.0578    2.8504 H         1 <0>         0.1357
     24 C19         3.4432   -0.5960    4.3276 C.3       1 <0>        -0.1795
     25 C20         4.0960   -3.4069    4.6816 C.3       1 <0>        -0.0556
     26 C21         2.0871   -5.2273    5.1494 C.3       1 <0>        -0.1828
     27 C22        -1.2562   -1.6111    4.0328 C.2       1 <0>        -0.3331
     28 C23        -1.5409   -0.5852    3.2302 C.2       1 <0>         0.2333
     29 O1         -2.8164   -0.1430    3.1202 O.3       1 <0>        -0.2973
     30 C24        -3.8075   -0.8222    3.8938 C.3       1 <0>         0.0277
     31 O2          0.6929    0.9792    4.3769 O.3       1 <0>        -0.3691
     32 C25         1.1744    2.3011    4.1265 C.3       1 <0>         0.0198
     33 O3         -1.7928   -2.3071    1.8404 O.3       1 <0>        -0.4640
     34 O4         -2.2656   -4.2446    0.3379 O.3       1 <0>        -0.3010
     35 C26        -2.9218   -5.4636   -0.0162 C.3       1 <0>         0.0225
     36 H5          2.3658    0.8661    1.0495 H         1 <0>         0.0724
     37 H6          1.6776    1.5940   -0.4218 H         1 <0>         0.0805
     38 H7          0.8190    1.7431    1.1302 H         1 <0>         0.0698
     39 H8          1.6486   -0.4595   -1.6465 H         1 <0>         0.1366
     40 H9          1.1829   -2.3780   -3.1321 H         1 <0>         0.1329
     41 H10        -0.0245   -4.4441   -3.5714 H         1 <0>         0.1300
     42 H11        -1.6449   -5.3283   -1.9491 H         1 <0>         0.1321
     43 H12         0.2418   -3.4472    5.8084 H         1 <0>         0.1093
     44 H13        -0.3665   -4.1552    4.2953 H         1 <0>         0.1218
     45 H14         3.1753   -0.3395    5.3525 H         1 <0>         0.0864
     46 H15         4.4920   -0.8903    4.2890 H         1 <0>         0.0829
     47 H16         3.2846    0.2688    3.6833 H         1 <0>         0.0992
     48 H17         4.3023   -3.7247    3.6595 H         1 <0>         0.1223
     49 H18         4.7987   -2.6242    4.9675 H         1 <0>         0.1261
     50 H19         4.2049   -4.2567    5.3553 H         1 <0>         0.1290
     51 H20         1.3686   -5.9998    4.8753 H         1 <0>         0.1059
     52 H21         3.0939   -5.5629    4.9008 H         1 <0>         0.0866
     53 H22         2.0224   -5.0345    6.2203 H         1 <0>         0.0827
     54 H23        -2.0471   -2.0975    4.5846 H         1 <0>         0.1344
     55 H24        -3.8360   -1.8731    3.6058 H         1 <0>         0.0655
     56 H25        -3.5600   -0.7422    4.9523 H         1 <0>         0.0590
     57 H26        -4.7824   -0.3695    3.7134 H         1 <0>         0.1036
     58 H27         2.2141    2.2538    3.8027 H         1 <0>         0.0459
     59 H28         0.5716    2.7656    3.3462 H         1 <0>         0.0483
     60 H29         1.1048    2.8922    5.0397 H         1 <0>         0.0958
     61 H30        -1.4337   -2.9859    2.4280 H         1 <0>         0.3849
     62 H31        -3.4757   -5.3218   -0.9441 H         1 <0>         0.0603
     63 H32        -2.1791   -6.2496   -0.1529 H         1 <0>         0.0573
     64 H33        -3.6111   -5.7493    0.7784 H         1 <0>         0.1045
     65 H34         2.5315   -2.5868    5.7091 H         1 <0>         0.4241
@<TRIPOS>BOND
     1    1    2 1
     2    1   36 1
     3    1   37 1
     4    1   38 1
     5    2   11 ar
     6    2    3 ar
     7    3    4 ar
     8    3   39 1
     9    4    9 ar
    10    4    5 ar
    11    5    6 ar
    12    5   40 1
    13    6    7 ar
    14    6   41 1
    15    7    8 ar
    16    7   42 1
    17    8    9 ar
    18    8   34 1
    19    9   10 ar
    20   10   11 ar
    21   10   33 1
    22   11   12 1
    23   12   13 1
    24   12   28 1
    25   12   14 1
    26   14   15 1
    27   14   16 1
    28   14   31 1
    29   16   22 1
    30   16   17 2
    31   17   18 1
    32   17   27 1
    33   18   19 1
    34   18   43 1
    35   18   44 1
    36   19   20 1
    37   19   21 1
    38   19   26 1
    39   21   22 1
    40   21   25 1
    41   21   65 1
    42   22   23 1
    43   22   24 1
    44   24   45 1
    45   24   46 1
    46   24   47 1
    47   25   48 1
    48   25   49 1
    49   25   50 1
    50   26   51 1
    51   26   52 1
    52   26   53 1
    53   27   28 2
    54   27   54 1
    55   28   29 1
    56   29   30 1
    57   30   55 1
    58   30   56 1
    59   30   57 1
    60   31   32 1
    61   32   58 1
    62   32   59 1
    63   32   60 1
    64   33   61 1
    65   34   35 1
    66   35   62 1
    67   35   63 1
    68   35   64 1
@<TRIPOS>MOLECULE
ZINC95486023
   54    57     0     0     0
SMALL
USER_CHARGES

@<TRIPOS>ATOM
      1 C1         -0.0184    1.5028    0.0103 C.3       1 <0>        -0.1190
      2 C2          0.0021   -0.0041    0.0020 C.ar      1 <0>        -0.0311
      3 C3          0.0054   -0.6675   -1.1872 C.ar      1 <0>        -0.1573
      4 C4          0.0244   -2.0721   -1.2073 C.ar      1 <0>         0.0110
      5 C5          0.0288   -2.7787   -2.4240 C.ar      1 <0>        -0.1302
      6 C6          0.0472   -4.1371   -2.4233 C.ar      1 <0>        -0.0331
      7 C7          0.0621   -4.8575   -1.2193 C.ar      1 <0>        -0.0764
      8 C8          0.0584   -4.1919   -0.0005 C.ar      1 <0>         0.1663
      9 C9          0.0399   -2.7852    0.0172 C.ar      1 <0>        -0.1051
     10 C10         0.0360   -2.0721    1.2327 C.ar      1 <0>         0.1608
     11 C11         0.0229   -0.6952    1.2100 C.ar      1 <0>        -0.2297
     12 O1          0.0507   -2.7371    2.4166 O.3       1 <0>        -0.2961
     13 C12         0.0456   -1.9448    3.6058 C.3       1 <0>         0.0235
     14 O2          0.0719   -4.8919    1.1627 O.3       1 <0>        -0.4708
     15 C13         0.0815   -6.3394   -1.2484 C.ar      1 <0>        -0.0845
     16 C14        -1.1194   -7.0558   -1.2626 C.ar      1 <0>         0.1608
     17 C15        -1.1062   -8.4452   -1.2905 C.ar      1 <0>        -0.1475
     18 C16         0.0890   -9.1240   -1.3043 C.ar      1 <0>        -0.0335
     19 C17         1.3008   -8.4207   -1.2901 C.ar      1 <0>        -0.1513
     20 C18         1.2995   -7.0233   -1.2677 C.ar      1 <0>         0.1595
     21 O3          2.4702   -6.3375   -1.2595 O.3       1 <0>        -0.3238
     22 C19         3.0358   -6.0349    0.0174 C.3       1 <0>         0.0360
     23 C20         2.5592   -9.1838   -1.3039 C.2       1 <0>         0.1983
     24 N1          2.5582  -10.4171   -1.6922 N.2       1 <0>        -0.5062
     25 C21         1.3435  -11.0901   -2.1398 C.3       1 <0>         0.0618
     26 H1          1.1792  -10.8670   -3.1940 H         1 <0>         0.0855
     27 C22         0.1287  -10.6302   -1.3354 C.3       1 <0>        -0.1045
     28 C23         1.5147  -12.6007   -1.9678 C.3       1 <0>        -0.1329
     29 O4         -2.3030   -6.3914   -1.2487 O.3       1 <0>        -0.4839
     30 C24         0.0512   -4.8807   -3.7340 C.3       1 <0>        -0.1169
     31 H2          1.0042    1.8801    0.0026 H         1 <0>         0.0745
     32 H3         -0.5455    1.8639   -0.8728 H         1 <0>         0.0705
     33 H4         -0.5286    1.8543    0.9071 H         1 <0>         0.0672
     34 H5         -0.0069   -0.1141   -2.1146 H         1 <0>         0.1297
     35 H6          0.0171   -2.2402   -3.3601 H         1 <0>         0.1337
     36 H7          0.0246   -0.1457    2.1397 H         1 <0>         0.1296
     37 H8         -0.8527   -1.3279    3.6276 H         1 <0>         0.0571
     38 H9          0.0586   -2.5985    4.4780 H         1 <0>         0.1027
     39 H10         0.9270   -1.3037    3.6191 H         1 <0>         0.0563
     40 H11         0.9592   -5.0833    1.4962 H         1 <0>         0.3807
     41 H12        -2.0371   -8.9928   -1.3010 H         1 <0>         0.1386
     42 H13         2.3359   -5.4262    0.5899 H         1 <0>         0.0368
     43 H14         3.2356   -6.9617    0.5552 H         1 <0>         0.0554
     44 H15         3.9676   -5.4858   -0.1188 H         1 <0>         0.1027
     45 H16         3.4805   -8.7151   -0.9910 H         1 <0>         0.1624
     46 H17         0.2008  -11.0129   -0.3173 H         1 <0>         0.0880
     47 H18        -0.7808  -11.0082   -1.8024 H         1 <0>         0.0919
     48 H19         1.6939  -12.8288   -0.9171 H         1 <0>         0.0588
     49 H20         0.6098  -13.1091   -2.3007 H         1 <0>         0.0637
     50 H21         2.3622  -12.9404   -2.5631 H         1 <0>         0.0657
     51 H22        -2.6462   -6.1808   -2.1278 H         1 <0>         0.3925
     52 H23         1.0797   -5.0461   -4.0549 H         1 <0>         0.0785
     53 H24        -0.4491   -5.8410   -3.6085 H         1 <0>         0.0616
     54 H25        -0.4742   -4.2930   -4.4868 H         1 <0>         0.0716
@<TRIPOS>BOND
     1    1    2 1
     2    1   31 1
     3    1   32 1
     4    1   33 1
     5    2   11 ar
     6    2    3 ar
     7    3    4 ar
     8    3   34 1
     9    4    9 ar
    10    4    5 ar
    11    5    6 ar
    12    5   35 1
    13    6    7 ar
    14    6   30 1
    15    7    8 ar
    16    7   15 1
    17    8    9 ar
    18    8   14 1
    19    9   10 ar
    20   10   11 ar
    21   10   12 1
    22   11   36 1
    23   12   13 1
    24   13   37 1
    25   13   38 1
    26   13   39 1
    27   14   40 1
    28   15   20 ar
    29   15   16 ar
    30   16   17 ar
    31   16   29 1
    32   17   18 ar
    33   17   41 1
    34   18   27 1
    35   18   19 ar
    36   19   20 ar
    37   19   23 1
    38   20   21 1
    39   21   22 1
    40   22   42 1
    41   22   43 1
    42   22   44 1
    43   23   24 2
    44   23   45 1
    45   24   25 1
    46   25   26 1
    47   25   27 1
    48   25   28 1
    49   27   46 1
    50   27   47 1
    51   28   48 1
    52   28   49 1
    53   28   50 1
    54   29   51 1
    55   30   52 1
    56   30   53 1
    57   30   54 1
@<TRIPOS>MOLECULE
ZINC95486056
   34    35     0     0     0
SMALL
USER_CHARGES

@<TRIPOS>ATOM
      1 C1          4.9489    1.4331    4.9037 C.ar      1 <0>        -0.1151
      2 C2          4.9374    2.1358    3.7114 C.ar      1 <0>        -0.1243
      3 C3          4.9439    1.4609    2.5090 C.ar      1 <0>        -0.1002
      4 C4          4.9626    0.0624    2.4965 C.ar      1 <0>        -0.0682
      5 C5          4.9745   -0.6404    3.7057 C.ar      1 <0>        -0.1023
      6 C6          4.9674    0.0491    4.8997 C.ar      1 <0>        -0.1213
      7 C7          4.9692   -0.6657    1.2177 C.2       1 <0>        -0.0429
      8 C8          4.9872   -2.0147    1.2096 C.2       1 <0>        -0.2042
      9 C9          4.9938   -2.7393   -0.0628 C.2       1 <0>         0.4682
     10 O1          4.8871   -2.1291   -1.1117 O.2       1 <0>        -0.4647
     11 C10         5.1292   -4.2051   -0.0745 C.ar      1 <0>        -0.3611
     12 C11         3.9850   -5.0137   -0.1270 C.ar      1 <0>         0.2648
     13 C12         4.1127   -6.4136   -0.1383 C.ar      1 <0>        -0.3608
     14 C13         5.3877   -7.0023   -0.0969 C.ar      1 <0>         0.3584
     15 C14         6.5333   -6.1907   -0.0443 C.ar      1 <0>        -0.3615
     16 C15         6.4025   -4.7910   -0.0389 C.ar      1 <0>         0.2639
     17 O2          7.5046   -4.0097    0.0056 O.3       1 <0>        -0.4993
     18 C16         7.8613   -6.8015   -0.0011 C.2       1 <0>         0.3788
     19 O3          7.9740   -8.0099   -0.0107 O.2       1 <0>        -0.4574
     20 O4          5.5120   -8.3480   -0.1071 O.3       1 <0>        -0.5949
     21 C17         2.9191   -7.2567   -0.1926 C.2       1 <0>         0.3788
     22 O5          3.0297   -8.4653   -0.2022 O.2       1 <0>        -0.4574
     23 O6          2.7585   -4.4469   -0.1664 O.3       1 <0>        -0.5022
     24 H1          4.9478    1.9675    5.8422 H         1 <0>         0.1216
     25 H2          4.9230    3.2157    3.7228 H         1 <0>         0.1234
     26 H3          4.9343    2.0106    1.5795 H         1 <0>         0.1264
     27 H4          4.9886   -1.7203    3.7041 H         1 <0>         0.1303
     28 H5          4.9762   -0.4921    5.8342 H         1 <0>         0.1249
     29 H6          4.9596   -0.1202    0.2856 H         1 <0>         0.1320
     30 H7          4.9968   -2.5602    2.1417 H         1 <0>         0.1314
     31 H8          8.7417   -6.1773    0.0393 H         1 <0>         0.0743
     32 H9          1.9391   -6.8039   -0.2240 H         1 <0>         0.0745
     33 H10         2.4348   -4.2716   -1.0606 H         1 <0>         0.3947
     34 H11         7.7963   -3.7918    0.9015 H         1 <0>         0.3911
@<TRIPOS>BOND
     1    1    6 ar
     2    1    2 ar
     3    1   24 1
     4    2    3 ar
     5    2   25 1
     6    3    4 ar
     7    3   26 1
     8    4    5 ar
     9    4    7 1
    10    5    6 ar
    11    5   27 1
    12    6   28 1
    13    7    8 2
    14    7   29 1
    15    8    9 1
    16    8   30 1
    17    9   10 2
    18    9   11 1
    19   11   16 ar
    20   11   12 ar
    21   12   13 ar
    22   12   23 1
    23   13   14 ar
    24   13   21 1
    25   14   15 ar
    26   14   20 1
    27   15   16 ar
    28   15   18 1
    29   16   17 1
    30   17   34 1
    31   18   19 2
    32   18   31 1
    33   21   22 2
    34   21   32 1
    35   23   33 1
@<TRIPOS>MOLECULE
ZINC95486056
   35    36     0     0     0
SMALL
USER_CHARGES

@<TRIPOS>ATOM
      1 C1          4.9489    1.4331    4.9037 C.ar      1 <0>        -0.1019
      2 C2          4.9374    2.1358    3.7114 C.ar      1 <0>        -0.1233
      3 C3          4.9439    1.4609    2.5090 C.ar      1 <0>        -0.0900
      4 C4          4.9626    0.0624    2.4965 C.ar      1 <0>        -0.0885
      5 C5          4.9745   -0.6404    3.7057 C.ar      1 <0>        -0.0961
      6 C6          4.9674    0.0491    4.8997 C.ar      1 <0>        -0.1233
      7 C7          4.9692   -0.6657    1.2177 C.2       1 <0>         0.0017
      8 C8          4.9872   -2.0147    1.2096 C.2       1 <0>        -0.2407
      9 C9          4.9938   -2.7393   -0.0628 C.2       1 <0>         0.4507
     10 O1          4.8871   -2.1291   -1.1117 O.2       1 <0>        -0.4399
     11 C10         5.1292   -4.2051   -0.0745 C.ar      1 <0>        -0.2422
     12 C11         3.9850   -5.0137   -0.1270 C.ar      1 <0>         0.2585
     13 C12         4.1127   -6.4136   -0.1383 C.ar      1 <0>        -0.2739
     14 C13         5.3877   -7.0023   -0.0969 C.ar      1 <0>         0.2760
     15 C14         6.5333   -6.1907   -0.0443 C.ar      1 <0>        -0.2760
     16 C15         6.4025   -4.7910   -0.0389 C.ar      1 <0>         0.2581
     17 O2          7.5046   -4.0097    0.0056 O.3       1 <0>        -0.4807
     18 C16         7.8613   -6.8015   -0.0011 C.2       1 <0>         0.3828
     19 O3          7.9740   -8.0099   -0.0107 O.2       1 <0>        -0.4374
     20 O4          5.5120   -8.3480   -0.1071 O.3       1 <0>        -0.4546
     21 C17         2.9191   -7.2567   -0.1926 C.2       1 <0>         0.3827
     22 O5          3.0297   -8.4653   -0.2022 O.2       1 <0>        -0.4371
     23 O6          2.7585   -4.4469   -0.1664 O.3       1 <0>        -0.4822
     24 H1          4.9478    1.9675    5.8422 H         1 <0>         0.1265
     25 H2          4.9230    3.2157    3.7228 H         1 <0>         0.1284
     26 H3          4.9343    2.0106    1.5795 H         1 <0>         0.1295
     27 H4          4.9886   -1.7203    3.7041 H         1 <0>         0.1281
     28 H5          4.9762   -0.4921    5.8342 H         1 <0>         0.1278
     29 H6          4.9596   -0.1202    0.2856 H         1 <0>         0.1363
     30 H7          4.9968   -2.5602    2.1417 H         1 <0>         0.1351
     31 H8          8.7417   -6.1773    0.0393 H         1 <0>         0.1149
     32 H9          5.5814   -8.7298   -0.9929 H         1 <0>         0.4101
     33 H10         1.9391   -6.8039   -0.2240 H         1 <0>         0.1151
     34 H11         2.4348   -4.2716   -1.0606 H         1 <0>         0.4138
     35 H12         7.7963   -3.7918    0.9015 H         1 <0>         0.4115
@<TRIPOS>BOND
     1    1    6 ar
     2    1    2 ar
     3    1   24 1
     4    2    3 ar
     5    2   25 1
     6    3    4 ar
     7    3   26 1
     8    4    5 ar
     9    4    7 1
    10    5    6 ar
    11    5   27 1
    12    6   28 1
    13    7    8 2
    14    7   29 1
    15    8    9 1
    16    8   30 1
    17    9   10 2
    18    9   11 1
    19   11   16 ar
    20   11   12 ar
    21   12   13 ar
    22   12   23 1
    23   13   14 ar
    24   13   21 1
    25   14   15 ar
    26   14   20 1
    27   15   16 ar
    28   15   18 1
    29   16   17 1
    30   17   35 1
    31   18   19 2
    32   18   31 1
    33   20   32 1
    34   21   22 2
    35   21   33 1
    36   23   34 1
@<TRIPOS>MOLECULE
ZINC95486070
   43    48     0     0     0
SMALL
USER_CHARGES

@<TRIPOS>ATOM
      1 C1         -0.0167    1.3778    0.0096 C.ar      1 <0>        -0.1202
      2 C2          1.1668    2.0935    0.0022 C.ar      1 <0>        -0.0810
      3 C3          2.3758    1.4240   -0.0249 C.ar      1 <0>        -0.1319
      4 C4          2.3948    0.0399   -0.0303 C.ar      1 <0>         0.1445
      5 C5          1.2073   -0.6823   -0.0055 C.ar      1 <0>        -0.1216
      6 C6          0.0021   -0.0041    0.0020 C.ar      1 <0>        -0.0819
      7 C7          1.2187   -2.1873    0.0478 C.3       1 <0>        -0.0467
      8 H1          0.3213   -2.5850   -0.4262 H         1 <0>         0.1227
      9 C8          1.2613   -2.6014    1.5375 C.3       1 <0>        -0.1340
     10 C9          2.5358   -2.0725    2.1904 C.3       1 <0>        -0.0133
     11 N1          3.7505   -2.5125    1.4905 N.4       1 <0>        -0.3699
     12 C10         3.9010   -3.9696    1.5912 C.3       1 <0>         0.0256
     13 C11         5.1073   -4.4120    0.8079 C.2       1 <0>        -0.1784
     14 C12         5.5246   -3.7772   -0.2520 C.2       1 <0>        -0.1093
     15 C13         4.8610   -2.5582   -0.7816 C.3       1 <0>        -0.0253
     16 C14         3.6834   -2.1203    0.1031 C.3       1 <0>         0.2370
     17 C15         2.4522   -2.7839   -0.5928 C.3       1 <0>        -0.0834
     18 H2          2.4742   -3.8596   -0.4179 H         1 <0>         0.1130
     19 C16         2.7021   -2.4981   -2.0733 C.3       1 <0>        -0.1104
     20 C17         4.2626   -2.7559   -2.1831 C.3       1 <0>        -0.1114
     21 N2          3.6014   -0.6681   -0.1019 N.am      1 <0>        -0.5507
     22 C18         4.8090   -0.1757   -0.4333 C.2       1 <0>         0.5190
     23 O1          5.0918    1.0026   -0.4828 O.2       1 <0>        -0.4575
     24 C19         5.7644   -1.3156   -0.7354 C.3       1 <0>        -0.1498
     25 H3         -0.9609    1.9018    0.0260 H         1 <0>         0.1354
     26 H4          1.1464    3.1732    0.0171 H         1 <0>         0.1386
     27 H5          3.3023    1.9788   -0.0422 H         1 <0>         0.1488
     28 H6         -0.9265   -0.5555    0.0023 H         1 <0>         0.1360
     29 H7          0.3933   -2.1895    2.0524 H         1 <0>         0.1209
     30 H8          1.2414   -3.6887    1.6115 H         1 <0>         0.0959
     31 H9          2.5050   -0.9829    2.1924 H         1 <0>         0.1274
     32 H10         2.5759   -2.4240    3.2214 H         1 <0>         0.1397
     33 H11         4.0254   -4.2497    2.6372 H         1 <0>         0.1499
     34 H12         3.0109   -4.4545    1.1904 H         1 <0>         0.1438
     35 H13         5.6478   -5.2875    1.1360 H         1 <0>         0.1620
     36 H14         6.3941   -4.1554   -0.7691 H         1 <0>         0.1534
     37 H15         2.1304   -3.1824   -2.7002 H         1 <0>         0.1030
     38 H16         2.4615   -1.4621   -2.3122 H         1 <0>         0.0851
     39 H17         4.7038   -2.0446   -2.8813 H         1 <0>         0.0941
     40 H18         4.4411   -3.7754   -2.5251 H         1 <0>         0.0982
     41 H19         6.5067   -1.4123    0.0568 H         1 <0>         0.1235
     42 H20         6.2505   -1.1609   -1.6987 H         1 <0>         0.1384
     43 H21         4.5551   -2.0799    1.9188 H         1 <0>         0.4209
@<TRIPOS>BOND
     1    1    6 ar
     2    1    2 ar
     3    1   25 1
     4    2    3 ar
     5    2   26 1
     6    3    4 ar
     7    3   27 1
     8    4   21 1
     9    4    5 ar
    10    5    6 ar
    11    5    7 1
    12    6   28 1
    13    7    8 1
    14    7   17 1
    15    7    9 1
    16    9   10 1
    17    9   29 1
    18    9   30 1
    19   10   11 1
    20   10   31 1
    21   10   32 1
    22   11   16 1
    23   11   12 1
    24   11   43 1
    25   12   13 1
    26   12   33 1
    27   12   34 1
    28   13   14 2
    29   13   35 1
    30   14   15 1
    31   14   36 1
    32   15   20 1
    33   15   24 1
    34   15   16 1
    35   16   17 1
    36   16   21 1
    37   17   18 1
    38   17   19 1
    39   19   20 1
    40   19   37 1
    41   19   38 1
    42   20   39 1
    43   20   40 1
    44   21   22 am
    45   22   23 2
    46   22   24 1
    47   24   41 1
    48   24   42 1
@<TRIPOS>MOLECULE
ZINC95486071
   46    52     0     0     0
SMALL
USER_CHARGES

@<TRIPOS>ATOM
      1 C1         -0.0169    1.3920    0.0097 C.ar      1 <0>        -0.0460
      2 C2          1.2356    1.9832    0.0009 C.ar      1 <0>        -0.1331
      3 C3          2.4360    1.2670    0.0190 C.ar      1 <0>         0.1575
      4 C4          2.4530   -0.1358   -0.0090 C.ar      1 <0>        -0.1076
      5 C5          1.1965   -0.7381   -0.0161 C.ar      1 <0>         0.0577
      6 C6          0.0021   -0.0041    0.0020 C.ar      1 <0>         0.0074
      7 O1         -1.0417   -0.8673    0.0028 O.3       1 <0>        -0.3052
      8 C7         -0.4937   -2.1314   -0.4253 C.3       1 <0>         0.2114
      9 O2          0.8948   -2.0589   -0.0409 O.3       1 <0>        -0.3055
     10 N1          3.5242    2.1243    0.1272 N.am      1 <0>        -0.5358
     11 C8          4.8362    1.8497    0.0167 C.2       1 <0>         0.5078
     12 O3          5.2214    0.7024   -0.0644 O.2       1 <0>        -0.5120
     13 C9          5.8158    2.9872   -0.0050 C.3       1 <0>         0.1202
     14 H1          6.1825    3.1159   -1.0233 H         1 <0>         0.0866
     15 C10         5.2063    4.3023    0.4680 C.3       1 <0>        -0.0547
     16 C11         4.7948    4.2216    1.9415 C.3       1 <0>        -0.1064
     17 C12         3.3083    3.7143    1.9310 C.3       1 <0>        -0.1270
     18 C13         3.0103    3.4716    0.4414 C.3       1 <0>         0.1486
     19 C14         1.5872    3.4620   -0.0662 C.3       1 <0>        -0.0261
     20 H2          0.9221    4.0843    0.5326 H         1 <0>         0.1206
     21 C15         1.5630    3.8152   -1.5688 C.3       1 <0>        -0.1137
     22 C16         2.9509    3.7641   -2.2246 C.3       1 <0>         0.1138
     23 N2          3.7969    4.7495   -1.5798 N.3       1 <0>        -0.6311
     24 C17         3.8417    4.5844   -0.1752 C.3       1 <0>         0.1331
     25 H3          3.4816    5.5172    0.2587 H         1 <0>         0.0911
     26 C18         4.9402    5.3675   -2.1892 C.3       1 <0>         0.1521
     27 C19         5.9726    5.8336   -1.2054 C.2       1 <0>        -0.1674
     28 C20         6.1092    5.4126    0.0307 C.2       1 <0>        -0.1231
     29 O4          6.9188    2.6616    0.8433 O.3       1 <0>        -0.5359
     30 H4         -0.9329    1.9639    0.0258 H         1 <0>         0.1566
     31 H5          3.3704   -0.7055   -0.0243 H         1 <0>         0.1576
     32 H6         -0.9894   -2.9558    0.0872 H         1 <0>         0.1322
     33 H7         -0.5858   -2.2413   -1.5058 H         1 <0>         0.0872
     34 H8          5.4314    3.5144    2.4732 H         1 <0>         0.0849
     35 H9          4.8544    5.2065    2.4047 H         1 <0>         0.0843
     36 H10         3.2170    2.7862    2.4954 H         1 <0>         0.0808
     37 H11         2.6414    4.4759    2.3352 H         1 <0>         0.0923
     38 H12         0.9066    3.1132   -2.0831 H         1 <0>         0.0801
     39 H13         1.1572    4.8201   -1.6858 H         1 <0>         0.0816
     40 H14         3.3810    2.7707   -2.0969 H         1 <0>         0.0333
     41 H15         2.8639    3.9934   -3.2867 H         1 <0>         0.0808
     42 H16         5.4038    4.6502   -2.8665 H         1 <0>         0.0510
     43 H17         4.6031    6.2245   -2.7723 H         1 <0>         0.0799
     44 H18         6.6688    6.5858   -1.5460 H         1 <0>         0.1197
     45 H19         6.8379    5.8464    0.6994 H         1 <0>         0.1294
     46 H20         7.3948    1.8621    0.5801 H         1 <0>         0.3909
@<TRIPOS>BOND
     1    1    6 ar
     2    1    2 ar
     3    1   30 1
     4    2   19 1
     5    2    3 ar
     6    3    4 ar
     7    3   10 1
     8    4    5 ar
     9    4   31 1
    10    5    9 1
    11    5    6 ar
    12    6    7 1
    13    7    8 1
    14    8    9 1
    15    8   32 1
    16    8   33 1
    17   10   18 1
    18   10   11 am
    19   11   12 2
    20   11   13 1
    21   13   14 1
    22   13   15 1
    23   13   29 1
    24   15   24 1
    25   15   28 1
    26   15   16 1
    27   16   17 1
    28   16   34 1
    29   16   35 1
    30   17   18 1
    31   17   36 1
    32   17   37 1
    33   18   24 1
    34   18   19 1
    35   19   20 1
    36   19   21 1
    37   21   22 1
    38   21   38 1
    39   21   39 1
    40   22   23 1
    41   22   40 1
    42   22   41 1
    43   23   24 1
    44   23   26 1
    45   24   25 1
    46   26   27 1
    47   26   42 1
    48   26   43 1
    49   27   28 2
    50   27   44 1
    51   28   45 1
    52   29   46 1
@<TRIPOS>MOLECULE
ZINC95486108
   76    78     0     0     0
SMALL
USER_CHARGES

@<TRIPOS>ATOM
      1 C1         -1.5211    0.2250   -1.6966 C.3       1 <0>        -0.1421
      2 C2         -1.4461   -1.2711   -2.0079 C.3       1 <0>        -0.0696
      3 C3         -2.7859   -1.7412   -2.5779 C.3       1 <0>        -0.1433
      4 C4         -0.3555   -1.5200   -3.0177 C.2       1 <0>        -0.1578
      5 C5          0.6507   -2.3026   -2.7156 C.2       1 <0>        -0.1478
      6 C6          1.7413   -2.5516   -3.7253 C.3       1 <0>        -0.0829
      7 C7          3.0966   -2.1978   -3.1098 C.3       1 <0>        -0.1047
      8 H1          3.2215   -2.7435   -2.1746 H         1 <0>         0.0918
      9 C8          3.1486   -0.6939   -2.8296 C.3       1 <0>        -0.0998
     10 C9          4.4848   -0.3798   -2.1283 C.3       1 <0>        -0.1184
     11 H2          4.5587    0.6761   -1.8681 H         1 <0>         0.1238
     12 C10         4.5610   -1.2554   -0.9003 C.2       1 <0>        -0.0281
     13 C11         5.1189   -2.4764   -0.9218 C.2       1 <0>        -0.2330
     14 C12         5.7368   -3.0383   -2.1329 C.2       1 <0>         0.4096
     15 O1          6.3668   -4.0734   -2.0838 O.2       1 <0>        -0.3953
     16 C13         5.5687   -2.2958   -3.4435 C.3       1 <0>        -0.0960
     17 C14         4.2100   -2.5927   -4.0780 C.3       1 <0>        -0.0797
     18 H3          4.1522   -3.6628   -4.2770 H         1 <0>         0.1096
     19 C15         4.0340   -1.8273   -5.3911 C.3       1 <0>        -0.1041
     20 C16         4.9830   -2.3995   -6.4460 C.3       1 <0>        -0.1193
     21 C17         4.6963   -1.7591   -7.7797 C.2       1 <0>        -0.1585
     22 C18         4.2941   -2.4945   -8.7865 C.2       1 <0>        -0.1405
     23 C19         4.0286   -3.9645   -8.5871 C.3       1 <0>        -0.1247
     24 C20         4.0969   -1.8705  -10.1440 C.3       1 <0>        -0.1154
     25 C21         5.5836   -0.7904   -3.0975 C.2       1 <0>         0.3844
     26 O2          6.3951   -0.0085   -3.5316 O.2       1 <0>        -0.4266
     27 C22         6.6744   -2.6457   -4.4058 C.2       1 <0>        -0.1617
     28 C23         6.7941   -3.8731   -4.8478 C.2       1 <0>        -0.0871
     29 C24         5.7495   -4.9032   -4.5033 C.3       1 <0>        -0.1367
     30 C25         7.9763   -4.2549   -5.7008 C.3       1 <0>        -0.1174
     31 C26         5.1125   -3.2843    0.3148 C.2       1 <0>         0.4528
     32 O3          5.6206   -2.8471    1.3293 O.2       1 <0>        -0.4875
     33 C27         4.4897   -4.6214    0.3190 C.ar      1 <0>        -0.2973
     34 C28         3.9835   -5.1624   -0.8667 C.ar      1 <0>        -0.0109
     35 C29         3.4022   -6.4111   -0.8608 C.ar      1 <0>        -0.2666
     36 C30         3.3173   -7.1356    0.3210 C.ar      1 <0>         0.2855
     37 C31         3.8202   -6.6023    1.5074 C.ar      1 <0>        -0.0651
     38 C32         4.4094   -5.3534    1.5078 C.ar      1 <0>        -0.0282
     39 O4          3.7350   -7.3143    2.6629 O.3       1 <0>        -0.4890
     40 O5          2.7430   -8.3660    0.3215 O.3       1 <0>        -0.6906
     41 H4         -0.5666    0.5599   -1.2905 H         1 <0>         0.0548
     42 H5         -1.7401    0.7760   -2.6113 H         1 <0>         0.0526
     43 H6         -2.3099    0.4051   -0.9662 H         1 <0>         0.0534
     44 H7         -1.2270   -1.8220   -1.0932 H         1 <0>         0.0738
     45 H8         -3.0049   -1.1902   -3.4926 H         1 <0>         0.0525
     46 H9         -2.7325   -2.8070   -2.7997 H         1 <0>         0.0556
     47 H10        -3.5747   -1.5611   -1.8476 H         1 <0>         0.0536
     48 H11        -0.4034   -1.0532   -3.9904 H         1 <0>         0.1050
     49 H12         0.6985   -2.7695   -1.7428 H         1 <0>         0.1123
     50 H13         1.7364   -3.6028   -4.0136 H         1 <0>         0.0784
     51 H14         1.5694   -1.9325   -4.6058 H         1 <0>         0.0713
     52 H15         3.0876   -0.1428   -3.7680 H         1 <0>         0.0822
     53 H16         2.3184   -0.4116   -2.1822 H         1 <0>         0.0898
     54 H17         4.1524   -0.8860    0.0287 H         1 <0>         0.1426
     55 H18         3.0047   -1.9282   -5.7353 H         1 <0>         0.0775
     56 H19         4.2619   -0.7735   -5.2307 H         1 <0>         0.0603
     57 H20         6.0137   -2.1929   -6.1579 H         1 <0>         0.0935
     58 H21         4.8357   -3.4769   -6.5211 H         1 <0>         0.0807
     59 H22         4.8224   -0.6939   -7.9056 H         1 <0>         0.1028
     60 H23         2.9743   -4.1150   -8.3550 H         1 <0>         0.0658
     61 H24         4.2808   -4.5062   -9.4987 H         1 <0>         0.0574
     62 H25         4.6385   -4.3354   -7.7634 H         1 <0>         0.0721
     63 H26         5.0270   -1.9289  -10.7093 H         1 <0>         0.0632
     64 H27         3.3122   -2.4053  -10.6792 H         1 <0>         0.0592
     65 H28         3.8088   -0.8260  -10.0254 H         1 <0>         0.0588
     66 H29         7.3681   -1.8846   -4.7312 H         1 <0>         0.1240
     67 H30         5.0169   -4.9612   -5.3083 H         1 <0>         0.0659
     68 H31         6.2260   -5.8751   -4.3750 H         1 <0>         0.0666
     69 H32         5.2499   -4.6185   -3.5773 H         1 <0>         0.0808
     70 H33         8.8970   -4.0850   -5.1426 H         1 <0>         0.0673
     71 H34         7.9043   -5.3084   -5.9709 H         1 <0>         0.0639
     72 H35         7.9828   -3.6473   -6.6057 H         1 <0>         0.0652
     73 H36         4.0478   -4.6010   -1.7871 H         1 <0>         0.0927
     74 H37         3.0112   -6.8277   -1.7773 H         1 <0>         0.1046
     75 H38         4.8033   -4.9410    2.4250 H         1 <0>         0.1106
     76 H39         4.4962   -7.8872    2.8289 H         1 <0>         0.3574
@<TRIPOS>BOND
     1    1    2 1
     2    1   41 1
     3    1   42 1
     4    1   43 1
     5    2    3 1
     6    2    4 1
     7    2   44 1
     8    3   45 1
     9    3   46 1
    10    3   47 1
    11    4    5 2
    12    4   48 1
    13    5    6 1
    14    5   49 1
    15    6    7 1
    16    6   50 1
    17    6   51 1
    18    7    8 1
    19    7   17 1
    20    7    9 1
    21    9   10 1
    22    9   52 1
    23    9   53 1
    24   10   11 1
    25   10   25 1
    26   10   12 1
    27   12   13 2
    28   12   54 1
    29   13   14 1
    30   13   31 1
    31   14   15 2
    32   14   16 1
    33   16   17 1
    34   16   25 1
    35   16   27 1
    36   17   18 1
    37   17   19 1
    38   19   20 1
    39   19   55 1
    40   19   56 1
    41   20   21 1
    42   20   57 1
    43   20   58 1
    44   21   22 2
    45   21   59 1
    46   22   23 1
    47   22   24 1
    48   23   60 1
    49   23   61 1
    50   23   62 1
    51   24   63 1
    52   24   64 1
    53   24   65 1
    54   25   26 2
    55   27   28 2
    56   27   66 1
    57   28   29 1
    58   28   30 1
    59   29   67 1
    60   29   68 1
    61   29   69 1
    62   30   70 1
    63   30   71 1
    64   30   72 1
    65   31   32 2
    66   31   33 1
    67   33   38 ar
    68   33   34 ar
    69   34   35 ar
    70   34   73 1
    71   35   36 ar
    72   35   74 1
    73   36   37 ar
    74   36   40 1
    75   37   38 ar
    76   37   39 1
    77   38   75 1
    78   39   76 1
@<TRIPOS>MOLECULE
ZINC95486149
   59    62     0     0     0
SMALL
USER_CHARGES

@<TRIPOS>ATOM
      1 C1         -1.0236    1.1415   -0.4149 C.3       1 <0>        -0.1192
      2 C2         -0.9205   -0.3614   -0.4569 C.ar      1 <0>        -0.0198
      3 C3         -0.6986   -0.9857   -1.6477 C.ar      1 <0>        -0.1682
      4 C4         -0.6010   -2.3836   -1.6978 C.ar      1 <0>         0.0453
      5 C5         -0.7344   -3.1356   -0.5064 C.ar      1 <0>        -0.1051
      6 C6         -0.9638   -2.4649    0.7110 C.ar      1 <0>         0.1761
      7 C7         -1.0476   -1.0900    0.7215 C.ar      1 <0>        -0.2427
      8 O1         -1.0952   -3.1676    1.8656 O.3       1 <0>        -0.2901
      9 C8         -1.3262   -2.4168    3.0593 C.3       1 <0>         0.0237
     10 C9         -0.6354   -4.5403   -0.5564 C.ar      1 <0>         0.1771
     11 C10        -0.4102   -5.1696   -1.7613 C.ar      1 <0>        -0.2386
     12 C11        -0.2782   -4.4379   -2.9348 C.ar      1 <0>         0.0023
     13 C12        -0.3704   -3.0571   -2.9220 C.ar      1 <0>        -0.0904
     14 C13        -0.2283   -2.2891   -4.1797 C.ar      1 <0>        -0.0622
     15 C14        -1.3576   -2.0000   -4.9519 C.ar      1 <0>         0.1374
     16 C15        -1.2175   -1.2825   -6.1268 C.ar      1 <0>        -0.1791
     17 C16         0.0377   -0.8577   -6.5309 C.ar      1 <0>         0.1327
     18 C17         1.1656   -1.1447   -5.7640 C.ar      1 <0>        -0.1422
     19 C18         1.0342   -1.8495   -4.5899 C.ar      1 <0>        -0.0287
     20 C19         2.2227   -2.1677   -3.7195 C.3       1 <0>        -0.1125
     21 C20         3.5163   -1.9822   -4.5131 C.3       1 <0>         0.0811
     22 H1          4.3709   -2.0396   -3.8390 H         1 <0>         0.0904
     23 N1          3.4828   -0.6597   -5.1577 N.3       1 <0>        -0.6699
     24 C21         2.5056   -0.6623   -6.2554 C.3       1 <0>         0.1312
     25 H2          2.8506   -1.3146   -7.0576 H         1 <0>         0.0983
     26 C22         2.3633    0.7638   -6.7912 C.3       1 <0>        -0.1609
     27 C23         3.6272   -3.0751   -5.5780 C.3       1 <0>        -0.1514
     28 O2          0.1706   -0.1549   -7.6863 O.3       1 <0>        -0.4907
     29 O3         -2.5854   -2.4216   -4.5512 O.3       1 <0>        -0.4878
     30 C24        -0.0318   -5.1560   -4.2366 C.3       1 <0>        -0.1198
     31 O4         -0.7613   -5.2723    0.5805 O.3       1 <0>        -0.2902
     32 C25        -0.6498   -6.6913    0.4542 C.3       1 <0>         0.0231
     33 H3         -0.0339    1.5693   -0.2549 H         1 <0>         0.0746
     34 H4         -1.4278    1.5045   -1.3599 H         1 <0>         0.0682
     35 H5         -1.6836    1.4378    0.4004 H         1 <0>         0.0681
     36 H6         -0.5984   -0.4042   -2.5522 H         1 <0>         0.1234
     37 H7         -1.2187   -0.5724    1.6538 H         1 <0>         0.1293
     38 H8         -0.4934   -1.7334    3.2256 H         1 <0>         0.0564
     39 H9         -2.2493   -1.8464    2.9569 H         1 <0>         0.0564
     40 H10        -1.4119   -3.0978    3.9060 H         1 <0>         0.1022
     41 H11        -0.3348   -6.2465   -1.7938 H         1 <0>         0.1316
     42 H12        -2.0852   -1.0542   -6.7279 H         1 <0>         0.1357
     43 H13         2.2285   -1.5009   -2.8572 H         1 <0>         0.0801
     44 H14         2.1537   -3.1999   -3.3762 H         1 <0>         0.0848
     45 H15         1.7685    1.3556   -6.0955 H         1 <0>         0.0482
     46 H16         3.3511    1.2122   -6.8974 H         1 <0>         0.0675
     47 H17         1.8691    0.7394   -7.7624 H         1 <0>         0.0859
     48 H18         2.7751   -3.0109   -6.2547 H         1 <0>         0.0593
     49 H19         4.5501   -2.9404   -6.1421 H         1 <0>         0.0646
     50 H20         3.6355   -4.0527   -5.0960 H         1 <0>         0.0600
     51 H21         0.0110    0.7940   -7.5901 H         1 <0>         0.3909
     52 H22        -3.0536   -1.7902   -3.9881 H         1 <0>         0.3902
     53 H23        -0.9861   -5.3953   -4.7058 H         1 <0>         0.0772
     54 H24         0.5489   -4.5156   -4.9005 H         1 <0>         0.0699
     55 H25         0.5199   -6.0763   -4.0452 H         1 <0>         0.0675
     56 H26        -1.4255   -7.0583   -0.2179 H         1 <0>         0.0570
     57 H27         0.3305   -6.9442    0.0501 H         1 <0>         0.0568
     58 H28        -0.7692   -7.1538    1.4339 H         1 <0>         0.1023
     59 H29         3.2804    0.0652   -4.4856 H         1 <0>         0.3430
@<TRIPOS>BOND
     1    1    2 1
     2    1   33 1
     3    1   34 1
     4    1   35 1
     5    2    7 ar
     6    2    3 ar
     7    3    4 ar
     8    3   36 1
     9    4   13 ar
    10    4    5 ar
    11    5    6 ar
    12    5   10 ar
    13    6    7 ar
    14    6    8 1
    15    7   37 1
    16    8    9 1
    17    9   38 1
    18    9   39 1
    19    9   40 1
    20   10   11 ar
    21   10   31 1
    22   11   12 ar
    23   11   41 1
    24   12   13 ar
    25   12   30 1
    26   13   14 1
    27   14   19 ar
    28   14   15 ar
    29   15   16 ar
    30   15   29 1
    31   16   17 ar
    32   16   42 1
    33   17   18 ar
    34   17   28 1
    35   18   24 1
    36   18   19 ar
    37   19   20 1
    38   20   21 1
    39   20   43 1
    40   20   44 1
    41   21   22 1
    42   21   23 1
    43   21   27 1
    44   23   24 1
    45   23   59 1
    46   24   25 1
    47   24   26 1
    48   26   45 1
    49   26   46 1
    50   26   47 1
    51   27   48 1
    52   27   49 1
    53   27   50 1
    54   28   51 1
    55   29   52 1
    56   30   53 1
    57   30   54 1
    58   30   55 1
    59   31   32 1
    60   32   56 1
    61   32   57 1
    62   32   58 1
@<TRIPOS>MOLECULE
ZINC95486162
   65    68     0     0     0
SMALL
USER_CHARGES

@<TRIPOS>ATOM
      1 C1         -2.2097    0.8114   -1.1569 C.3       1 <0>        -0.1178
      2 C2         -1.9828   -0.6782   -1.1780 C.ar      1 <0>        -0.0262
      3 C3         -1.4962   -1.2669   -2.3066 C.ar      1 <0>        -0.1560
      4 C4         -1.2814   -2.6523   -2.3368 C.ar      1 <0>         0.0464
      5 C5         -1.5732   -3.4288   -1.1903 C.ar      1 <0>        -0.1031
      6 C6         -2.0758   -2.7948   -0.0369 C.ar      1 <0>         0.1712
      7 C7         -2.2679   -1.4309   -0.0431 C.ar      1 <0>        -0.2403
      8 O1         -2.3628   -3.5216    1.0737 O.3       1 <0>        -0.2908
      9 C8         -2.8688   -2.8076    2.2034 C.3       1 <0>         0.0242
     10 C9         -1.3566   -4.8208   -1.2201 C.ar      1 <0>         0.1727
     11 C10        -0.8637   -5.4140   -2.3618 C.ar      1 <0>        -0.2372
     12 C11        -0.5750   -4.6580   -3.4910 C.ar      1 <0>        -0.0083
     13 C12        -0.7762   -3.2888   -3.4965 C.ar      1 <0>        -0.0716
     14 C13        -0.4649   -2.4947   -4.7066 C.ar      1 <0>        -0.1018
     15 C14        -1.4511   -2.2832   -5.6750 C.ar      1 <0>         0.1819
     16 C15        -1.1529   -1.5406   -6.8040 C.ar      1 <0>        -0.3019
     17 C16         0.1180   -1.0144   -6.9687 C.ar      1 <0>         0.1783
     18 C17         1.1036   -1.2240   -6.0058 C.ar      1 <0>        -0.1809
     19 C18         0.8132   -1.9530   -4.8759 C.ar      1 <0>         0.0123
     20 C19         1.8416   -2.1904   -3.8000 C.3       1 <0>        -0.1113
     21 C20         3.2409   -1.8943   -4.3401 C.3       1 <0>         0.0818
     22 H1          3.5184   -2.6519   -5.0730 H         1 <0>         0.0831
     23 N1          3.2233   -0.5695   -4.9806 N.3       1 <0>        -0.6702
     24 C21         2.4692   -0.6325   -6.2405 C.3       1 <0>         0.1409
     25 H2          3.0069   -1.2449   -6.9643 H         1 <0>         0.0883
     26 C22         2.3168    0.7856   -6.7943 C.3       1 <0>        -0.1463
     27 C23         4.2482   -1.8999   -3.1885 C.3       1 <0>        -0.1419
     28 O2          0.4065   -0.2875   -8.0799 O.3       1 <0>        -0.3002
     29 C24        -0.6461   -0.1088   -9.0297 C.3       1 <0>         0.0190
     30 O3         -2.6947   -2.8040   -5.5086 O.3       1 <0>        -0.3009
     31 C25        -3.6495   -2.5459   -6.5400 C.3       1 <0>         0.0254
     32 C26        -0.0365   -5.3367   -4.7241 C.3       1 <0>        -0.1166
     33 O4         -1.6326   -5.5761   -0.1257 O.3       1 <0>        -0.2910
     34 C27        -1.3884   -6.9803   -0.2282 C.3       1 <0>         0.0238
     35 H3         -1.3034    1.3122   -0.8164 H         1 <0>         0.0738
     36 H4         -2.4595    1.1552   -2.1607 H         1 <0>         0.0674
     37 H5         -3.0303    1.0444   -0.4784 H         1 <0>         0.0668
     38 H6         -1.2765   -0.6669   -3.1773 H         1 <0>         0.1235
     39 H7         -2.6487   -0.9410    0.8409 H         1 <0>         0.1280
     40 H8         -2.1374   -2.0642    2.5207 H         1 <0>         0.0558
     41 H9         -3.7990   -2.3090    1.9312 H         1 <0>         0.0554
     42 H10        -3.0558   -3.5049    3.0200 H         1 <0>         0.1012
     43 H11        -0.6992   -6.4812   -2.3791 H         1 <0>         0.1298
     44 H12        -1.9098   -1.3719   -7.5557 H         1 <0>         0.1353
     45 H13         1.6354   -1.5372   -2.9520 H         1 <0>         0.0834
     46 H14         1.7917   -3.2295   -3.4747 H         1 <0>         0.0857
     47 H15         1.5726    1.3261   -6.2094 H         1 <0>         0.0483
     48 H16         3.2736    1.3042   -6.7333 H         1 <0>         0.0631
     49 H17         1.9957    0.7367   -7.8348 H         1 <0>         0.0829
     50 H18         4.2453   -2.8783   -2.7080 H         1 <0>         0.0599
     51 H19         5.2447   -1.6886   -3.5764 H         1 <0>         0.0654
     52 H20         3.9723   -1.1368   -2.4607 H         1 <0>         0.0550
     53 H21        -0.9760   -1.0818   -9.3937 H         1 <0>         0.0543
     54 H22        -1.4821    0.4035   -8.5534 H         1 <0>         0.0545
     55 H23        -0.2831    0.4882   -9.8663 H         1 <0>         0.1021
     56 H24        -4.5982   -3.0170   -6.2831 H         1 <0>         0.1013
     57 H25        -3.7936   -1.4702   -6.6408 H         1 <0>         0.0544
     58 H26        -3.2850   -2.9536   -7.4829 H         1 <0>         0.0545
     59 H27        -0.8657   -5.6426   -5.3619 H         1 <0>         0.0725
     60 H28         0.6049   -4.6441   -5.2693 H         1 <0>         0.0698
     61 H29         0.5410   -6.2141   -4.4331 H         1 <0>         0.0663
     62 H30        -1.9952   -7.3969   -1.0322 H         1 <0>         0.0557
     63 H31        -0.3336   -7.1509   -0.4433 H         1 <0>         0.0561
     64 H32        -1.6503   -7.4642    0.7127 H         1 <0>         0.1011
     65 H33         2.8438    0.1280   -4.3582 H         1 <0>         0.3419
@<TRIPOS>BOND
     1    1    2 1
     2    1   35 1
     3    1   36 1
     4    1   37 1
     5    2    7 ar
     6    2    3 ar
     7    3    4 ar
     8    3   38 1
     9    4   13 ar
    10    4    5 ar
    11    5    6 ar
    12    5   10 ar
    13    6    7 ar
    14    6    8 1
    15    7   39 1
    16    8    9 1
    17    9   40 1
    18    9   41 1
    19    9   42 1
    20   10   11 ar
    21   10   33 1
    22   11   12 ar
    23   11   43 1
    24   12   13 ar
    25   12   32 1
    26   13   14 1
    27   14   19 ar
    28   14   15 ar
    29   15   16 ar
    30   15   30 1
    31   16   17 ar
    32   16   44 1
    33   17   18 ar
    34   17   28 1
    35   18   24 1
    36   18   19 ar
    37   19   20 1
    38   20   21 1
    39   20   45 1
    40   20   46 1
    41   21   22 1
    42   21   23 1
    43   21   27 1
    44   23   24 1
    45   23   65 1
    46   24   25 1
    47   24   26 1
    48   26   47 1
    49   26   48 1
    50   26   49 1
    51   27   50 1
    52   27   51 1
    53   27   52 1
    54   28   29 1
    55   29   53 1
    56   29   54 1
    57   29   55 1
    58   30   31 1
    59   31   56 1
    60   31   57 1
    61   31   58 1
    62   32   59 1
    63   32   60 1
    64   32   61 1
    65   33   34 1
    66   34   62 1
    67   34   63 1
    68   34   64 1
@<TRIPOS>MOLECULE
ZINC95486166
   63    66     0     0     0
SMALL
USER_CHARGES

@<TRIPOS>ATOM
      1 C1          0.0261    1.5730   -0.1110 C.3       1 <0>        -0.1516
      2 C2          0.0364    0.0432   -0.0880 C.3       1 <0>         0.0720
      3 H1          0.5065   -0.3335   -0.9964 H         1 <0>         0.0522
      4 C3         -1.3975   -0.4788    0.0027 C.3       1 <0>        -0.0703
      5 C4         -1.3896   -1.9634    0.2667 C.ar      1 <0>        -0.0390
      6 C5         -2.5543   -2.6797    0.0288 C.ar      1 <0>        -0.1530
      7 C6         -2.6022   -4.0426    0.2579 C.ar      1 <0>         0.1364
      8 C7         -1.4656   -4.7040    0.7348 C.ar      1 <0>        -0.0635
      9 C8         -0.2966   -3.9777    0.9710 C.ar      1 <0>         0.1341
     10 C9         -0.2629   -2.6083    0.7332 C.ar      1 <0>        -0.1001
     11 C10         1.0250   -1.8708    0.9924 C.3       1 <0>         0.1290
     12 H2          1.4614   -2.2262    1.9259 H         1 <0>         0.0924
     13 N1          0.7846   -0.4286    1.0881 N.3       1 <0>        -0.5279
     14 C11         2.0456    0.3095    1.2407 C.3       1 <0>         0.0144
     15 C12         2.0005   -2.1396   -0.1553 C.3       1 <0>        -0.1812
     16 O1          0.8122   -4.6117    1.4350 O.3       1 <0>        -0.3264
     17 C13         0.9987   -4.6394    2.8515 C.3       1 <0>         0.0306
     18 C14        -1.5019   -6.1619    0.9876 C.ar      1 <0>        -0.1181
     19 C15        -1.8862   -6.6558    2.2570 C.ar      1 <0>         0.0750
     20 C16        -2.2388   -5.7822    3.2967 C.ar      1 <0>        -0.1633
     21 C17        -2.6057   -6.2815    4.5099 C.ar      1 <0>        -0.0471
     22 C18        -2.6378   -7.6537    4.7401 C.ar      1 <0>        -0.2499
     23 C19        -2.2985   -8.5424    3.7440 C.ar      1 <0>         0.1783
     24 C20        -1.9153   -8.0530    2.4796 C.ar      1 <0>        -0.1243
     25 C21        -1.5619   -8.9326    1.4362 C.ar      1 <0>         0.2105
     26 C22        -1.1914   -8.4299    0.2095 C.ar      1 <0>        -0.3150
     27 C23        -1.1646   -7.0555   -0.0212 C.ar      1 <0>         0.2016
     28 O2         -0.8002   -6.5852   -1.2425 O.3       1 <0>        -0.3036
     29 C24        -0.4650   -7.5546   -2.2374 C.3       1 <0>         0.0249
     30 O3         -1.5867  -10.2747    1.6412 O.3       1 <0>        -0.2855
     31 C25        -1.2165  -11.1062    0.5396 C.3       1 <0>         0.0219
     32 O4         -2.3326   -9.8794    3.9788 O.3       1 <0>        -0.2922
     33 C26        -2.7307  -10.2986    5.2857 C.3       1 <0>         0.0239
     34 O5         -3.7470   -4.7354    0.0214 O.3       1 <0>        -0.4880
     35 H3          1.0499    1.9424   -0.1686 H         1 <0>         0.0609
     36 H4         -0.5346    1.9195   -0.9791 H         1 <0>         0.0623
     37 H5         -0.4445    1.9469    0.7984 H         1 <0>         0.0662
     38 H6         -1.9172    0.0303    0.8144 H         1 <0>         0.0880
     39 H7         -1.9147   -0.2811   -0.9362 H         1 <0>         0.0807
     40 H8         -3.4314   -2.1680   -0.3391 H         1 <0>         0.1313
     41 H9          1.8369    1.3780    1.2945 H         1 <0>         0.0767
     42 H10         2.5450   -0.0096    2.1555 H         1 <0>         0.0675
     43 H11         2.6904    0.1078    0.3854 H         1 <0>         0.0327
     44 H12         1.6081   -1.7054   -1.0749 H         1 <0>         0.0568
     45 H13         2.9661   -1.6898    0.0757 H         1 <0>         0.0612
     46 H14         2.1222   -3.2151   -0.2844 H         1 <0>         0.0719
     47 H15         1.9677   -5.0822    3.0818 H         1 <0>         0.0919
     48 H16         0.9617   -3.6227    3.2427 H         1 <0>         0.0474
     49 H17         0.2090   -5.2342    3.3104 H         1 <0>         0.0527
     50 H18        -2.2190   -4.7145    3.1354 H         1 <0>         0.1256
     51 H19        -2.8753   -5.6024    5.3051 H         1 <0>         0.1260
     52 H20        -2.9316   -8.0258    5.7105 H         1 <0>         0.1295
     53 H21        -0.9215   -9.1092   -0.5855 H         1 <0>         0.1385
     54 H22         0.3769   -8.1543   -1.8914 H         1 <0>         0.0560
     55 H23        -1.3230   -8.2024   -2.4171 H         1 <0>         0.0554
     56 H24        -0.1932   -7.0466   -3.1627 H         1 <0>         0.1017
     57 H25        -1.2790  -12.1529    0.8372 H         1 <0>         0.1047
     58 H26        -1.8928  -10.9250   -0.2958 H         1 <0>         0.0566
     59 H27        -0.1952  -10.8749    0.2369 H         1 <0>         0.0568
     60 H28        -2.0417   -9.8890    6.0243 H         1 <0>         0.0567
     61 H29        -3.7391   -9.9393    5.4910 H         1 <0>         0.0569
     62 H30        -2.7151  -11.3872    5.3385 H         1 <0>         0.1014
     63 H31        -3.8168   -5.0847   -0.8776 H         1 <0>         0.3887
@<TRIPOS>BOND
     1    1    2 1
     2    1   35 1
     3    1   36 1
     4    1   37 1
     5    2    3 1
     6    2   13 1
     7    2    4 1
     8    4    5 1
     9    4   38 1
    10    4   39 1
    11    5   10 ar
    12    5    6 ar
    13    6    7 ar
    14    6   40 1
    15    7    8 ar
    16    7   34 1
    17    8    9 ar
    18    8   18 1
    19    9   10 ar
    20    9   16 1
    21   10   11 1
    22   11   12 1
    23   11   13 1
    24   11   15 1
    25   13   14 1
    26   14   41 1
    27   14   42 1
    28   14   43 1
    29   15   44 1
    30   15   45 1
    31   15   46 1
    32   16   17 1
    33   17   47 1
    34   17   48 1
    35   17   49 1
    36   18   27 ar
    37   18   19 ar
    38   19   24 ar
    39   19   20 ar
    40   20   21 ar
    41   20   50 1
    42   21   22 ar
    43   21   51 1
    44   22   23 ar
    45   22   52 1
    46   23   24 ar
    47   23   32 1
    48   24   25 ar
    49   25   26 ar
    50   25   30 1
    51   26   27 ar
    52   26   53 1
    53   27   28 1
    54   28   29 1
    55   29   54 1
    56   29   55 1
    57   29   56 1
    58   30   31 1
    59   31   57 1
    60   31   58 1
    61   31   59 1
    62   32   33 1
    63   33   60 1
    64   33   61 1
    65   33   62 1
    66   34   63 1
@<TRIPOS>MOLECULE
ZINC95485966
   78    80     0     0     0
SMALL
USER_CHARGES

@<TRIPOS>ATOM
      1 C1          2.5576    4.9044   -3.7086 C.3       1 <0>        -0.1170
      2 C2          1.4777    3.9434   -3.2828 C.ar      1 <0>        -0.0417
      3 C3          1.0302    3.0042   -4.1641 C.ar      1 <0>        -0.1310
      4 C4          0.0247    2.1042   -3.7808 C.ar      1 <0>         0.0528
      5 C5         -0.4596    1.1332   -4.6781 C.ar      1 <0>        -0.2673
      6 C6         -1.4359    0.2633   -4.3028 C.ar      1 <0>         0.0501
      7 C7         -1.9661    0.3112   -2.9990 C.ar      1 <0>        -0.3817
      8 C8         -1.5124    1.2701   -2.0846 C.ar      1 <0>         0.3433
      9 C9         -0.5117    2.1788   -2.4716 C.ar      1 <0>        -0.1760
     10 C10        -0.0327    3.1602   -1.5816 C.ar      1 <0>         0.1842
     11 C11         0.9582    4.0252   -1.9962 C.ar      1 <0>        -0.1782
     12 C12         1.4791    5.0730   -1.0465 C.3       1 <0>        -0.0529
     13 C13         0.6484    6.3498   -1.1904 C.3       1 <0>        -0.0919
     14 C14         1.1693    7.3976   -0.2407 C.2       1 <0>        -0.1575
     15 C15         0.3440    8.0222    0.5622 C.2       1 <0>        -0.1413
     16 C16        -1.1427    7.8205    0.4203 C.3       1 <0>        -0.1296
     17 C17         0.8812    8.9425    1.6279 C.3       1 <0>        -0.1139
     18 O1         -0.5387    3.2506   -0.3256 O.3       1 <0>        -0.4724
     19 O2         -2.0344    1.3223   -0.8368 O.3       1 <0>        -0.6149
     20 C18        -2.9917   -0.6423   -2.5582 C.2       1 <0>         0.4055
     21 O3         -3.2476   -0.7757   -1.3795 O.2       1 <0>        -0.4565
     22 C19        -3.7238   -1.4552   -3.6044 C.3       1 <0>        -0.2174
     23 C20        -2.6957   -1.8395   -4.6514 C.2       1 <0>         0.3860
     24 C21        -1.9302   -0.7286   -5.3259 C.3       1 <0>        -0.0959
     25 H1         -1.0789   -1.1499   -5.8606 H         1 <0>         0.0993
     26 C22        -2.8462   -0.0147   -6.3220 C.3       1 <0>        -0.0930
     27 C23        -3.2497   -0.9877   -7.4317 C.3       1 <0>        -0.1031
     28 C24        -4.1519   -0.2845   -8.4128 C.2       1 <0>        -0.1552
     29 C25        -3.7644   -0.1130   -9.6523 C.2       1 <0>        -0.1405
     30 C26        -2.4315   -0.6501  -10.1062 C.3       1 <0>        -0.1210
     31 C27        -4.6514    0.6214  -10.6244 C.3       1 <0>        -0.1146
     32 O4         -2.4964   -2.9962   -4.9351 O.2       1 <0>        -0.4610
     33 C28         1.6157    2.9332   -5.5509 C.3       1 <0>        -0.0627
     34 C29         2.8033    1.9686   -5.5544 C.3       1 <0>        -0.0901
     35 C30         3.3888    1.8976   -6.9412 C.2       1 <0>        -0.1577
     36 C31         3.5648    0.7353   -7.5191 C.2       1 <0>        -0.1410
     37 C32         3.1969   -0.5318   -6.7909 C.3       1 <0>        -0.1203
     38 C33         4.1351    0.6652   -8.9123 C.3       1 <0>        -0.1141
     39 H2          3.5337    4.4862   -3.4630 H         1 <0>         0.0634
     40 H3          2.4933    5.0699   -4.7841 H         1 <0>         0.0660
     41 H4          2.4268    5.8524   -3.1867 H         1 <0>         0.0635
     42 H5         -0.0513    1.0786   -5.6764 H         1 <0>         0.1078
     43 H6          1.4052    4.7049   -0.0233 H         1 <0>         0.0637
     44 H7          2.5215    5.2894   -1.2805 H         1 <0>         0.0614
     45 H8          0.7223    6.7179   -2.2137 H         1 <0>         0.0648
     46 H9         -0.3939    6.1334   -0.9564 H         1 <0>         0.0819
     47 H10         2.2231    7.6336   -0.2222 H         1 <0>         0.1037
     48 H11        -1.3354    7.0555   -0.3319 H         1 <0>         0.0776
     49 H12        -1.5592    7.5032    1.3763 H         1 <0>         0.0605
     50 H13        -1.6088    8.7570    0.1138 H         1 <0>         0.0610
     51 H14         0.9666    9.9523    1.2265 H         1 <0>         0.0600
     52 H15         0.2021    8.9466    2.4805 H         1 <0>         0.0606
     53 H16         1.8634    8.5942    1.9473 H         1 <0>         0.0592
     54 H17        -0.0688    2.7139    0.3273 H         1 <0>         0.3817
     55 H18        -4.1482   -2.3511   -3.1514 H         1 <0>         0.0998
     56 H19        -3.7391    0.3384   -5.8060 H         1 <0>         0.0718
     57 H20        -2.3185    0.8341   -6.7571 H         1 <0>         0.0814
     58 H21        -2.3569   -1.3407   -7.9477 H         1 <0>         0.0763
     59 H22        -3.7774   -1.8364   -6.9966 H         1 <0>         0.0680
     60 H23        -5.1180    0.0780   -8.0940 H         1 <0>         0.1078
     61 H24        -2.5372   -1.6995  -10.3811 H         1 <0>         0.0639
     62 H25        -2.0855   -0.0814  -10.9694 H         1 <0>         0.0576
     63 H26        -1.7077   -0.5577   -9.2965 H         1 <0>         0.0707
     64 H27        -5.5656    0.9322  -10.1186 H         1 <0>         0.0590
     65 H28        -4.1281    1.5000  -11.0015 H         1 <0>         0.0633
     66 H29        -4.9022   -0.0369  -11.4561 H         1 <0>         0.0608
     67 H30        -4.5139   -0.8561   -4.0572 H         1 <0>         0.1207
     68 H31         0.8568    2.5777   -6.2479 H         1 <0>         0.0691
     69 H32         1.9520    3.9246   -5.8545 H         1 <0>         0.0654
     70 H33         3.5622    2.3241   -4.8573 H         1 <0>         0.0660
     71 H34         2.4670    0.9772   -5.2508 H         1 <0>         0.0770
     72 H35         3.6633    2.8051   -7.4585 H         1 <0>         0.1037
     73 H36         2.1338   -0.7319   -6.9242 H         1 <0>         0.0682
     74 H37         3.7763   -1.3630   -7.1926 H         1 <0>         0.0556
     75 H38         3.4146   -0.4168   -5.7291 H         1 <0>         0.0678
     76 H39         5.2216    0.5975   -8.8571 H         1 <0>         0.0614
     77 H40         3.7418   -0.2143   -9.4221 H         1 <0>         0.0598
     78 H41         3.8545    1.5616   -9.4653 H         1 <0>         0.0588
@<TRIPOS>BOND
     1    1    2 1
     2    1   39 1
     3    1   40 1
     4    1   41 1
     5    2   11 ar
     6    2    3 ar
     7    3    4 ar
     8    3   33 1
     9    4    9 ar
    10    4    5 ar
    11    5    6 ar
    12    5   42 1
    13    6    7 ar
    14    6   24 1
    15    7    8 ar
    16    7   20 1
    17    8    9 ar
    18    8   19 1
    19    9   10 ar
    20   10   11 ar
    21   10   18 1
    22   11   12 1
    23   12   13 1
    24   12   43 1
    25   12   44 1
    26   13   14 1
    27   13   45 1
    28   13   46 1
    29   14   15 2
    30   14   47 1
    31   15   16 1
    32   15   17 1
    33   16   48 1
    34   16   49 1
    35   16   50 1
    36   17   51 1
    37   17   52 1
    38   17   53 1
    39   18   54 1
    40   20   21 2
    41   20   22 1
    42   22   55 1
    43   22   67 1
    44   22   23 1
    45   23   24 1
    46   23   32 2
    47   24   26 1
    48   24   25 1
    49   26   27 1
    50   26   56 1
    51   26   57 1
    52   27   28 1
    53   27   58 1
    54   27   59 1
    55   28   29 2
    56   28   60 1
    57   29   30 1
    58   29   31 1
    59   30   61 1
    60   30   62 1
    61   30   63 1
    62   31   64 1
    63   31   65 1
    64   31   66 1
    65   33   34 1
    66   33   68 1
    67   33   69 1
    68   34   35 1
    69   34   70 1
    70   34   71 1
    71   35   36 2
    72   35   72 1
    73   36   37 1
    74   36   38 1
    75   37   73 1
    76   37   74 1
    77   37   75 1
    78   38   76 1
    79   38   77 1
    80   38   78 1
@<TRIPOS>MOLECULE
ZINC95485967
   62    64     0     0     0
SMALL
USER_CHARGES

@<TRIPOS>ATOM
      1 C1          4.9941    0.4710    2.9353 C.3       1 <0>        -0.1135
      2 C2          4.5377   -0.9377    2.6557 C.ar      1 <0>        -0.0476
      3 C3          5.0114   -1.5989    1.5279 C.ar      1 <0>        -0.2143
      4 C4          4.6096   -2.8877    1.2479 C.ar      1 <0>         0.1796
      5 C5          3.7090   -3.5363    2.1161 C.ar      1 <0>        -0.1789
      6 C6          3.2354   -2.8549    3.2645 C.ar      1 <0>         0.0552
      7 C7          3.6715   -1.5449    3.5154 C.ar      1 <0>        -0.1330
      8 C8          3.1776   -0.8069    4.7330 C.3       1 <0>        -0.0604
      9 C9          1.8968   -0.0465    4.3838 C.3       1 <0>        -0.0912
     10 C10         1.4029    0.6915    5.6014 C.2       1 <0>        -0.1588
     11 C11         0.1703    0.5253    6.0128 C.2       1 <0>        -0.1402
     12 C12        -0.7918   -0.2990    5.1967 C.3       1 <0>        -0.1201
     13 C13        -0.2856    1.1586    7.3021 C.3       1 <0>        -0.1142
     14 C14         2.3425   -3.5015    4.1396 C.ar      1 <0>        -0.2686
     15 C15         1.9265   -4.7739    3.8957 C.ar      1 <0>         0.0514
     16 C16         2.3735   -5.4589    2.7499 C.ar      1 <0>        -0.3809
     17 C17         3.2690   -4.8470    1.8631 C.ar      1 <0>         0.3427
     18 O1          3.7077   -5.5138    0.7698 O.3       1 <0>        -0.6148
     19 C18         1.9086   -6.8176    2.4444 C.2       1 <0>         0.4051
     20 O2          2.0765   -7.2963    1.3420 O.2       1 <0>        -0.4553
     21 C19         1.2159   -7.6091    3.5330 C.3       1 <0>        -0.2170
     22 C20         0.3356   -6.6303    4.2865 C.2       1 <0>         0.3857
     23 C21         0.9939   -5.4159    4.8922 C.3       1 <0>        -0.0963
     24 H1          0.2275   -4.6977    5.1837 H         1 <0>         0.0999
     25 C22         1.7874   -5.8351    6.1314 C.3       1 <0>        -0.0924
     26 C23         0.8270   -6.3725    7.1943 C.3       1 <0>        -0.1044
     27 C24         1.6086   -6.7854    8.4148 C.2       1 <0>        -0.1547
     28 C25         1.2761   -6.3208    9.5937 C.2       1 <0>        -0.1418
     29 C26         0.0041   -5.5301    9.7606 C.3       1 <0>        -0.1270
     30 C27         2.1655   -6.5771   10.7829 C.3       1 <0>        -0.1145
     31 O3         -0.8524   -6.8169    4.3974 O.2       1 <0>        -0.4606
     32 O4          5.0771   -3.5259    0.1452 O.3       1 <0>        -0.4774
     33 H2          5.8976    0.4460    3.5445 H         1 <0>         0.0640
     34 H3          5.2047    0.9783    1.9938 H         1 <0>         0.0592
     35 H4          4.2102    1.0076    3.4697 H         1 <0>         0.0667
     36 H5          5.7008   -1.0978    0.8646 H         1 <0>         0.1136
     37 H6          2.9706   -1.5201    5.5309 H         1 <0>         0.0705
     38 H7          3.9399   -0.1018    5.0645 H         1 <0>         0.0633
     39 H8          2.1037    0.6667    3.5858 H         1 <0>         0.0661
     40 H9          1.1345   -0.7516    4.0522 H         1 <0>         0.0768
     41 H10         2.0651    1.3573    6.1348 H         1 <0>         0.1040
     42 H11        -0.6672   -1.3533    5.4438 H         1 <0>         0.0682
     43 H12        -1.8135    0.0082    5.4200 H         1 <0>         0.0564
     44 H13        -0.5906   -0.1481    4.1361 H         1 <0>         0.0668
     45 H14        -0.6808    2.1537    7.0983 H         1 <0>         0.0607
     46 H15        -1.0643    0.5437    7.7534 H         1 <0>         0.0606
     47 H16         0.5587    1.2362    7.9871 H         1 <0>         0.0592
     48 H17         1.9835   -2.9815    5.0155 H         1 <0>         0.1088
     49 H18         0.6053   -8.3965    3.0910 H         1 <0>         0.1001
     50 H19         2.5010   -6.6129    5.8598 H         1 <0>         0.0717
     51 H20         2.3233   -4.9729    6.5284 H         1 <0>         0.0819
     52 H21         0.1134   -5.5946    7.4658 H         1 <0>         0.0792
     53 H22         0.2912   -7.2346    6.7972 H         1 <0>         0.0674
     54 H23         2.4430   -7.4642    8.3176 H         1 <0>         0.1085
     55 H24        -0.5525   -5.5352    8.8234 H         1 <0>         0.0726
     56 H25        -0.6030   -5.9801   10.5461 H         1 <0>         0.0618
     57 H26         0.2477   -4.5032   10.0329 H         1 <0>         0.0621
     58 H27         2.8936   -5.7709   10.8725 H         1 <0>         0.0657
     59 H28         1.5590   -6.6211   11.6875 H         1 <0>         0.0575
     60 H29         2.6873   -7.5247   10.6489 H         1 <0>         0.0599
     61 H30         1.9548   -8.0437    4.2062 H         1 <0>         0.1209
     62 H31         5.8918   -4.0248    0.2953 H         1 <0>         0.3839
@<TRIPOS>BOND
     1    1    2 1
     2    1   33 1
     3    1   34 1
     4    1   35 1
     5    2    7 ar
     6    2    3 ar
     7    3    4 ar
     8    3   36 1
     9    4    5 ar
    10    4   32 1
    11    5   17 ar
    12    5    6 ar
    13    6    7 ar
    14    6   14 ar
    15    7    8 1
    16    8    9 1
    17    8   37 1
    18    8   38 1
    19    9   10 1
    20    9   39 1
    21    9   40 1
    22   10   11 2
    23   10   41 1
    24   11   12 1
    25   11   13 1
    26   12   42 1
    27   12   43 1
    28   12   44 1
    29   13   45 1
    30   13   46 1
    31   13   47 1
    32   14   15 ar
    33   14   48 1
    34   15   16 ar
    35   15   23 1
    36   16   17 ar
    37   16   19 1
    38   17   18 1
    39   19   20 2
    40   19   21 1
    41   21   49 1
    42   21   61 1
    43   21   22 1
    44   22   23 1
    45   22   31 2
    46   23   25 1
    47   23   24 1
    48   25   26 1
    49   25   50 1
    50   25   51 1
    51   26   27 1
    52   26   52 1
    53   26   53 1
    54   27   28 2
    55   27   54 1
    56   28   29 1
    57   28   30 1
    58   29   55 1
    59   29   56 1
    60   29   57 1
    61   30   58 1
    62   30   59 1
    63   30   60 1
    64   32   62 1
@<TRIPOS>MOLECULE
ZINC95486188
  110   117     0     0     0
SMALL
USER_CHARGES

@<TRIPOS>ATOM
      1 C1         -0.0184    1.5028    0.0103 C.3       1 <0>        -0.1226
      2 C2          0.0021   -0.0041    0.0020 C.ar      1 <0>        -0.0148
      3 C3          0.0054   -0.6685   -1.1880 C.ar      1 <0>        -0.1778
      4 C4          0.0244   -2.0701   -1.2081 C.ar      1 <0>         0.0261
      5 C5          0.0288   -2.7811   -2.4339 C.ar      1 <0>        -0.0899
      6 C6          0.0480   -4.1620   -2.4253 C.ar      1 <0>        -0.0344
      7 C7          0.0628   -4.8679   -1.2160 C.ar      1 <0>        -0.0861
      8 C8          0.0588   -4.1918   -0.0020 C.ar      1 <0>         0.1980
      9 C9          0.0399   -2.7847    0.0140 C.ar      1 <0>        -0.1076
     10 C10         0.0360   -2.0726    1.2305 C.ar      1 <0>         0.1755
     11 C11         0.0229   -0.6954    1.2092 C.ar      1 <0>        -0.2362
     12 O1          0.0507   -2.7388    2.4137 O.3       1 <0>        -0.2900
     13 C12         0.0456   -1.9477    3.6037 C.3       1 <0>         0.0222
     14 O2          0.0727   -4.8861    1.1644 O.3       1 <0>        -0.4609
     15 C13         0.0822   -6.3501   -1.2311 C.ar      1 <0>        -0.0981
     16 C14         1.1960   -7.0157   -1.7528 C.ar      1 <0>        -0.0735
     17 C15         1.2397   -8.4035   -1.7782 C.ar      1 <0>        -0.0107
     18 C16         0.1024   -9.1594   -1.2506 C.ar      1 <0>         0.0210
     19 C17         0.0987  -10.5591   -1.2533 C.ar      1 <0>        -0.1425
     20 C18        -0.9741  -11.2378   -0.7551 C.ar      1 <0>        -0.0327
     21 C19        -2.0744  -10.5593   -0.2397 C.ar      1 <0>        -0.2278
     22 C20        -2.1068   -9.1827   -0.2207 C.ar      1 <0>         0.1600
     23 C21        -1.0103   -8.4567   -0.7293 C.ar      1 <0>        -0.1033
     24 C22        -1.0031   -7.0501   -0.7217 C.ar      1 <0>         0.1774
     25 O3         -2.0669   -6.3725   -0.2176 O.3       1 <0>        -0.4669
     26 O4         -3.1855   -8.5300    0.2840 O.3       1 <0>        -0.2937
     27 C23        -4.2567   -9.3347    0.7810 C.3       1 <0>         0.0236
     28 C24        -0.9682  -12.7447   -0.7632 C.3       1 <0>        -0.1190
     29 C25         2.4084   -9.1020   -2.3263 C.2       1 <0>        -0.1823
     30 C26         3.3045   -9.7067   -1.5011 C.2       1 <0>         0.1711
     31 C27         4.4869  -10.3642   -2.0648 C.2       1 <0>        -0.3168
     32 C28         4.8910  -10.0701   -3.3118 C.2       1 <0>         0.1613
     33 C29         4.1337   -9.0432   -4.1022 C.3       1 <0>        -0.0310
     34 H1          4.4716   -8.0505   -3.8049 H         1 <0>         0.1022
     35 C30         2.6347   -9.1681   -3.8097 C.3       1 <0>        -0.0129
     36 H2          2.2767  -10.1284   -4.1808 H         1 <0>         0.0786
     37 C31         1.8948   -8.0559   -4.5494 C.3       1 <0>        -0.0929
     38 C32         2.1764   -8.2005   -6.0498 C.3       1 <0>         0.0725
     39 H3          1.7920   -9.1590   -6.3984 H         1 <0>         0.0478
     40 N1          3.6192   -8.1340   -6.3052 N.3       1 <0>        -0.5341
     41 C33         4.3441   -9.2060   -5.6047 C.3       1 <0>         0.0961
     42 H4          5.4072   -9.1350   -5.8350 H         1 <0>         0.0926
     43 C34         3.8076  -10.5665   -6.0540 C.3       1 <0>        -0.1916
     44 C35         3.9003   -8.1573   -7.7468 C.3       1 <0>         0.0175
     45 C36         1.4787   -7.0690   -6.8074 C.3       1 <0>        -0.1452
     46 O5          5.9675  -10.6916   -3.8484 O.3       1 <0>        -0.4665
     47 O6          3.1043   -9.7011   -0.1580 O.3       1 <0>        -0.4650
     48 C37         0.0124   -2.0461   -3.7195 C.ar      1 <0>        -0.0254
     49 C38         1.2164   -1.6871   -4.3346 C.ar      1 <0>        -0.0663
     50 C39         1.2007   -1.0029   -5.5287 C.ar      1 <0>        -0.1231
     51 C40        -0.0111   -0.6738   -6.1223 C.ar      1 <0>        -0.1073
     52 C41        -1.2088   -1.0238   -5.5237 C.ar      1 <0>         0.0984
     53 C42        -1.2043   -1.7172   -4.3192 C.ar      1 <0>         0.1269
     54 O7         -2.3766   -2.0680   -3.7266 O.3       1 <0>        -0.4779
     55 O8         -2.3881   -0.6942   -6.1155 O.3       1 <0>        -0.4849
     56 C43         2.4733   -0.5890   -6.2205 C.3       1 <0>         0.0851
     57 H5          2.6547    0.4698   -6.0355 H         1 <0>         0.1469
     58 N2          3.6095   -1.3682   -5.7210 N.4       1 <0>        -0.5036
     59 C44         3.6614   -1.2534   -4.2555 C.3       1 <0>         0.0316
     60 H6          3.5568   -0.2076   -3.9664 H         1 <0>         0.1417
     61 C45         2.5110   -2.0677   -3.6625 C.3       1 <0>        -0.1002
     62 C46         4.9974   -1.7965   -3.7445 C.3       1 <0>        -0.1823
     63 C47         2.3271   -0.8201   -7.7258 C.3       1 <0>        -0.1840
     64 H7          1.0042    1.8801    0.0026 H         1 <0>         0.0751
     65 H8         -0.5455    1.8639   -0.8728 H         1 <0>         0.0692
     66 H9         -0.5286    1.8543    0.9071 H         1 <0>         0.0715
     67 H10        -0.0069   -0.1152   -2.1154 H         1 <0>         0.1205
     68 H11         0.0514   -4.7027   -3.3602 H         1 <0>         0.1264
     69 H12         0.0246   -0.1466    2.1393 H         1 <0>         0.1320
     70 H13         0.0587   -2.6022    4.4752 H         1 <0>         0.1066
     71 H14         0.9271   -1.3066    3.6176 H         1 <0>         0.0576
     72 H15        -0.8527   -1.3308    3.6261 H         1 <0>         0.0593
     73 H16         0.9601   -5.0756    1.4987 H         1 <0>         0.3903
     74 H17         2.0283   -6.4462   -2.1393 H         1 <0>         0.1205
     75 H18         0.9445  -11.1011   -1.6499 H         1 <0>         0.1248
     76 H19        -2.9124  -11.1186    0.1493 H         1 <0>         0.1288
     77 H20        -2.7517   -6.1734   -0.8706 H         1 <0>         0.3841
     78 H21        -3.8912   -9.9662    1.5908 H         1 <0>         0.0568
     79 H22        -5.0526   -8.6901    1.1539 H         1 <0>         0.1029
     80 H23        -4.6432   -9.9616   -0.0225 H         1 <0>         0.0558
     81 H24        -0.5322  -13.1114    0.1661 H         1 <0>         0.0742
     82 H25        -1.9905  -13.1116   -0.8544 H         1 <0>         0.0677
     83 H26        -0.3775  -13.1012   -1.6071 H         1 <0>         0.0683
     84 H27         5.0345  -11.0858   -1.4767 H         1 <0>         0.1298
     85 H28         0.8237   -8.1445   -4.3675 H         1 <0>         0.0760
     86 H29         2.2495   -7.0857   -4.2019 H         1 <0>         0.0725
     87 H30         2.7430  -10.6297   -5.8286 H         1 <0>         0.0621
     88 H31         3.9591  -10.6804   -7.1274 H         1 <0>         0.0594
     89 H32         4.3384  -11.3588   -5.5261 H         1 <0>         0.0689
     90 H33         3.3640   -7.3433   -8.2347 H         1 <0>         0.0722
     91 H34         4.9711   -8.0364   -7.9103 H         1 <0>         0.0679
     92 H35         3.5741   -9.1095   -8.1653 H         1 <0>         0.0315
     93 H36         1.8573   -6.1091   -6.4562 H         1 <0>         0.0571
     94 H37         1.6775   -7.1696   -7.8744 H         1 <0>         0.0585
     95 H38         0.4044   -7.1223   -6.6314 H         1 <0>         0.0605
     96 H39         6.3847  -11.3346   -3.2589 H         1 <0>         0.4026
     97 H40         3.7944  -10.1555    0.3444 H         1 <0>         0.3943
     98 H41        -0.0188   -0.1389   -7.0605 H         1 <0>         0.1452
     99 H42        -2.7241   -1.4022   -3.1175 H         1 <0>         0.4029
    100 H43        -2.7238   -1.3660   -6.7246 H         1 <0>         0.4024
    101 H44         3.4947   -2.3366   -5.9800 H         1 <0>         0.4281
    102 H45         2.4374   -1.8660   -2.5939 H         1 <0>         0.1253
    103 H46         2.7012   -3.1297   -3.8175 H         1 <0>         0.1076
    104 H47         5.8142   -1.2222   -4.1818 H         1 <0>         0.0849
    105 H48         5.0332   -1.7102   -2.6586 H         1 <0>         0.1078
    106 H49         5.0965   -2.8440   -4.0293 H         1 <0>         0.0847
    107 H50         1.4953   -0.2267   -8.1054 H         1 <0>         0.1085
    108 H51         3.2462   -0.5217   -8.2302 H         1 <0>         0.0871
    109 H52         2.1357   -1.8764   -7.9144 H         1 <0>         0.0856
    110 H53         4.4652   -1.0102   -6.1183 H         1 <0>         0.4314
@<TRIPOS>BOND
     1    1    2 1
     2    1   64 1
     3    1   65 1
     4    1   66 1
     5    2   11 ar
     6    2    3 ar
     7    3    4 ar
     8    3   67 1
     9    4    9 ar
    10    4    5 ar
    11    5    6 ar
    12    5   48 1
    13    6    7 ar
    14    6   68 1
    15    7    8 ar
    16    7   15 1
    17    8    9 ar
    18    8   14 1
    19    9   10 ar
    20   10   11 ar
    21   10   12 1
    22   11   69 1
    23   12   13 1
    24   13   70 1
    25   13   71 1
    26   13   72 1
    27   14   73 1
    28   15   24 ar
    29   15   16 ar
    30   16   17 ar
    31   16   74 1
    32   17   18 ar
    33   17   29 1
    34   18   23 ar
    35   18   19 ar
    36   19   20 ar
    37   19   75 1
    38   20   21 ar
    39   20   28 1
    40   21   22 ar
    41   21   76 1
    42   22   23 ar
    43   22   26 1
    44   23   24 ar
    45   24   25 1
    46   25   77 1
    47   26   27 1
    48   27   78 1
    49   27   79 1
    50   27   80 1
    51   28   81 1
    52   28   82 1
    53   28   83 1
    54   29   35 1
    55   29   30 2
    56   30   31 1
    57   30   47 1
    58   31   32 2
    59   31   84 1
    60   32   33 1
    61   32   46 1
    62   33   34 1
    63   33   41 1
    64   33   35 1
    65   35   36 1
    66   35   37 1
    67   37   38 1
    68   37   85 1
    69   37   86 1
    70   38   39 1
    71   38   40 1
    72   38   45 1
    73   40   41 1
    74   40   44 1
    75   41   42 1
    76   41   43 1
    77   43   87 1
    78   43   88 1
    79   43   89 1
    80   44   90 1
    81   44   91 1
    82   44   92 1
    83   45   93 1
    84   45   94 1
    85   45   95 1
    86   46   96 1
    87   47   97 1
    88   48   53 ar
    89   48   49 ar
    90   49   61 1
    91   49   50 ar
    92   50   51 ar
    93   50   56 1
    94   51   52 ar
    95   51   98 1
    96   52   53 ar
    97   52   55 1
    98   53   54 1
    99   54   99 1
   100   55  100 1
   101   56   57 1
   102   56   58 1
   103   56   63 1
   104   58   59 1
   105   58  101 1
   106   58  110 1
   107   59   60 1
   108   59   61 1
   109   59   62 1
   110   61  102 1
   111   61  103 1
   112   62  104 1
   113   62  105 1
   114   62  106 1
   115   63  107 1
   116   63  108 1
   117   63  109 1
@<TRIPOS>MOLECULE
ZINC95486194
   46    47     0     0     0
SMALL
USER_CHARGES

@<TRIPOS>ATOM
      1 C1         -1.0871   -1.8903    2.1664 C.3       1 <0>        -0.1206
      2 C2          0.0597   -2.0205    1.1974 C.ar      1 <0>         0.0289
      3 C3         -0.1086   -2.7297    0.0297 C.ar      1 <0>        -0.2736
      4 C4          0.9387   -2.8591   -0.8730 C.ar      1 <0>         0.1987
      5 C5          2.1832   -2.2637   -0.5984 C.ar      1 <0>        -0.3300
      6 C6          2.3579   -1.5395    0.5913 C.ar      1 <0>         0.3461
      7 C7          1.2877   -1.4148    1.4876 C.ar      1 <0>        -0.2802
      8 C8          1.4569   -0.6536    2.7355 C.2       1 <0>         0.5670
      9 O1          1.8425   -1.2149    3.7422 O.2       1 <0>        -0.5029
     10 O2          1.1841    0.6666    2.7620 O.3       1 <0>        -0.2944
     11 C9          1.2508    1.3071    3.9567 C.ar      1 <0>         0.1314
     12 C10         0.1000    1.4602    4.7258 C.ar      1 <0>        -0.1310
     13 C11         0.1537    2.1017    5.9289 C.ar      1 <0>        -0.0365
     14 C12         1.3715    2.6122    6.3986 C.ar      1 <0>        -0.1867
     15 C13         2.5353    2.4592    5.6242 C.ar      1 <0>         0.1501
     16 C14         2.4660    1.8008    4.4082 C.ar      1 <0>        -0.1116
     17 C15         3.7083    1.6258    3.5732 C.3       1 <0>        -0.1118
     18 O3          3.7192    2.9493    6.0680 O.3       1 <0>        -0.4860
     19 C16         1.4316    3.3024    7.6898 C.2       1 <0>         0.4183
     20 O4          1.2470    4.5002    7.7465 O.2       1 <0>        -0.4466
     21 C17         1.7227    2.5244    8.9472 C.3       1 <0>        -0.1996
     22 C18        -1.0977    2.2618    6.7531 C.3       1 <0>        -0.1186
     23 O5          3.5497   -0.9615    0.8683 O.3       1 <0>        -0.6850
     24 C19         3.2899   -2.3991   -1.5477 C.2       1 <0>         0.4539
     25 O6          3.4108   -1.6037   -2.4561 O.2       1 <0>        -0.4834
     26 C20         4.2788   -3.5262   -1.3965 C.3       1 <0>        -0.1897
     27 O7          0.7619   -3.5595   -2.0184 O.3       1 <0>        -0.5071
     28 H1         -1.6719   -1.0040    1.9202 H         1 <0>         0.0714
     29 H2         -1.7214   -2.7742    2.0995 H         1 <0>         0.0690
     30 H3         -0.6975   -1.7985    3.1802 H         1 <0>         0.0586
     31 H4         -1.0619   -3.1892   -0.1859 H         1 <0>         0.1162
     32 H5         -0.8408    1.0691    4.3677 H         1 <0>         0.1372
     33 H6          3.8186    2.4782    2.9029 H         1 <0>         0.0764
     34 H7          4.5788    1.5620    4.2261 H         1 <0>         0.0664
     35 H8          3.6260    0.7107    2.9868 H         1 <0>         0.0871
     36 H9          4.2598    2.3026    6.5419 H         1 <0>         0.3913
     37 H10         2.7896    2.5726    9.1655 H         1 <0>         0.0986
     38 H11         1.1622    2.9533    9.7778 H         1 <0>         0.0893
     39 H12         1.4271    1.4846    8.8077 H         1 <0>         0.0867
     40 H13        -1.2015    1.4101    7.4253 H         1 <0>         0.0786
     41 H14        -1.0331    3.1799    7.3372 H         1 <0>         0.0670
     42 H15        -1.9637    2.3114    6.0930 H         1 <0>         0.0769
     43 H16         3.9769   -4.3616   -2.0282 H         1 <0>         0.0867
     44 H17         5.2691   -3.1833   -1.6963 H         1 <0>         0.0762
     45 H18         4.3056   -3.8488   -0.3557 H         1 <0>         0.0807
     46 H19         0.4481   -3.0259   -2.7613 H         1 <0>         0.3866
@<TRIPOS>BOND
     1    1    2 1
     2    1   28 1
     3    1   29 1
     4    1   30 1
     5    2    7 ar
     6    2    3 ar
     7    3    4 ar
     8    3   31 1
     9    4    5 ar
    10    4   27 1
    11    5    6 ar
    12    5   24 1
    13    6    7 ar
    14    6   23 1
    15    7    8 1
    16    8    9 2
    17    8   10 1
    18   10   11 1
    19   11   16 ar
    20   11   12 ar
    21   12   13 ar
    22   12   32 1
    23   13   14 ar
    24   13   22 1
    25   14   15 ar
    26   14   19 1
    27   15   16 ar
    28   15   18 1
    29   16   17 1
    30   17   33 1
    31   17   34 1
    32   17   35 1
    33   18   36 1
    34   19   20 2
    35   19   21 1
    36   21   37 1
    37   21   38 1
    38   21   39 1
    39   22   40 1
    40   22   41 1
    41   22   42 1
    42   24   25 2
    43   24   26 1
    44   26   43 1
    45   26   44 1
    46   26   45 1
    47   27   46 1
@<TRIPOS>MOLECULE
ZINC95486194
   46    47     0     0     0
SMALL
USER_CHARGES

@<TRIPOS>ATOM
      1 C1         -1.0899   -1.9778    2.3064 C.3       1 <0>        -0.1185
      2 C2          0.0642   -2.1366    1.3503 C.ar      1 <0>         0.0190
      3 C3         -0.1015   -2.8627    0.1926 C.ar      1 <0>        -0.2547
      4 C4          0.9525   -3.0184   -0.6980 C.ar      1 <0>         0.3285
      5 C5          2.2011   -2.4327   -0.4215 C.ar      1 <0>        -0.3376
      6 C6          2.3732   -1.6912    0.7579 C.ar      1 <0>         0.2253
      7 C7          1.2964   -1.5401    1.6422 C.ar      1 <0>        -0.2851
      8 C8          1.4628   -0.7606    2.8791 C.2       1 <0>         0.5519
      9 O1          1.8328   -1.3098    3.8983 O.2       1 <0>        -0.4930
     10 O2          1.2048    0.5628    2.8819 O.3       1 <0>        -0.2967
     11 C9          1.2679    1.2218    4.0667 C.ar      1 <0>         0.1291
     12 C10         0.1122    1.3997    4.8228 C.ar      1 <0>        -0.1285
     13 C11         0.1622    2.0599    6.0158 C.ar      1 <0>        -0.0324
     14 C12         1.3814    2.5649    6.4882 C.ar      1 <0>        -0.1853
     15 C13         2.5502    2.3868    5.7268 C.ar      1 <0>         0.1511
     16 C14         2.4844    1.7097    4.5210 C.ar      1 <0>        -0.1151
     17 C15         3.7320    1.5078    3.7002 C.3       1 <0>        -0.1082
     18 O3          3.7355    2.8713    6.1733 O.3       1 <0>        -0.4854
     19 C16         1.4376    3.2752    7.7686 C.2       1 <0>         0.4153
     20 O4          1.2456    4.4726    7.8070 O.2       1 <0>        -0.4430
     21 C17         1.7340    2.5184    9.0376 C.3       1 <0>        -0.1989
     22 C18        -1.0945    2.2469    6.8261 C.3       1 <0>        -0.1215
     23 O5          3.5689   -1.1222    1.0367 O.3       1 <0>        -0.5034
     24 C19         3.3148   -2.5958   -1.3582 C.2       1 <0>         0.4528
     25 O6          3.4412   -1.8288   -2.2899 O.2       1 <0>        -0.4815
     26 C20         4.3040   -3.7162   -1.1650 C.3       1 <0>        -0.1893
     27 O7          0.7781   -3.7352   -1.8337 O.3       1 <0>        -0.6885
     28 H1         -1.6622   -1.0891    2.0405 H         1 <0>         0.0702
     29 H2         -1.7335   -2.8555    2.2479 H         1 <0>         0.0704
     30 H3         -0.7085   -1.8739    3.3222 H         1 <0>         0.0551
     31 H4         -1.0580   -3.3148   -0.0243 H         1 <0>         0.1148
     32 H5         -0.8297    1.0129    4.4626 H         1 <0>         0.1392
     33 H6          3.8575    2.3480    3.0172 H         1 <0>         0.0782
     34 H7          4.5960    1.4452    4.3617 H         1 <0>         0.0713
     35 H8          3.6450    0.5843    3.1278 H         1 <0>         0.0725
     36 H9          4.2343    2.2485    6.7194 H         1 <0>         0.3916
     37 H10         2.7115    2.0428    8.9572 H         1 <0>         0.0930
     38 H11         1.7344    3.2091    9.8809 H         1 <0>         0.0862
     39 H12         0.9706    1.7560    9.1928 H         1 <0>         0.0959
     40 H13        -1.2298    1.3924    7.4892 H         1 <0>         0.0801
     41 H14        -1.0123    3.1576    7.4193 H         1 <0>         0.0681
     42 H15        -1.9505    2.3258    6.1560 H         1 <0>         0.0789
     43 H16         3.6664   -0.2235    0.6932 H         1 <0>         0.3863
     44 H17         3.9801   -4.3482   -0.3381 H         1 <0>         0.0763
     45 H18         4.3613   -4.3114   -2.0763 H         1 <0>         0.0828
     46 H19         5.2858   -3.2994   -0.9408 H         1 <0>         0.0829
@<TRIPOS>BOND
     1    1    2 1
     2    1   28 1
     3    1   29 1
     4    1   30 1
     5    2    7 ar
     6    2    3 ar
     7    3    4 ar
     8    3   31 1
     9    4    5 ar
    10    4   27 1
    11    5    6 ar
    12    5   24 1
    13    6    7 ar
    14    6   23 1
    15    7    8 1
    16    8    9 2
    17    8   10 1
    18   10   11 1
    19   11   16 ar
    20   11   12 ar
    21   12   13 ar
    22   12   32 1
    23   13   14 ar
    24   13   22 1
    25   14   15 ar
    26   14   19 1
    27   15   16 ar
    28   15   18 1
    29   16   17 1
    30   17   33 1
    31   17   34 1
    32   17   35 1
    33   18   36 1
    34   19   20 2
    35   19   21 1
    36   21   37 1
    37   21   38 1
    38   21   39 1
    39   22   40 1
    40   22   41 1
    41   22   42 1
    42   23   43 1
    43   24   25 2
    44   24   26 1
    45   26   44 1
    46   26   45 1
    47   26   46 1
@<TRIPOS>MOLECULE
ZINC95486198
   77    83     0     0     0
SMALL
USER_CHARGES

@<TRIPOS>ATOM
      1 C1         -0.0173    1.4248    0.0099 C.3       1 <0>         0.0186
      2 O1          0.0021   -0.0041    0.0020 O.3       1 <0>        -0.2908
      3 C2         -1.2029   -0.6388    0.0101 C.ar      1 <0>         0.1748
      4 C3         -2.3705    0.1064    0.0248 C.ar      1 <0>        -0.2208
      5 C4         -3.6018   -0.5278    0.0797 C.ar      1 <0>        -0.0023
      6 C5         -3.6413   -1.9033    0.0832 C.ar      1 <0>        -0.1953
      7 C6         -2.4902   -2.6670   -0.0495 C.ar      1 <0>         0.1543
      8 C7         -1.2463   -2.0304    0.0031 C.ar      1 <0>         0.0081
      9 O2         -0.0805   -2.7231    0.1123 O.3       1 <0>        -0.2982
     10 C8          0.3550   -3.0562    1.4320 C.3       1 <0>         0.0325
     11 O3         -2.6009   -3.9814   -0.3283 O.3       1 <0>        -0.1389
     12 O4         -1.4748   -4.8740   -0.1882 O.3       1 <0>        -0.0778
     13 C9         -0.6032   -5.0363   -1.2023 C.ar      1 <0>         0.0738
     14 C10        -0.3311   -4.0077   -2.0908 C.ar      1 <0>        -0.1267
     15 C11         0.6593   -4.1470   -3.0434 C.ar      1 <0>        -0.0910
     16 C12         1.3701   -5.3278   -3.1266 C.ar      1 <0>        -0.1204
     17 C13         1.0360   -6.3911   -2.3066 C.ar      1 <0>        -0.0423
     18 C14         0.0043   -6.2821   -1.3987 C.ar      1 <0>        -0.0812
     19 C15        -0.5652   -7.4782   -0.7011 C.3       1 <0>         0.0827
     20 H1         -1.6389   -7.5089   -0.9470 H         1 <0>         0.1065
     21 C16        -0.4056   -7.4178    0.8099 C.3       1 <0>        -0.1030
     22 C17        -1.7748   -7.4445    1.4461 C.ar      1 <0>        -0.0595
     23 C18        -2.8170   -8.1028    0.8180 C.ar      1 <0>        -0.1060
     24 C19        -4.0853   -8.0908    1.3672 C.ar      1 <0>        -0.1090
     25 C20        -4.3088   -7.4282    2.5640 C.ar      1 <0>         0.0645
     26 C21        -3.2512   -6.8243    3.2286 C.ar      1 <0>        -0.1267
     27 C22        -1.9884   -6.8255    2.6638 C.ar      1 <0>        -0.1022
     28 O5         -5.5739   -7.3415    3.0668 O.3       1 <0>        -0.2395
     29 C23        -6.1974   -6.1451    2.8384 C.ar      1 <0>         0.1023
     30 C24        -5.4406   -5.0702    2.3999 C.ar      1 <0>        -0.1666
     31 C25        -6.0419   -3.8401    2.1893 C.ar      1 <0>        -0.0939
     32 C26        -7.4053   -3.6930    2.3760 C.ar      1 <0>        -0.1378
     33 C27        -8.1638   -4.7699    2.7968 C.ar      1 <0>        -0.1044
     34 C28        -7.5623   -5.9966    3.0357 C.ar      1 <0>         0.1030
     35 O6         -8.3083   -7.0500    3.4645 O.3       1 <0>        -0.4842
     36 C29        -5.1969   -2.6617    1.7980 C.3       1 <0>        -0.0998
     37 C30        -4.9613   -2.6007    0.2867 C.3       1 <0>         0.1016
     38 H2         -4.9269   -3.6023   -0.1244 H         1 <0>         0.1513
     39 N1         -6.0563   -1.8371   -0.3344 N.4       1 <0>        -0.5007
     40 C31        -6.1371   -0.5031    0.2557 C.3       1 <0>        -0.0143
     41 C32        -4.8555    0.2941    0.0993 C.3       1 <0>        -0.1036
     42 N2          0.0251   -8.7309   -1.2285 N.3       1 <0>        -0.6019
     43 C33         1.5090   -8.5648   -1.2175 C.3       1 <0>         0.0078
     44 C34         1.8413   -7.6627   -2.4093 C.3       1 <0>        -0.0803
     45 H3          1.0053    1.8021    0.0021 H         1 <0>         0.1127
     46 H4         -0.5445    1.7859   -0.8732 H         1 <0>         0.0633
     47 H5         -0.5275    1.7763    0.9067 H         1 <0>         0.0625
     48 H6         -2.3252    1.1840    0.0032 H         1 <0>         0.1484
     49 H7         -0.3996   -3.6742    1.9185 H         1 <0>         0.0464
     50 H8          1.2945   -3.6061    1.3766 H         1 <0>         0.0998
     51 H9          0.5023   -2.1422    2.0074 H         1 <0>         0.0498
     52 H10        -0.9081   -3.0943   -2.0573 H         1 <0>         0.1213
     53 H11         0.8745   -3.3362   -3.7255 H         1 <0>         0.1305
     54 H12         2.1827   -5.4233   -3.8299 H         1 <0>         0.1322
     55 H13         0.1728   -8.2754    1.1607 H         1 <0>         0.0918
     56 H14         0.1094   -6.4988    1.0953 H         1 <0>         0.0829
     57 H15        -2.6449   -8.6506   -0.0974 H         1 <0>         0.1374
     58 H16        -4.8961   -8.5951    0.8631 H         1 <0>         0.1345
     59 H17        -3.4137   -6.3565    4.1873 H         1 <0>         0.1301
     60 H18        -1.1668   -6.3450    3.1745 H         1 <0>         0.1283
     61 H19        -4.3844   -5.1765    2.2098 H         1 <0>         0.1440
     62 H20        -7.8741   -2.7379    2.1960 H         1 <0>         0.1277
     63 H21        -9.2291   -4.6538    2.9388 H         1 <0>         0.1448
     64 H22        -8.3770   -7.1175    4.4267 H         1 <0>         0.3979
     65 H23        -5.6711   -1.7506    2.1516 H         1 <0>         0.1027
     66 H24        -4.2254   -2.7494    2.2998 H         1 <0>         0.1124
     67 H25        -5.8985   -1.7620   -1.3362 H         1 <0>         0.4348
     68 H26        -6.9423    0.0469   -0.2592 H         1 <0>         0.1411
     69 H27        -6.4171   -0.5518    1.3028 H         1 <0>         0.1384
     70 H28        -4.7867    1.0127    0.9186 H         1 <0>         0.1253
     71 H29        -4.9116    0.8540   -0.8374 H         1 <0>         0.1122
     72 H30        -0.1250   -9.3999   -0.4119 H         1 <0>         0.3241
     73 H31         1.8006   -8.0880   -0.2855 H         1 <0>         0.0534
     74 H32         1.9718   -9.5385   -1.3295 H         1 <0>         0.0922
     75 H33         1.5891   -8.1757   -3.3382 H         1 <0>         0.0918
     76 H34         2.9041   -7.4234   -2.3994 H         1 <0>         0.0859
     77 H35        -6.9361   -2.3265   -0.1924 H         1 <0>         0.4366
@<TRIPOS>BOND
     1    1    2 1
     2    1   45 1
     3    1   46 1
     4    1   47 1
     5    2    3 1
     6    3    8 ar
     7    3    4 ar
     8    4    5 ar
     9    4   48 1
    10    5   41 1
    11    5    6 ar
    12    6   37 1
    13    6    7 ar
    14    7    8 ar
    15    7   11 1
    16    8    9 1
    17    9   10 1
    18   10   49 1
    19   10   50 1
    20   10   51 1
    21   11   12 1
    22   12   13 1
    23   13   18 ar
    24   13   14 ar
    25   14   15 ar
    26   14   52 1
    27   15   16 ar
    28   15   53 1
    29   16   17 ar
    30   16   54 1
    31   17   44 1
    32   17   18 ar
    33   18   19 1
    34   19   20 1
    35   19   21 1
    36   19   42 1
    37   21   22 1
    38   21   55 1
    39   21   56 1
    40   22   27 ar
    41   22   23 ar
    42   23   24 ar
    43   23   57 1
    44   24   25 ar
    45   24   58 1
    46   25   26 ar
    47   25   28 1
    48   26   27 ar
    49   26   59 1
    50   27   60 1
    51   28   29 1
    52   29   34 ar
    53   29   30 ar
    54   30   31 ar
    55   30   61 1
    56   31   32 ar
    57   31   36 1
    58   32   33 ar
    59   32   62 1
    60   33   34 ar
    61   33   63 1
    62   34   35 1
    63   35   64 1
    64   36   37 1
    65   36   65 1
    66   36   66 1
    67   37   38 1
    68   37   39 1
    69   39   40 1
    70   39   67 1
    71   39   77 1
    72   40   41 1
    73   40   68 1
    74   40   69 1
    75   41   70 1
    76   41   71 1
    77   42   43 1
    78   42   72 1
    79   43   44 1
    80   43   73 1
    81   43   74 1
    82   44   75 1
    83   44   76 1
@<TRIPOS>MOLECULE
ZINC95486206
   48    51     0     0     0
SMALL
USER_CHARGES

@<TRIPOS>ATOM
      1 C1         -4.0982    0.8543   -2.9463 C.3       1 <0>        -0.1423
      2 C2         -4.6934    0.5504   -1.5699 C.3       1 <0>         0.1292
      3 H1         -4.8205    1.4825   -1.0193 H         1 <0>         0.0461
      4 C3         -3.7556   -0.3515   -0.8108 C.ar      1 <0>        -0.0981
      5 C4         -2.3886   -0.0893   -0.8741 C.ar      1 <0>         0.1150
      6 C5         -1.4863   -0.8883   -0.1898 C.ar      1 <0>        -0.1460
      7 C6         -1.9408   -1.9522    0.5615 C.ar      1 <0>        -0.0879
      8 C7         -3.3051   -2.2190    0.6265 C.ar      1 <0>        -0.0517
      9 C8         -4.2134   -1.4138   -0.0673 C.ar      1 <0>        -0.0368
     10 C9         -5.6809   -1.7451    0.0212 C.3       1 <0>        -0.0757
     11 C10        -6.5152   -0.5490   -0.4379 C.3       1 <0>         0.0527
     12 N1         -5.9998   -0.0936   -1.7391 N.3       1 <0>        -0.6811
     13 C11        -3.7973   -3.3626    1.4337 C.ar      1 <0>        -0.1006
     14 C12        -4.2137   -4.5336    0.7986 C.ar      1 <0>        -0.0262
     15 C13        -4.6726   -5.6035    1.5362 C.ar      1 <0>        -0.2263
     16 C14        -4.7253   -5.5212    2.9208 C.ar      1 <0>         0.1887
     17 C15        -4.3114   -4.3455    3.5675 C.ar      1 <0>        -0.2047
     18 C16        -3.8366   -3.2653    2.8220 C.ar      1 <0>         0.0224
     19 C17        -3.3659   -1.9980    3.4813 C.3       1 <0>        -0.0877
     20 C18        -3.9699   -1.8420    4.8743 C.3       1 <0>        -0.1145
     21 C19        -3.6671   -3.0969    5.7036 C.3       1 <0>        -0.1637
     22 C20        -4.3800   -4.2571    5.0355 C.2       1 <0>         0.3980
     23 O1         -4.9736   -5.0902    5.6872 O.2       1 <0>        -0.4370
     24 O2         -5.1758   -6.5736    3.6473 O.3       1 <0>        -0.2877
     25 C21        -5.5805   -7.7367    2.9223 C.3       1 <0>         0.0208
     26 O3         -1.9365    0.9577   -1.6129 O.3       1 <0>        -0.4901
     27 H2         -4.8634    1.2980   -3.5831 H         1 <0>         0.0508
     28 H3         -3.2674    1.5513   -2.8370 H         1 <0>         0.0854
     29 H4         -3.7398   -0.0701   -3.3992 H         1 <0>         0.0591
     30 H5         -0.4284   -0.6785   -0.2451 H         1 <0>         0.1314
     31 H6         -1.2404   -2.5759    1.0971 H         1 <0>         0.1278
     32 H7         -5.8972   -2.6029   -0.6157 H         1 <0>         0.0847
     33 H8         -5.9352   -1.9891    1.0526 H         1 <0>         0.0789
     34 H9         -7.5582   -0.8481   -0.5415 H         1 <0>         0.0814
     35 H10        -6.4329    0.2565    0.2918 H         1 <0>         0.0364
     36 H11        -4.1764   -4.6016   -0.2787 H         1 <0>         0.1311
     37 H12        -4.9917   -6.5062    1.0367 H         1 <0>         0.1372
     38 H13        -2.2792   -2.0207    3.5637 H         1 <0>         0.0896
     39 H14        -3.6587   -1.1461    2.8676 H         1 <0>         0.0861
     40 H15        -3.5362   -0.9697    5.3631 H         1 <0>         0.0822
     41 H16        -5.0490   -1.7129    4.7904 H         1 <0>         0.0703
     42 H17        -2.5921   -3.2758    5.7259 H         1 <0>         0.1018
     43 H18        -4.0424   -2.9694    6.7190 H         1 <0>         0.0944
     44 H19        -6.3949   -7.4778    2.2456 H         1 <0>         0.0589
     45 H20        -4.7370   -8.1178    2.3467 H         1 <0>         0.0584
     46 H21        -5.9184   -8.5015    3.6216 H         1 <0>         0.1048
     47 H22        -1.8742    1.7881   -1.1214 H         1 <0>         0.3870
     48 H23        -6.6542    0.5288   -2.1890 H         1 <0>         0.3476
@<TRIPOS>BOND
     1    1    2 1
     2    1   27 1
     3    1   28 1
     4    1   29 1
     5    2    3 1
     6    2   12 1
     7    2    4 1
     8    4    9 ar
     9    4    5 ar
    10    5    6 ar
    11    5   26 1
    12    6    7 ar
    13    6   30 1
    14    7    8 ar
    15    7   31 1
    16    8    9 ar
    17    8   13 1
    18    9   10 1
    19   10   11 1
    20   10   32 1
    21   10   33 1
    22   11   12 1
    23   11   34 1
    24   11   35 1
    25   12   48 1
    26   13   18 ar
    27   13   14 ar
    28   14   15 ar
    29   14   36 1
    30   15   16 ar
    31   15   37 1
    32   16   17 ar
    33   16   24 1
    34   17   18 ar
    35   17   22 1
    36   18   19 1
    37   19   20 1
    38   19   38 1
    39   19   39 1
    40   20   40 1
    41   20   41 1
    42   20   21 1
    43   21   42 1
    44   21   43 1
    45   21   22 1
    46   22   23 2
    47   24   25 1
    48   25   44 1
    49   25   45 1
    50   25   46 1
    51   26   47 1
@<TRIPOS>MOLECULE
ZINC95486207
   82    88     0     0     0
SMALL
USER_CHARGES

@<TRIPOS>ATOM
      1 C1         -0.0178    1.4648    0.0101 C.3       1 <0>         0.0156
      2 N1          0.0021   -0.0041    0.0020 N.3       1 <0>        -0.5144
      3 C2          0.6979   -0.5136   -1.1837 C.3       1 <0>         0.1227
      4 H1          0.3375    0.0152   -2.0661 H         1 <0>         0.1054
      5 C3          0.3972   -2.0050   -1.3333 C.3       1 <0>        -0.0673
      6 C4          0.6694   -2.7146   -0.0314 C.ar      1 <0>        -0.0552
      7 C5          0.8174   -4.0935   -0.0481 C.ar      1 <0>        -0.1312
      8 C6          1.0651   -4.7848    1.1243 C.ar      1 <0>         0.0845
      9 C7          1.1651   -4.0887    2.3256 C.ar      1 <0>         0.0828
     10 C8          1.0174   -2.7137    2.3361 C.ar      1 <0>        -0.1197
     11 C9          0.7701   -2.0234    1.1573 C.ar      1 <0>        -0.0598
     12 C10         0.6219   -0.5279    1.2232 C.3       1 <0>         0.1257
     13 H2          0.0021   -0.2662    2.0808 H         1 <0>         0.1043
     14 C11         1.9939    0.1225    1.4019 C.3       1 <0>        -0.1018
     15 C12         2.7905   -0.0062    0.1286 C.ar      1 <0>        -0.0999
     16 C13         2.1851   -0.3210   -1.0640 C.ar      1 <0>        -0.0569
     17 C14         2.9576   -0.4278   -2.2117 C.ar      1 <0>        -0.1881
     18 C15         4.3308   -0.2606   -2.1540 C.ar      1 <0>         0.1221
     19 C16         4.9424    0.0166   -0.9373 C.ar      1 <0>         0.0637
     20 C17         4.1673    0.1809    0.1855 C.ar      1 <0>         0.1058
     21 O1          4.7629    0.4699    1.3732 O.3       1 <0>        -0.2496
     22 C18         5.1929   -0.5662    2.1400 C.ar      1 <0>         0.1299
     23 C19         5.0250   -1.8728    1.7032 C.ar      1 <0>        -0.1776
     24 C20         5.4666   -2.9187    2.4863 C.ar      1 <0>        -0.0807
     25 C21         6.0755   -2.6731    3.7084 C.ar      1 <0>        -0.1072
     26 C22         6.2404   -1.3763    4.1470 C.ar      1 <0>        -0.0751
     27 C23         5.8057   -0.3222    3.3583 C.ar      1 <0>        -0.1384
     28 C24         6.8849   -1.0611    5.4715 C.3       1 <0>         0.1346
     29 H3          6.1119   -0.8019    6.1950 H         1 <0>         0.0971
     30 N2          7.6398   -2.2177    5.9637 N.3       1 <0>        -0.6658
     31 C25         6.7873   -3.4171    5.9718 C.3       1 <0>         0.0557
     32 C26         6.5451   -3.8497    4.5254 C.3       1 <0>        -0.1149
     33 C27         7.8352    0.1258    5.3010 C.3       1 <0>        -0.0705
     34 C28         8.3888    0.5232    6.6451 C.ar      1 <0>        -0.1070
     35 C29         7.7227    1.4570    7.4171 C.ar      1 <0>        -0.0785
     36 C30         8.2284    1.8234    8.6494 C.ar      1 <0>        -0.1520
     37 C31         9.4053    1.2531    9.1123 C.ar      1 <0>         0.1225
     38 C32        10.0715    0.3160    8.3359 C.ar      1 <0>        -0.2072
     39 C33         9.5589   -0.0508    7.1066 C.ar      1 <0>        -0.0543
     40 O2          9.9050    1.6122   10.3240 O.3       1 <0>        -0.3201
     41 C34        11.1206    0.9842   10.7364 C.3       1 <0>         0.0278
     42 O3          6.2916    0.1813   -0.8711 O.3       1 <0>        -0.3170
     43 C35         6.7930    1.5071   -1.0524 C.3       1 <0>         0.0378
     44 O4          5.0790   -0.3677   -3.2846 O.3       1 <0>        -0.3016
     45 C36         4.3824   -0.6547   -4.4988 C.3       1 <0>         0.0228
     46 O5          1.4068   -4.7582    3.4844 O.3       1 <0>        -0.4854
     47 O6          1.2095   -6.1369    1.1034 O.3       1 <0>        -0.4868
     48 H4          1.0047    1.8421    0.0024 H         1 <0>         0.0369
     49 H5         -0.5450    1.8259   -0.8730 H         1 <0>         0.0747
     50 H6         -0.5280    1.8163    0.9069 H         1 <0>         0.0751
     51 H7         -0.6497   -2.1379   -1.6063 H         1 <0>         0.0959
     52 H8          1.0303   -2.4257   -2.1145 H         1 <0>         0.0831
     53 H9          0.7386   -4.6307   -0.9817 H         1 <0>         0.1327
     54 H10         1.0947   -2.1732    3.2680 H         1 <0>         0.1313
     55 H11         1.8659    1.1775    1.6440 H         1 <0>         0.0899
     56 H12         2.5264   -0.3725    2.2140 H         1 <0>         0.0848
     57 H13         2.4838   -0.6435   -3.1580 H         1 <0>         0.1399
     58 H14         4.5499   -2.0698    0.7535 H         1 <0>         0.1221
     59 H15         5.3372   -3.9355    2.1461 H         1 <0>         0.1205
     60 H16         5.9417    0.6942    3.6973 H         1 <0>         0.1335
     61 H17         8.4709   -2.3685    5.4117 H         1 <0>         0.3413
     62 H18         7.2882   -4.2187    6.5147 H         1 <0>         0.0834
     63 H19         5.8352   -3.1865    6.4496 H         1 <0>         0.0764
     64 H20         5.7857   -4.6314    4.5037 H         1 <0>         0.0780
     65 H21         7.4726   -4.2364    4.1031 H         1 <0>         0.0755
     66 H22         8.6543   -0.1568    4.6398 H         1 <0>         0.0735
     67 H23         7.2926    0.9664    4.8685 H         1 <0>         0.0816
     68 H24         6.8065    1.9007    7.0563 H         1 <0>         0.1254
     69 H25         7.7081    2.5534    9.2517 H         1 <0>         0.1277
     70 H26        10.9879   -0.1293    8.6941 H         1 <0>         0.1250
     71 H27        10.0748   -0.7835    6.5038 H         1 <0>         0.1213
     72 H28        11.4084    1.3594   11.7185 H         1 <0>         0.0993
     73 H29        10.9728   -0.0945   10.7885 H         1 <0>         0.0555
     74 H30        11.9078    1.2088   10.0167 H         1 <0>         0.0547
     75 H31         7.8803    1.4980   -0.9759 H         1 <0>         0.0959
     76 H32         6.5011    1.8746   -2.0362 H         1 <0>         0.0470
     77 H33         6.3801    2.1601   -0.2834 H         1 <0>         0.0485
     78 H34         3.6604    0.1369   -4.6993 H         1 <0>         0.0580
     79 H35         5.0951   -0.7134   -5.3215 H         1 <0>         0.1050
     80 H36         3.8602   -1.6066   -4.4018 H         1 <0>         0.0584
     81 H37         2.3458   -4.8578    3.6927 H         1 <0>         0.3851
     82 H38         2.1202   -6.4331    0.9697 H         1 <0>         0.3863
@<TRIPOS>BOND
     1    1    2 1
     2    1   48 1
     3    1   49 1
     4    1   50 1
     5    2   12 1
     6    2    3 1
     7    3    4 1
     8    3   16 1
     9    3    5 1
    10    5    6 1
    11    5   51 1
    12    5   52 1
    13    6   11 ar
    14    6    7 ar
    15    7    8 ar
    16    7   53 1
    17    8    9 ar
    18    8   47 1
    19    9   10 ar
    20    9   46 1
    21   10   11 ar
    22   10   54 1
    23   11   12 1
    24   12   13 1
    25   12   14 1
    26   14   15 1
    27   14   55 1
    28   14   56 1
    29   15   20 ar
    30   15   16 ar
    31   16   17 ar
    32   17   18 ar
    33   17   57 1
    34   18   19 ar
    35   18   44 1
    36   19   20 ar
    37   19   42 1
    38   20   21 1
    39   21   22 1
    40   22   27 ar
    41   22   23 ar
    42   23   24 ar
    43   23   58 1
    44   24   25 ar
    45   24   59 1
    46   25   32 1
    47   25   26 ar
    48   26   27 ar
    49   26   28 1
    50   27   60 1
    51   28   29 1
    52   28   30 1
    53   28   33 1
    54   30   31 1
    55   30   61 1
    56   31   32 1
    57   31   62 1
    58   31   63 1
    59   32   64 1
    60   32   65 1
    61   33   34 1
    62   33   66 1
    63   33   67 1
    64   34   39 ar
    65   34   35 ar
    66   35   36 ar
    67   35   68 1
    68   36   37 ar
    69   36   69 1
    70   37   38 ar
    71   37   40 1
    72   38   39 ar
    73   38   70 1
    74   39   71 1
    75   40   41 1
    76   41   72 1
    77   41   73 1
    78   41   74 1
    79   42   43 1
    80   43   75 1
    81   43   76 1
    82   43   77 1
    83   44   45 1
    84   45   78 1
    85   45   79 1
    86   45   80 1
    87   46   81 1
    88   47   82 1
@<TRIPOS>MOLECULE
ZINC95486210
   86    92     0     0     0
SMALL
USER_CHARGES

@<TRIPOS>ATOM
      1 C1         -0.0178    1.4648    0.0101 C.3       1 <0>        -0.0562
      2 N1          0.0021   -0.0041    0.0020 N.4       1 <0>        -0.3718
      3 C2          0.6832   -0.4754   -1.2051 C.3       1 <0>         0.0839
      4 H1          0.2526    0.0260   -2.0718 H         1 <0>         0.1547
      5 C3          0.4693   -1.9820   -1.3487 C.3       1 <0>        -0.0918
      6 C4          0.8403   -2.6731   -0.0613 C.ar      1 <0>        -0.1045
      7 C5          1.0734   -4.0394   -0.0834 C.ar      1 <0>        -0.0949
      8 C6          1.4133   -4.7092    1.0786 C.ar      1 <0>         0.1076
      9 C7          1.5204   -4.0034    2.2735 C.ar      1 <0>         0.1238
     10 C8          1.2878   -2.6402    2.2891 C.ar      1 <0>        -0.1710
     11 C9          0.9482   -1.9713    1.1210 C.ar      1 <0>        -0.0880
     12 C10         0.7103   -0.4882    1.1883 C.3       1 <0>         0.0843
     13 H2          0.1113   -0.2667    2.0716 H         1 <0>         0.1513
     14 C11         2.0430    0.2492    1.3155 C.3       1 <0>        -0.0897
     15 C12         2.7944    0.1700    0.0110 C.ar      1 <0>        -0.1179
     16 C13         2.1572   -0.1825   -1.1558 C.ar      1 <0>        -0.0670
     17 C14         2.8829   -0.2428   -2.3370 C.ar      1 <0>        -0.1791
     18 C15         4.2429    0.0166   -2.3410 C.ar      1 <0>         0.1400
     19 C16         4.8886    0.3406   -1.1539 C.ar      1 <0>         0.0865
     20 C17         4.1569    0.4452    0.0083 C.ar      1 <0>         0.1216
     21 O1          4.7837    0.7754    1.1689 O.3       1 <0>        -0.2491
     22 C18         5.3123   -0.2286    1.9164 C.ar      1 <0>         0.1157
     23 C19         5.2099   -1.5446    1.4876 C.ar      1 <0>        -0.1814
     24 C20         5.7514   -2.5576    2.2510 C.ar      1 <0>        -0.0786
     25 C21         6.3959   -2.2697    3.4453 C.ar      1 <0>        -0.0972
     26 C22         6.4960   -0.9637    3.8760 C.ar      1 <0>        -0.0718
     27 C23         5.9605    0.0579    3.1068 C.ar      1 <0>        -0.1327
     28 C24         7.1758   -0.6039    5.1712 C.3       1 <0>         0.1330
     29 H3          6.4200   -0.3926    5.9276 H         1 <0>         0.0982
     30 N2          8.0242   -1.7081    5.6302 N.3       1 <0>        -0.6650
     31 C25         7.2517   -2.9597    5.6757 C.3       1 <0>         0.0560
     32 C26         6.9751   -3.4113    4.2413 C.3       1 <0>        -0.1196
     33 C27         8.0396    0.6411    4.9591 C.3       1 <0>        -0.0688
     34 C28         8.6244    1.0773    6.2777 C.ar      1 <0>        -0.1126
     35 C29         7.9339    1.9688    7.0778 C.ar      1 <0>        -0.0789
     36 C30         8.4681    2.3705    8.2868 C.ar      1 <0>        -0.1527
     37 C31         9.6983    1.8783    8.6981 C.ar      1 <0>         0.1266
     38 C32        10.3889    0.9836    7.8936 C.ar      1 <0>        -0.2065
     39 C33         9.8480    0.5809    6.6879 C.ar      1 <0>        -0.0532
     40 O2         10.2261    2.2724    9.8868 O.3       1 <0>        -0.3190
     41 C34        11.4963    1.7250   10.2459 C.3       1 <0>         0.0269
     42 O3          6.2253    0.5957   -1.1491 O.3       1 <0>        -0.3143
     43 C35         6.6278    1.9512   -1.3558 C.3       1 <0>         0.0370
     44 O4          4.9453   -0.0458   -3.5039 O.3       1 <0>        -0.2919
     45 C36         4.2159   -0.3852   -4.6849 C.3       1 <0>         0.0188
     46 O5          1.8521   -4.6521    3.4218 O.3       1 <0>        -0.2957
     47 C37         1.9435   -3.8628    4.6096 C.3       1 <0>         0.0211
     48 O6          1.6410   -6.0497    1.0535 O.3       1 <0>        -0.4798
     49 H4          1.0047    1.8421    0.0024 H         1 <0>         0.1274
     50 H5         -0.5450    1.8259   -0.8730 H         1 <0>         0.1305
     51 H6         -0.5280    1.8163    0.9069 H         1 <0>         0.1306
     52 H7         -0.5780   -2.1794   -1.5775 H         1 <0>         0.1113
     53 H8          1.0941   -2.3616   -2.1572 H         1 <0>         0.1229
     54 H9          0.9889   -4.5839   -1.0123 H         1 <0>         0.1473
     55 H10         1.3707   -2.0924    3.2162 H         1 <0>         0.1413
     56 H11         1.8570    1.2941    1.5639 H         1 <0>         0.1132
     57 H12         2.6377   -0.2102    2.1050 H         1 <0>         0.1202
     58 H13         2.3829   -0.4946   -3.2606 H         1 <0>         0.1495
     59 H14         4.7076   -1.7746    0.5596 H         1 <0>         0.1199
     60 H15         5.6729   -3.5816    1.9170 H         1 <0>         0.1229
     61 H16         6.0456    1.0820    3.4393 H         1 <0>         0.1367
     62 H17         8.8385   -1.8069    5.0426 H         1 <0>         0.3438
     63 H18         7.8261   -3.7259    6.1964 H         1 <0>         0.0866
     64 H19         6.3084   -2.7892    6.1945 H         1 <0>         0.0755
     65 H20         6.2673   -4.2402    4.2529 H         1 <0>         0.0801
     66 H21         7.9063   -3.7390    3.7791 H         1 <0>         0.0797
     67 H22         8.8457    0.4097    4.2628 H         1 <0>         0.0738
     68 H23         7.4258    1.4438    4.5505 H         1 <0>         0.0799
     69 H24         6.9763    2.3516    6.7572 H         1 <0>         0.1235
     70 H25         7.9287    3.0674    8.9111 H         1 <0>         0.1283
     71 H26        11.3467    0.5991    8.2116 H         1 <0>         0.1266
     72 H27        10.3832   -0.1190    6.0634 H         1 <0>         0.1213
     73 H28        12.2355    1.9974    9.4925 H         1 <0>         0.0559
     74 H29        11.8018    2.1208   11.2144 H         1 <0>         0.1014
     75 H30        11.4205    0.6392   10.3046 H         1 <0>         0.0563
     76 H31         7.7156    2.0154   -1.3285 H         1 <0>         0.1040
     77 H32         6.2679    2.2931   -2.3261 H         1 <0>         0.0518
     78 H33         6.2070    2.5790   -0.5703 H         1 <0>         0.0525
     79 H34         3.7639   -1.3695   -4.5626 H         1 <0>         0.0620
     80 H35         3.4340    0.3551   -4.8544 H         1 <0>         0.0618
     81 H36         4.8934   -0.4001   -5.5387 H         1 <0>         0.1136
     82 H37         2.2146   -4.5015    5.4502 H         1 <0>         0.1109
     83 H38         2.7046   -3.0939    4.4773 H         1 <0>         0.0591
     84 H39         0.9810   -3.3911    4.8073 H         1 <0>         0.0594
     85 H40         2.5620   -6.2891    0.8816 H         1 <0>         0.3983
     86 H41        -0.9447   -0.3528    0.0105 H         1 <0>         0.4337
@<TRIPOS>BOND
     1    1    2 1
     2    1   49 1
     3    1   50 1
     4    1   51 1
     5    2   12 1
     6    2    3 1
     7    2   86 1
     8    3    4 1
     9    3   16 1
    10    3    5 1
    11    5    6 1
    12    5   52 1
    13    5   53 1
    14    6   11 ar
    15    6    7 ar
    16    7    8 ar
    17    7   54 1
    18    8    9 ar
    19    8   48 1
    20    9   10 ar
    21    9   46 1
    22   10   11 ar
    23   10   55 1
    24   11   12 1
    25   12   13 1
    26   12   14 1
    27   14   15 1
    28   14   56 1
    29   14   57 1
    30   15   20 ar
    31   15   16 ar
    32   16   17 ar
    33   17   18 ar
    34   17   58 1
    35   18   19 ar
    36   18   44 1
    37   19   20 ar
    38   19   42 1
    39   20   21 1
    40   21   22 1
    41   22   27 ar
    42   22   23 ar
    43   23   24 ar
    44   23   59 1
    45   24   25 ar
    46   24   60 1
    47   25   32 1
    48   25   26 ar
    49   26   27 ar
    50   26   28 1
    51   27   61 1
    52   28   29 1
    53   28   30 1
    54   28   33 1
    55   30   31 1
    56   30   62 1
    57   31   32 1
    58   31   63 1
    59   31   64 1
    60   32   65 1
    61   32   66 1
    62   33   34 1
    63   33   67 1
    64   33   68 1
    65   34   39 ar
    66   34   35 ar
    67   35   36 ar
    68   35   69 1
    69   36   37 ar
    70   36   70 1
    71   37   38 ar
    72   37   40 1
    73   38   39 ar
    74   38   71 1
    75   39   72 1
    76   40   41 1
    77   41   73 1
    78   41   74 1
    79   41   75 1
    80   42   43 1
    81   43   76 1
    82   43   77 1
    83   43   78 1
    84   44   45 1
    85   45   79 1
    86   45   80 1
    87   45   81 1
    88   46   47 1
    89   47   82 1
    90   47   83 1
    91   47   84 1
    92   48   85 1
@<TRIPOS>MOLECULE
ZINC95486212
   79    85     0     0     0
SMALL
USER_CHARGES

@<TRIPOS>ATOM
      1 C1         -0.0178    1.4648    0.0101 C.3       1 <0>         0.0156
      2 N1          0.0021   -0.0041    0.0020 N.3       1 <0>        -0.5143
      3 C2          0.6979   -0.5136   -1.1837 C.3       1 <0>         0.1226
      4 H1          0.3375    0.0152   -2.0661 H         1 <0>         0.1055
      5 C3          0.3972   -2.0050   -1.3333 C.3       1 <0>        -0.0673
      6 C4          0.6694   -2.7146   -0.0314 C.ar      1 <0>        -0.0551
      7 C5          0.8174   -4.0935   -0.0481 C.ar      1 <0>        -0.1312
      8 C6          1.0651   -4.7848    1.1243 C.ar      1 <0>         0.0846
      9 C7          1.1651   -4.0887    2.3256 C.ar      1 <0>         0.0827
     10 C8          1.0174   -2.7137    2.3361 C.ar      1 <0>        -0.1198
     11 C9          0.7701   -2.0234    1.1573 C.ar      1 <0>        -0.0599
     12 C10         0.6219   -0.5279    1.2232 C.3       1 <0>         0.1257
     13 H2          0.0021   -0.2662    2.0808 H         1 <0>         0.1042
     14 C11         1.9939    0.1225    1.4019 C.3       1 <0>        -0.1018
     15 C12         2.7905   -0.0062    0.1286 C.ar      1 <0>        -0.1001
     16 C13         2.1851   -0.3210   -1.0640 C.ar      1 <0>        -0.0567
     17 C14         2.9576   -0.4278   -2.2117 C.ar      1 <0>        -0.1881
     18 C15         4.3308   -0.2606   -2.1540 C.ar      1 <0>         0.1222
     19 C16         4.9424    0.0166   -0.9373 C.ar      1 <0>         0.0637
     20 C17         4.1673    0.1809    0.1855 C.ar      1 <0>         0.1056
     21 O1          4.7629    0.4699    1.3732 O.3       1 <0>        -0.2496
     22 C18         5.1929   -0.5662    2.1400 C.ar      1 <0>         0.1302
     23 C19         5.0250   -1.8728    1.7032 C.ar      1 <0>        -0.1772
     24 C20         5.4666   -2.9187    2.4863 C.ar      1 <0>        -0.0804
     25 C21         6.0755   -2.6731    3.7084 C.ar      1 <0>        -0.1069
     26 C22         6.2404   -1.3763    4.1470 C.ar      1 <0>        -0.0757
     27 C23         5.8057   -0.3222    3.3583 C.ar      1 <0>        -0.1387
     28 C24         6.8849   -1.0611    5.4715 C.3       1 <0>         0.1354
     29 H3          6.1119   -0.8019    6.1950 H         1 <0>         0.0972
     30 N2          7.6398   -2.2177    5.9637 N.3       1 <0>        -0.6665
     31 C25         6.7873   -3.4171    5.9718 C.3       1 <0>         0.0557
     32 C26         6.5451   -3.8497    4.5254 C.3       1 <0>        -0.1151
     33 C27         7.8352    0.1258    5.3010 C.3       1 <0>        -0.0754
     34 C28         8.3888    0.5232    6.6451 C.ar      1 <0>        -0.0779
     35 C29         7.7227    1.4570    7.4171 C.ar      1 <0>        -0.1020
     36 C30         8.2284    1.8234    8.6494 C.ar      1 <0>        -0.1452
     37 C31         9.4053    1.2531    9.1123 C.ar      1 <0>         0.0992
     38 C32        10.0715    0.3160    8.3359 C.ar      1 <0>        -0.1445
     39 C33         9.5589   -0.0508    7.1066 C.ar      1 <0>        -0.0780
     40 O2          9.9050    1.6122   10.3240 O.3       1 <0>        -0.5020
     41 O3          6.2916    0.1813   -0.8711 O.3       1 <0>        -0.3171
     42 C34         6.7930    1.5071   -1.0524 C.3       1 <0>         0.0378
     43 O4          5.0790   -0.3677   -3.2846 O.3       1 <0>        -0.3016
     44 C35         4.3824   -0.6547   -4.4988 C.3       1 <0>         0.0228
     45 O5          1.4068   -4.7582    3.4844 O.3       1 <0>        -0.4854
     46 O6          1.2095   -6.1369    1.1034 O.3       1 <0>        -0.4867
     47 H4          1.0047    1.8421    0.0024 H         1 <0>         0.0369
     48 H5         -0.5450    1.8259   -0.8730 H         1 <0>         0.0748
     49 H6         -0.5280    1.8163    0.9069 H         1 <0>         0.0751
     50 H7         -0.6497   -2.1379   -1.6063 H         1 <0>         0.0960
     51 H8          1.0303   -2.4257   -2.1145 H         1 <0>         0.0831
     52 H9          0.7386   -4.6307   -0.9817 H         1 <0>         0.1328
     53 H10         1.0947   -2.1732    3.2680 H         1 <0>         0.1312
     54 H11         1.8659    1.1775    1.6440 H         1 <0>         0.0898
     55 H12         2.5264   -0.3725    2.2140 H         1 <0>         0.0846
     56 H13         2.4838   -0.6435   -3.1580 H         1 <0>         0.1400
     57 H14         4.5499   -2.0698    0.7535 H         1 <0>         0.1224
     58 H15         5.3372   -3.9355    2.1461 H         1 <0>         0.1209
     59 H16         5.9417    0.6942    3.6973 H         1 <0>         0.1333
     60 H17         8.4709   -2.3685    5.4117 H         1 <0>         0.3421
     61 H18         7.2882   -4.2187    6.5147 H         1 <0>         0.0840
     62 H19         5.8352   -3.1865    6.4496 H         1 <0>         0.0763
     63 H20         5.7857   -4.6314    4.5037 H         1 <0>         0.0783
     64 H21         7.4726   -4.2364    4.1031 H         1 <0>         0.0759
     65 H22         8.6543   -0.1568    4.6398 H         1 <0>         0.0760
     66 H23         7.2926    0.9664    4.8685 H         1 <0>         0.0833
     67 H24         6.8065    1.9007    7.0563 H         1 <0>         0.1230
     68 H25         7.7081    2.5534    9.2517 H         1 <0>         0.1256
     69 H26        10.9879   -0.1293    8.6941 H         1 <0>         0.1258
     70 H27        10.0748   -0.7835    6.5038 H         1 <0>         0.1237
     71 H28         9.5856    1.0693   11.0577 H         1 <0>         0.3899
     72 H29         7.8803    1.4980   -0.9759 H         1 <0>         0.0960
     73 H30         6.5011    1.8746   -2.0362 H         1 <0>         0.0471
     74 H31         6.3801    2.1601   -0.2834 H         1 <0>         0.0484
     75 H32         5.0951   -0.7134   -5.3215 H         1 <0>         0.1051
     76 H33         3.8602   -1.6066   -4.4018 H         1 <0>         0.0584
     77 H34         3.6604    0.1369   -4.6993 H         1 <0>         0.0580
     78 H35         2.3458   -4.8578    3.6927 H         1 <0>         0.3851
     79 H36         2.1202   -6.4331    0.9697 H         1 <0>         0.3864
@<TRIPOS>BOND
     1    1    2 1
     2    1   47 1
     3    1   48 1
     4    1   49 1
     5    2   12 1
     6    2    3 1
     7    3    4 1
     8    3   16 1
     9    3    5 1
    10    5    6 1
    11    5   50 1
    12    5   51 1
    13    6   11 ar
    14    6    7 ar
    15    7    8 ar
    16    7   52 1
    17    8    9 ar
    18    8   46 1
    19    9   10 ar
    20    9   45 1
    21   10   11 ar
    22   10   53 1
    23   11   12 1
    24   12   13 1
    25   12   14 1
    26   14   15 1
    27   14   54 1
    28   14   55 1
    29   15   20 ar
    30   15   16 ar
    31   16   17 ar
    32   17   18 ar
    33   17   56 1
    34   18   19 ar
    35   18   43 1
    36   19   20 ar
    37   19   41 1
    38   20   21 1
    39   21   22 1
    40   22   27 ar
    41   22   23 ar
    42   23   24 ar
    43   23   57 1
    44   24   25 ar
    45   24   58 1
    46   25   32 1
    47   25   26 ar
    48   26   27 ar
    49   26   28 1
    50   27   59 1
    51   28   29 1
    52   28   30 1
    53   28   33 1
    54   30   31 1
    55   30   60 1
    56   31   32 1
    57   31   61 1
    58   31   62 1
    59   32   63 1
    60   32   64 1
    61   33   34 1
    62   33   65 1
    63   33   66 1
    64   34   39 ar
    65   34   35 ar
    66   35   36 ar
    67   35   67 1
    68   36   37 ar
    69   36   68 1
    70   37   38 ar
    71   37   40 1
    72   38   39 ar
    73   38   69 1
    74   39   70 1
    75   40   71 1
    76   41   42 1
    77   42   72 1
    78   42   73 1
    79   42   74 1
    80   43   44 1
    81   44   75 1
    82   44   76 1
    83   44   77 1
    84   45   78 1
    85   46   79 1
@<TRIPOS>MOLECULE
ZINC95486217
   59    68     0     0     0
SMALL
USER_CHARGES

@<TRIPOS>ATOM
      1 C1         -0.0165    1.3624    0.0095 C.ar      1 <0>        -0.1419
      2 C2          1.1678    2.0893    0.0021 C.ar      1 <0>        -0.1169
      3 C3          2.3776    1.4568   -0.0124 C.ar      1 <0>        -0.0922
      4 C4          2.4294    0.0580   -0.0202 C.ar      1 <0>         0.0212
      5 C5          1.2238   -0.6790   -0.0132 C.ar      1 <0>        -0.0767
      6 C6          0.0021   -0.0041    0.0020 C.ar      1 <0>        -0.0957
      7 C7          1.2863   -2.1450   -0.0225 C.ar      1 <0>         0.0160
      8 C8          2.5433   -2.7814   -0.0364 C.ar      1 <0>        -0.0417
      9 C9          2.6077   -4.1964   -0.0445 C.ar      1 <0>         0.0185
     10 C10         1.4369   -4.9405   -0.0403 C.ar      1 <0>        -0.1349
     11 C11         0.1998   -4.3041   -0.0285 C.ar      1 <0>         0.0508
     12 C12         0.1182   -2.9173   -0.0182 C.ar      1 <0>         0.0046
     13 O1         -1.1993   -2.5558   -0.0062 O.3       1 <0>        -0.3042
     14 C13        -1.9227   -3.7290   -0.4223 C.3       1 <0>         0.2114
     15 O2         -1.0674   -4.8154   -0.0229 O.3       1 <0>        -0.3131
     16 C14         3.9292   -4.8403   -0.0582 C.2       1 <0>        -0.2531
     17 C15         5.0311   -4.0777   -0.0638 C.2       1 <0>         0.1491
     18 N1          4.9610   -2.7056   -0.0565 N.pl3     1 <0>        -0.6203
     19 C16         3.7434   -2.0377   -0.0431 C.ar      1 <0>         0.1701
     20 C17         3.7112   -0.6497   -0.0348 C.ar      1 <0>        -0.0128
     21 C18         4.9737    0.1153   -0.0421 C.ar      1 <0>        -0.2606
     22 C19         5.5835    0.5049   -1.3154 C.ar      1 <0>         0.0609
     23 C20         4.9881    0.1617   -2.5348 C.ar      1 <0>        -0.1504
     24 C21         5.5797    0.5376   -3.7065 C.ar      1 <0>        -0.0971
     25 C22         6.7678    1.2581   -3.7056 C.ar      1 <0>        -0.1877
     26 C23         7.3725    1.6078   -2.5310 C.ar      1 <0>        -0.0688
     27 C24         6.7913    1.2379   -1.3171 C.ar      1 <0>        -0.1234
     28 C25         7.4089    1.5944   -0.0342 C.ar      1 <0>         0.0497
     29 C26         6.7852    1.1967    1.1651 C.ar      1 <0>        -0.1071
     30 C27         5.5757    0.4678    1.1579 C.ar      1 <0>         0.2462
     31 N2          4.9923    0.1001    2.3634 N.2       1 <0>        -0.6015
     32 C28         5.5599    0.4310    3.5701 C.2       1 <0>         0.1413
     33 C29         6.7035    1.1257    3.6446 C.2       1 <0>        -0.3235
     34 C30         7.3782    1.5376    2.4051 C.ar      1 <0>         0.0495
     35 C31         8.5632    2.2592    2.4284 C.ar      1 <0>        -0.1801
     36 C32         9.1715    2.6489    1.2400 C.ar      1 <0>         0.0754
     37 C33         8.6042    2.3215    0.0143 C.ar      1 <0>        -0.0581
     38 O3          9.3959    2.8191   -0.9818 O.3       1 <0>        -0.3084
     39 C34        10.2334    3.8049   -0.3499 C.3       1 <0>         0.2118
     40 O4         10.3208    3.3529    1.0140 O.3       1 <0>        -0.3191
     41 H1         -0.9624    1.8833    0.0259 H         1 <0>         0.1136
     42 H2          1.1307    3.1687    0.0076 H         1 <0>         0.1139
     43 H3          3.2909    2.0333   -0.0184 H         1 <0>         0.1253
     44 H4         -0.9243   -0.5592    0.0075 H         1 <0>         0.1300
     45 H5          1.4861   -6.0194   -0.0467 H         1 <0>         0.1327
     46 H6         -2.8833   -3.7884    0.0894 H         1 <0>         0.1256
     47 H7         -2.0623   -3.7299   -1.5033 H         1 <0>         0.0778
     48 H8          4.0111   -5.9172   -0.0634 H         1 <0>         0.1371
     49 H9          6.0002   -4.5544   -0.0739 H         1 <0>         0.1515
     50 H10         4.0648   -0.3983   -2.5488 H         1 <0>         0.1117
     51 H11         5.1184    0.2713   -4.6460 H         1 <0>         0.1050
     52 H12         7.2189    1.5447   -4.6441 H         1 <0>         0.1051
     53 H13         8.2956    2.1682   -2.5419 H         1 <0>         0.1242
     54 H14         5.0714    0.1234    4.4828 H         1 <0>         0.1228
     55 H15         7.1291    1.3740    4.6057 H         1 <0>         0.1047
     56 H16         9.0151    2.5198    3.3741 H         1 <0>         0.1212
     57 H17        11.2205    3.8222   -0.8119 H         1 <0>         0.1194
     58 H18         9.7692    4.7899   -0.3981 H         1 <0>         0.0719
     59 H19         5.7827   -2.1902   -0.0609 H         1 <0>         0.4192
@<TRIPOS>BOND
     1    1    6 ar
     2    1    2 ar
     3    1   41 1
     4    2    3 ar
     5    2   42 1
     6    3    4 ar
     7    3   43 1
     8    4   20 ar
     9    4    5 ar
    10    5    6 ar
    11    5    7 ar
    12    6   44 1
    13    7   12 ar
    14    7    8 ar
    15    8   19 ar
    16    8    9 ar
    17    9   10 ar
    18    9   16 1
    19   10   11 ar
    20   10   45 1
    21   11   15 1
    22   11   12 ar
    23   12   13 1
    24   13   14 1
    25   14   15 1
    26   14   46 1
    27   14   47 1
    28   16   17 2
    29   16   48 1
    30   17   18 1
    31   17   49 1
    32   18   19 1
    33   18   59 1
    34   19   20 ar
    35   20   21 1
    36   21   30 ar
    37   21   22 ar
    38   22   27 ar
    39   22   23 ar
    40   23   24 ar
    41   23   50 1
    42   24   25 ar
    43   24   51 1
    44   25   26 ar
    45   25   52 1
    46   26   27 ar
    47   26   53 1
    48   27   28 ar
    49   28   37 ar
    50   28   29 ar
    51   29   34 ar
    52   29   30 ar
    53   30   31 1
    54   31   32 1
    55   32   33 2
    56   32   54 1
    57   33   34 1
    58   33   55 1
    59   34   35 ar
    60   35   36 ar
    61   35   56 1
    62   36   40 1
    63   36   37 ar
    64   37   38 1
    65   38   39 1
    66   39   40 1
    67   39   57 1
    68   39   58 1
@<TRIPOS>MOLECULE
ZINC95486218
   55    58     0     0     0
SMALL
USER_CHARGES

@<TRIPOS>ATOM
      1 C1         -0.3170    2.7018    0.0978 C.3       1 <0>        -0.1217
      2 C2         -0.1516    1.2397   -0.2279 C.ar      1 <0>        -0.0361
      3 C3         -0.1358    0.8403   -1.5265 C.ar      1 <0>        -0.1316
      4 C4          0.0184   -0.5212   -1.8445 C.ar      1 <0>         0.0065
      5 C5          0.0377   -0.9539   -3.1814 C.ar      1 <0>        -0.1549
      6 C6          0.1885   -2.2767   -3.4661 C.ar      1 <0>        -0.0648
      7 C7          0.3247   -3.2193   -2.4505 C.ar      1 <0>        -0.2335
      8 C8          0.3104   -2.8359   -1.1283 C.ar      1 <0>         0.1595
      9 C9          0.1568   -1.4728   -0.8035 C.ar      1 <0>        -0.1012
     10 C10         0.1384   -1.0424    0.5353 C.ar      1 <0>         0.1758
     11 C11        -0.0103    0.3107    0.8139 C.ar      1 <0>        -0.0742
     12 C12        -0.0255    0.7749    2.2209 C.ar      1 <0>        -0.0862
     13 C13         1.1798    1.1445    2.8473 C.ar      1 <0>         0.1815
     14 C14         1.1921    1.5752    4.1431 C.ar      1 <0>        -0.2314
     15 C15        -0.0066    1.6533    4.8650 C.ar      1 <0>         0.0386
     16 C16        -0.0432    2.0916    6.2021 C.ar      1 <0>        -0.1857
     17 C17        -1.2445    2.1423    6.8411 C.ar      1 <0>         0.1315
     18 N1         -2.3732    1.7914    6.2392 N.ar      1 <0>        -0.5008
     19 C18        -2.4143    1.3734    4.9948 C.ar      1 <0>         0.2053
     20 C19        -1.2312    1.2843    4.2472 C.ar      1 <0>        -0.1616
     21 C20        -1.2288    0.8473    2.9092 C.ar      1 <0>         0.1917
     22 O1         -2.3896    0.4954    2.3003 O.3       1 <0>        -0.3165
     23 C21        -3.0363    1.4946    1.5095 C.3       1 <0>         0.0232
     24 C22        -3.7313    0.9895    4.3712 C.3       1 <0>        -0.1222
     25 C23        -1.2930    2.6099    8.2729 C.3       1 <0>        -0.1062
     26 O2          2.3453    1.0715    2.1542 O.3       1 <0>        -0.3054
     27 C24         3.5354    1.4599    2.8434 C.3       1 <0>         0.0229
     28 O3          0.2692   -1.9398    1.5456 O.3       1 <0>        -0.4714
     29 O4          0.4432   -3.7632   -0.1452 O.3       1 <0>        -0.2952
     30 C25         0.5945   -5.1243   -0.5534 C.3       1 <0>         0.0238
     31 H1          0.6631    3.1763    0.1467 H         1 <0>         0.0764
     32 H2         -0.9145    3.1814   -0.6775 H         1 <0>         0.0727
     33 H3         -0.8192    2.8052    1.0597 H         1 <0>         0.0643
     34 H4         -0.2421    1.5694   -2.3161 H         1 <0>         0.1332
     35 H5         -0.0672   -0.2374   -3.9827 H         1 <0>         0.1295
     36 H6          0.2022   -2.6001   -4.4964 H         1 <0>         0.1256
     37 H7          0.4426   -4.2628   -2.7027 H         1 <0>         0.1290
     38 H8          2.1244    1.8548    4.6111 H         1 <0>         0.1400
     39 H9          0.8639    2.3817    6.7114 H         1 <0>         0.1376
     40 H10        -3.1750    2.3964    2.1059 H         1 <0>         0.0513
     41 H11        -2.4203    1.7250    0.6403 H         1 <0>         0.0589
     42 H12        -4.0069    1.1246    1.1792 H         1 <0>         0.1014
     43 H13        -4.1189    1.8295    3.7947 H         1 <0>         0.0791
     44 H14        -3.5857    0.1332    3.7126 H         1 <0>         0.1068
     45 H15        -4.4421    0.7282    5.1552 H         1 <0>         0.0768
     46 H16        -1.4343    3.6904    8.2977 H         1 <0>         0.0784
     47 H17        -2.1223    2.1232    8.7862 H         1 <0>         0.0780
     48 H18        -0.3575    2.3543    8.7705 H         1 <0>         0.0747
     49 H19         4.3918    1.3543    2.1774 H         1 <0>         0.1041
     50 H20         3.4484    2.4988    3.1615 H         1 <0>         0.0594
     51 H21         3.6737    0.8228    3.7169 H         1 <0>         0.0595
     52 H22         1.1842   -2.0959    1.8170 H         1 <0>         0.3886
     53 H23        -0.2792   -5.4304   -1.1287 H         1 <0>         0.0570
     54 H24         1.4880   -5.2214   -1.1702 H         1 <0>         0.0559
     55 H25         0.6903   -5.7592    0.3274 H         1 <0>         0.1024
@<TRIPOS>BOND
     1    1    2 1
     2    1   31 1
     3    1   32 1
     4    1   33 1
     5    2   11 ar
     6    2    3 ar
     7    3    4 ar
     8    3   34 1
     9    4    9 ar
    10    4    5 ar
    11    5    6 ar
    12    5   35 1
    13    6    7 ar
    14    6   36 1
    15    7    8 ar
    16    7   37 1
    17    8    9 ar
    18    8   29 1
    19    9   10 ar
    20   10   11 ar
    21   10   28 1
    22   11   12 1
    23   12   21 ar
    24   12   13 ar
    25   13   14 ar
    26   13   26 1
    27   14   15 ar
    28   14   38 1
    29   15   20 ar
    30   15   16 ar
    31   16   17 ar
    32   16   39 1
    33   17   18 ar
    34   17   25 1
    35   18   19 ar
    36   19   20 ar
    37   19   24 1
    38   20   21 ar
    39   21   22 1
    40   22   23 1
    41   23   40 1
    42   23   41 1
    43   23   42 1
    44   24   43 1
    45   24   44 1
    46   24   45 1
    47   25   46 1
    48   25   47 1
    49   25   48 1
    50   26   27 1
    51   27   49 1
    52   27   50 1
    53   27   51 1
    54   28   52 1
    55   29   30 1
    56   30   53 1
    57   30   54 1
    58   30   55 1
@<TRIPOS>MOLECULE
ZINC95486221
   55    59     0     0     0
SMALL
USER_CHARGES

@<TRIPOS>ATOM
      1 C1         -0.0187    1.5263    0.0104 C.3       1 <0>        -0.1492
      2 C2          0.0021   -0.0041    0.0020 C.3       1 <0>        -0.0844
      3 H1          0.5225   -0.3276   -0.9135 H         1 <0>         0.0910
      4 C3         -1.4301   -0.5177   -0.0684 C.3       1 <0>        -0.1235
      5 C4         -1.8415   -1.3288    1.1503 C.3       1 <0>        -0.0772
      6 H2         -1.3995   -2.3289    1.1259 H         1 <0>         0.1226
      7 C5         -3.3703   -1.5013    1.1449 C.3       1 <0>        -0.0777
      8 C6         -3.8135   -2.3404    2.3353 C.3       1 <0>        -0.1202
      9 C7         -3.3608   -1.7010    3.6464 C.3       1 <0>        -0.1396
     10 C8         -1.8397   -1.5253    3.6286 C.3       1 <0>        -0.1135
     11 C9         -1.4564   -0.6200    2.4472 C.3       1 <0>        -0.0433
     12 C10        -2.2757    0.6432    2.5752 C.2       1 <0>         0.3220
     13 N1         -3.3806    0.8168    1.9949 N.pl3     1 <0>        -0.4933
     14 C11        -4.0490   -0.1408    1.1297 C.3       1 <0>         0.0446
     15 C12         0.0166   -0.2670    2.4978 C.3       1 <0>        -0.0603
     16 H3          0.0672    0.8368    2.6532 H         1 <0>         0.0742
     17 C13         0.7600   -0.5526    1.2012 C.3       1 <0>        -0.0159
     18 C14         1.0241   -2.0449    0.9996 C.3       1 <0>        -0.1144
     19 C15         1.6413   -2.6719    2.2478 C.3       1 <0>        -0.1124
     20 C16         2.0373   -1.5571    3.2263 C.3       1 <0>        -0.0505
     21 H4          2.5926   -1.9566    4.0704 H         1 <0>         0.0891
     22 C17         0.7401   -0.8802    3.6921 C.3       1 <0>        -0.1223
     23 C18         2.8584   -0.5385    2.4544 C.2       1 <0>        -0.1651
     24 C19         4.1059   -0.2645    2.7567 C.2       1 <0>        -0.1677
     25 C20         2.1375    0.1450    1.3002 C.3       1 <0>         0.1478
     26 H5          2.0203    1.2001    1.5328 H         1 <0>         0.0670
     27 O1          2.8690   -0.0295    0.0887 O.3       1 <0>        -0.5499
     28 C21        -3.7720   -2.2537   -0.1264 C.3       1 <0>        -0.1514
     29 H6          1.0039    1.9035    0.0027 H         1 <0>         0.0691
     30 H7         -0.5459    1.8873   -0.8726 H         1 <0>         0.0611
     31 H8         -0.5289    1.8778    0.9072 H         1 <0>         0.0357
     32 H9         -2.1013    0.3404   -0.1825 H         1 <0>         0.0565
     33 H10        -1.5214   -1.1351   -0.9708 H         1 <0>         0.0849
     34 H11        -4.8995   -2.4230    2.3307 H         1 <0>         0.0804
     35 H12        -3.3761   -3.3354    2.2512 H         1 <0>         0.0889
     36 H13        -3.8446   -0.7344    3.7721 H         1 <0>         0.0507
     37 H14        -3.6375   -2.3516    4.4790 H         1 <0>         0.0915
     38 H15        -1.5242   -1.0594    4.5643 H         1 <0>         0.0936
     39 H16        -1.3614   -2.4986    3.5174 H         1 <0>         0.1075
     40 H17        -1.8889    1.4347    3.2000 H         1 <0>         0.2008
     41 H18        -4.0592    0.2447    0.1111 H         1 <0>         0.1328
     42 H19        -5.0802   -0.2574    1.4673 H         1 <0>         0.1327
     43 H20         0.1304   -2.5753    0.7110 H         1 <0>         0.0698
     44 H21         1.7499   -2.1546    0.1785 H         1 <0>         0.0755
     45 H22         0.9125   -3.3272    2.7251 H         1 <0>         0.0645
     46 H23         2.5237   -3.2472    1.9736 H         1 <0>         0.0685
     47 H24         0.9965   -0.0872    4.4017 H         1 <0>         0.0732
     48 H25         0.1313   -1.6198    4.1976 H         1 <0>         0.0898
     49 H26         4.5855   -0.7708    3.5814 H         1 <0>         0.1063
     50 H27         4.6529    0.4674    2.1808 H         1 <0>         0.1001
     51 H28         3.7417    0.3872    0.0927 H         1 <0>         0.3841
     52 H29        -3.2882   -3.2304   -0.1388 H         1 <0>         0.0786
     53 H30        -4.8541   -2.3840   -0.1449 H         1 <0>         0.0706
     54 H31        -3.4599   -1.6825   -1.0006 H         1 <0>         0.0697
     55 H32        -3.8261    1.6666    2.1372 H         1 <0>         0.4368
@<TRIPOS>BOND
     1    1    2 1
     2    1   29 1
     3    1   30 1
     4    1   31 1
     5    2    3 1
     6    2   17 1
     7    2    4 1
     8    4    5 1
     9    4   32 1
    10    4   33 1
    11    5    6 1
    12    5   11 1
    13    5    7 1
    14    7   14 1
    15    7    8 1
    16    7   28 1
    17    8    9 1
    18    8   34 1
    19    8   35 1
    20    9   10 1
    21    9   36 1
    22    9   37 1
    23   10   11 1
    24   10   38 1
    25   10   39 1
    26   11   12 1
    27   11   15 1
    28   12   13 2
    29   12   40 1
    30   13   14 1
    31   13   55 1
    32   14   41 1
    33   14   42 1
    34   15   16 1
    35   15   22 1
    36   15   17 1
    37   17   25 1
    38   17   18 1
    39   18   19 1
    40   18   43 1
    41   18   44 1
    42   19   20 1
    43   19   45 1
    44   19   46 1
    45   20   21 1
    46   20   22 1
    47   20   23 1
    48   22   47 1
    49   22   48 1
    50   23   24 2
    51   23   25 1
    52   24   49 1
    53   24   50 1
    54   25   26 1
    55   25   27 1
    56   27   51 1
    57   28   52 1
    58   28   53 1
    59   28   54 1
@<TRIPOS>MOLECULE
ZINC95486226
   53    55     0     0     0
SMALL
USER_CHARGES

@<TRIPOS>ATOM
      1 C1         -0.0206    1.5278    0.0059 C.3       1 <0>        -0.1598
      2 C2          0.0008   -0.0020   -0.0012 C.3       1 <0>        -0.1209
      3 C3         -1.4344   -0.5321    0.0102 C.3       1 <0>        -0.0803
      4 H1         -1.9714   -0.1089    0.8591 H         1 <0>         0.1150
      5 C4         -1.4138   -2.0574    0.1288 C.3       1 <0>        -0.1396
      6 C5         -0.7043   -2.6540   -1.0884 C.3       1 <0>        -0.0985
      7 H2         -0.4900   -1.8636   -1.8077 H         1 <0>         0.1166
      8 C6         -1.6054   -3.7053   -1.7393 C.3       1 <0>         0.1547
      9 C7         -1.6966   -3.4415   -3.2202 C.2       1 <0>         0.4406
     10 O1         -0.7380   -3.0130   -3.8180 O.2       1 <0>        -0.4556
     11 O2         -2.8434   -3.6831   -3.8750 O.3       1 <0>        -0.3275
     12 C8         -3.1944   -2.7772   -4.9227 C.3       1 <0>         0.1094
     13 C9         -4.3851   -1.9550   -4.4985 C.2       1 <0>        -0.1554
     14 C10        -5.5239   -2.4410   -4.0774 C.2       1 <0>        -0.1166
     15 C11        -6.4484   -1.2988   -3.7621 C.3       1 <0>         0.0054
     16 N1         -5.7068   -0.0402   -3.8783 N.4       1 <0>        -0.3769
     17 C12        -4.4416   -0.4490   -4.4949 C.3       1 <0>         0.0456
     18 H3         -4.3862   -0.0767   -5.5211 H         1 <0>         0.1554
     19 C13        -3.2941    0.1348   -3.6675 C.3       1 <0>        -0.1963
     20 C14        -3.9401    0.8054   -2.4526 C.3       1 <0>         0.0810
     21 H4         -3.7591    1.8801   -2.4778 H         1 <0>         0.1236
     22 C15        -5.4423    0.5233   -2.5467 C.3       1 <0>        -0.0075
     23 O3         -3.4115    0.2489   -1.2466 O.3       1 <0>        -0.3385
     24 C16        -2.1259   -0.1371   -1.2691 C.2       1 <0>         0.4718
     25 O4         -1.5230   -0.1680   -2.3157 O.2       1 <0>        -0.4738
     26 C17        -3.0031   -3.6322   -1.1212 C.3       1 <0>         0.0472
     27 O5         -3.8756   -4.5313   -1.8085 O.3       1 <0>        -0.5529
     28 O6         -1.0552   -5.0058   -1.5202 O.3       1 <0>        -0.5175
     29 C18         0.6055   -3.3089   -0.6450 C.3       1 <0>        -0.1335
     30 H5          1.0019    1.9055   -0.0022 H         1 <0>         0.0695
     31 H6         -0.5479    1.8880   -0.8774 H         1 <0>         0.0470
     32 H7         -0.5308    1.8799    0.9024 H         1 <0>         0.0609
     33 H8          0.5110   -0.3541   -0.8977 H         1 <0>         0.0845
     34 H9          0.5281   -0.3621    0.8822 H         1 <0>         0.0925
     35 H10        -0.8821   -2.3441    1.0360 H         1 <0>         0.1064
     36 H11        -2.4364   -2.4322    0.1731 H         1 <0>         0.0934
     37 H12        -2.3521   -2.1171   -5.1296 H         1 <0>         0.0922
     38 H13        -3.4437   -3.3407   -5.8219 H         1 <0>         0.1223
     39 H14        -5.7609   -3.4895   -3.9737 H         1 <0>         0.1874
     40 H15        -7.2820   -1.2983   -4.4644 H         1 <0>         0.1504
     41 H16        -6.8296   -1.4063   -2.7466 H         1 <0>         0.1433
     42 H17        -2.6228   -0.6606   -3.3438 H         1 <0>         0.1623
     43 H18        -2.7455    0.8713   -4.2546 H         1 <0>         0.1213
     44 H19        -6.0013    1.4504   -2.4199 H         1 <0>         0.1558
     45 H20        -5.7329   -0.1927   -1.7779 H         1 <0>         0.1471
     46 H21        -2.9500   -3.9108   -0.0688 H         1 <0>         0.0812
     47 H22        -3.3864   -2.6156   -1.2090 H         1 <0>         0.0483
     48 H23        -4.7809   -4.5374   -1.4690 H         1 <0>         0.3826
     49 H24        -1.5759   -5.7234   -1.9064 H         1 <0>         0.3922
     50 H25         0.3912   -4.0994    0.0742 H         1 <0>         0.0697
     51 H26         1.1110   -3.7340   -1.5122 H         1 <0>         0.0657
     52 H27         1.2474   -2.5600   -0.1812 H         1 <0>         0.0629
     53 H28        -6.2028    0.6243   -4.4614 H         1 <0>         0.4455
@<TRIPOS>BOND
     1    1    2 1
     2    1   30 1
     3    1   31 1
     4    1   32 1
     5    2    3 1
     6    2   33 1
     7    2   34 1
     8    3    4 1
     9    3   24 1
    10    3    5 1
    11    5    6 1
    12    5   35 1
    13    5   36 1
    14    6    7 1
    15    6    8 1
    16    6   29 1
    17    8    9 1
    18    8   26 1
    19    8   28 1
    20    9   10 2
    21    9   11 1
    22   11   12 1
    23   12   13 1
    24   12   37 1
    25   12   38 1
    26   13   17 1
    27   13   14 2
    28   14   15 1
    29   14   39 1
    30   15   16 1
    31   15   40 1
    32   15   41 1
    33   16   22 1
    34   16   17 1
    35   16   53 1
    36   17   18 1
    37   17   19 1
    38   19   20 1
    39   19   42 1
    40   19   43 1
    41   20   21 1
    42   20   22 1
    43   20   23 1
    44   22   44 1
    45   22   45 1
    46   23   24 1
    47   24   25 2
    48   26   27 1
    49   26   46 1
    50   26   47 1
    51   27   48 1
    52   28   49 1
    53   29   50 1
    54   29   51 1
    55   29   52 1
@<TRIPOS>MOLECULE
ZINC95486293
   35    37     0     0     0
SMALL
USER_CHARGES

@<TRIPOS>ATOM
      1 C1          0.7685    0.1320    1.1965 C.3       1 <0>         0.0233
      2 O1         -0.0007   -0.0029   -0.0002 O.3       1 <0>        -0.3111
      3 C2          0.6040   -0.6065   -1.0579 C.ar      1 <0>         0.1450
      4 C3          1.9084   -1.0640   -0.9426 C.ar      1 <0>        -0.1964
      5 C4          2.5228   -1.6771   -2.0169 C.ar      1 <0>        -0.0721
      6 C5          1.8350   -1.8359   -3.2113 C.ar      1 <0>         0.0226
      7 C6          0.5302   -1.3788   -3.3264 C.ar      1 <0>        -0.0645
      8 C7         -0.0855   -0.7700   -2.2504 C.ar      1 <0>        -0.1387
      9 O2          2.4399   -2.4391   -4.2690 O.3       1 <0>        -0.2154
     10 C8          2.5566   -3.7854   -4.2501 C.2       1 <0>         0.2188
     11 C9          3.2522   -4.3949   -5.2461 C.2       1 <0>        -0.0662
     12 C10         3.3852   -5.8029   -5.2434 C.2       1 <0>         0.4391
     13 O3          4.0034   -6.3836   -6.1221 O.2       1 <0>        -0.4282
     14 C11         2.7496   -6.5411   -4.1392 C.ar      1 <0>        -0.2594
     15 C12         2.8305   -7.9368   -4.0557 C.ar      1 <0>         0.2260
     16 C13         2.2202   -8.5923   -3.0027 C.ar      1 <0>        -0.2034
     17 C14         1.5311   -7.8693   -2.0347 C.ar      1 <0>         0.1966
     18 C15         1.4472   -6.4882   -2.1111 C.ar      1 <0>        -0.1817
     19 C16         2.0534   -5.8130   -3.1599 C.ar      1 <0>         0.1954
     20 O4          1.9865   -4.4677   -3.2464 O.3       1 <0>        -0.2315
     21 O5          0.9346   -8.5231   -1.0052 O.3       1 <0>        -0.4860
     22 O6          3.5026   -8.6406   -5.0018 O.3       1 <0>        -0.4710
     23 O7          3.8172   -3.6542   -6.2411 O.3       1 <0>        -0.4440
     24 H1          1.0635   -0.8552    1.5521 H         1 <0>         0.0590
     25 H2          1.6594    0.7253    0.9908 H         1 <0>         0.0594
     26 H3          0.1693    0.6289    1.9595 H         1 <0>         0.1055
     27 H4          2.4438   -0.9403   -0.0128 H         1 <0>         0.1398
     28 H5          3.5387   -2.0326   -1.9273 H         1 <0>         0.1351
     29 H6         -0.0051   -1.5021   -4.2562 H         1 <0>         0.1434
     30 H7         -1.1027   -0.4178   -2.3387 H         1 <0>         0.1449
     31 H8          2.2782   -9.6684   -2.9317 H         1 <0>         0.1529
     32 H9          0.9091   -5.9375   -1.3538 H         1 <0>         0.1536
     33 H10         1.5033   -8.6415   -0.2321 H         1 <0>         0.4044
     34 H11         4.4393   -8.7732   -4.8020 H         1 <0>         0.4050
     35 H12         3.6704   -2.7023   -6.1547 H         1 <0>         0.3998
@<TRIPOS>BOND
     1    1    2 1
     2    1   24 1
     3    1   25 1
     4    1   26 1
     5    2    3 1
     6    3    8 ar
     7    3    4 ar
     8    4    5 ar
     9    4   27 1
    10    5    6 ar
    11    5   28 1
    12    6    7 ar
    13    6    9 1
    14    7    8 ar
    15    7   29 1
    16    8   30 1
    17    9   10 1
    18   10   20 1
    19   10   11 2
    20   11   12 1
    21   11   23 1
    22   12   13 2
    23   12   14 1
    24   14   19 ar
    25   14   15 ar
    26   15   16 ar
    27   15   22 1
    28   16   17 ar
    29   16   31 1
    30   17   18 ar
    31   17   21 1
    32   18   19 ar
    33   18   32 1
    34   19   20 1
    35   21   33 1
    36   22   34 1
    37   23   35 1
@<TRIPOS>MOLECULE
ZINC95486297
   34    36     0     0     0
SMALL
USER_CHARGES

@<TRIPOS>ATOM
      1 C1          0.6510    0.1428   -1.2577 C.3       1 <0>         0.0236
      2 O1          0.0019   -0.0037    0.0070 O.3       1 <0>        -0.3117
      3 C2         -1.2011   -0.6373    0.0136 C.ar      1 <0>         0.1430
      4 C3         -1.7412   -1.1125   -1.1725 C.ar      1 <0>        -0.1963
      5 C4         -2.9629   -1.7565   -1.1658 C.ar      1 <0>        -0.0733
      6 C5         -3.6500   -1.9281    0.0271 C.ar      1 <0>         0.0169
      7 C6         -3.1098   -1.4528    1.2133 C.ar      1 <0>        -0.0652
      8 C7         -1.8856   -0.8136    1.2071 C.ar      1 <0>        -0.1388
      9 O2         -4.8530   -2.5617    0.0337 O.3       1 <0>        -0.1888
     10 C8         -4.8611   -3.9087   -0.0721 C.2       1 <0>         0.2896
     11 C9         -6.0565   -4.5492   -0.1750 C.2       1 <0>        -0.0977
     12 C10        -6.0856   -5.9576   -0.2871 C.2       1 <0>         0.4118
     13 O3         -7.1407   -6.5651   -0.3815 O.2       1 <0>        -0.4668
     14 C11        -4.7915   -6.6647   -0.2860 C.ar      1 <0>        -0.2295
     15 C12        -4.7246   -8.0541   -0.3929 C.ar      1 <0>        -0.0073
     16 C13        -3.5086   -8.6765   -0.3891 C.ar      1 <0>        -0.1707
     17 C14        -2.3367   -7.9317   -0.2785 C.ar      1 <0>         0.1794
     18 C15        -2.3869   -6.5521   -0.1712 C.ar      1 <0>        -0.1688
     19 C16        -3.6148   -5.9054   -0.1746 C.ar      1 <0>         0.1759
     20 O4         -3.6902   -4.5617   -0.0773 O.3       1 <0>        -0.2285
     21 O5         -1.1351   -8.5638   -0.2756 O.3       1 <0>        -0.4892
     22 O6         -7.2188   -3.8374   -0.1695 O.3       1 <0>        -0.4515
     23 H1          1.5987    0.6638   -1.1214 H         1 <0>         0.1049
     24 H2          0.8361   -0.8417   -1.6873 H         1 <0>         0.0586
     25 H3          0.0133    0.7181   -1.9288 H         1 <0>         0.0592
     26 H4         -1.2064   -0.9786   -2.1012 H         1 <0>         0.1394
     27 H5         -3.3836   -2.1261   -2.0893 H         1 <0>         0.1349
     28 H6         -3.6446   -1.5864    2.1420 H         1 <0>         0.1434
     29 H7         -1.4630   -0.4472    2.1311 H         1 <0>         0.1444
     30 H8         -5.6308   -8.6354   -0.4781 H         1 <0>         0.1514
     31 H9         -3.4556   -9.7520   -0.4718 H         1 <0>         0.1466
     32 H10        -1.4740   -5.9815   -0.0851 H         1 <0>         0.1523
     33 H11        -0.7482   -8.6774   -1.1545 H         1 <0>         0.4034
     34 H12        -8.0140   -4.3821   -0.2472 H         1 <0>         0.4055
@<TRIPOS>BOND
     1    1    2 1
     2    1   23 1
     3    1   24 1
     4    1   25 1
     5    2    3 1
     6    3    8 ar
     7    3    4 ar
     8    4    5 ar
     9    4   26 1
    10    5    6 ar
    11    5   27 1
    12    6    7 ar
    13    6    9 1
    14    7    8 ar
    15    7   28 1
    16    8   29 1
    17    9   10 1
    18   10   20 1
    19   10   11 2
    20   11   12 1
    21   11   22 1
    22   12   13 2
    23   12   14 1
    24   14   19 ar
    25   14   15 ar
    26   15   16 ar
    27   15   30 1
    28   16   17 ar
    29   16   31 1
    30   17   18 ar
    31   17   21 1
    32   18   19 ar
    33   18   32 1
    34   19   20 1
    35   21   33 1
    36   22   34 1
@<TRIPOS>MOLECULE
ZINC95486301
   57    62     0     0     0
SMALL
USER_CHARGES

@<TRIPOS>ATOM
      1 C1         -0.5836    1.9275    0.6024 C.3       1 <0>        -0.1435
      2 C2         -0.4600    0.4327    0.7488 C.2       1 <0>        -0.1479
      3 C3         -1.5281   -0.3285    0.6484 C.2       1 <0>        -0.1546
      4 C4         -1.4846   -1.8065    1.0053 C.3       1 <0>         0.1046
      5 N1         -2.2549   -2.5690    0.0176 N.3       1 <0>        -0.5468
      6 C5         -1.4633   -2.7593   -1.1946 C.3       1 <0>         0.0631
      7 C6         -1.3795   -1.4372   -1.9611 C.3       1 <0>        -0.1332
      8 C7         -2.7378   -0.8221   -2.1311 C.3       1 <0>        -0.0360
      9 C8         -2.9669   -0.4207   -3.5893 C.3       1 <0>        -0.0800
     10 C9         -3.3152   -1.5927   -4.4600 C.ar      1 <0>        -0.0519
     11 C10        -3.1109   -1.4637   -5.8279 C.ar      1 <0>        -0.1456
     12 C11        -3.4049   -2.5104   -6.6839 C.ar      1 <0>         0.1052
     13 C12        -3.9001   -3.6986   -6.1667 C.ar      1 <0>        -0.1461
     14 C13        -4.1037   -3.8214   -4.8085 C.ar      1 <0>        -0.0976
     15 C14        -3.8284   -2.7625   -3.9502 C.ar      1 <0>        -0.0730
     16 C15        -4.1316   -2.9391   -2.4913 C.3       1 <0>        -0.0369
     17 H1         -3.5506   -3.7712   -2.1041 H         1 <0>         0.1005
     18 C16        -3.8902   -1.7163   -1.6498 C.3       1 <0>         0.1187
     19 C17        -3.6155   -2.1098   -0.1878 C.3       1 <0>         0.0965
     20 H2         -4.3116   -2.8943    0.1084 H         1 <0>         0.0884
     21 C18        -3.8961   -0.8668    0.6725 C.3       1 <0>        -0.1380
     22 C19        -2.8774    0.2052    0.2274 C.3       1 <0>        -0.0368
     23 H3         -3.0851    1.1473    0.7641 H         1 <0>         0.0917
     24 C20        -3.0150    0.4327   -1.2723 C.3       1 <0>        -0.1262
     25 C21        -4.5630    0.5292   -1.5115 C.3       1 <0>         0.0586
     26 O1         -5.0264   -0.8266   -1.6461 O.3       1 <0>        -0.3520
     27 C22        -2.2935    1.6691   -1.7527 C.2       1 <0>         0.3816
     28 O2         -1.4645    1.5831   -2.6267 O.2       1 <0>        -0.4380
     29 C23        -2.6078    3.0102   -1.1415 C.3       1 <0>        -0.2177
     30 C24        -5.6180   -3.3082   -2.3635 C.3       1 <0>        -0.1387
     31 O3         -3.2126   -2.3737   -8.0220 O.3       1 <0>        -0.4992
     32 H4         -1.5995    2.2341    0.8511 H         1 <0>         0.0677
     33 H5          0.1192    2.4178    1.2760 H         1 <0>         0.0687
     34 H6         -0.3597    2.2115   -0.4258 H         1 <0>         0.0690
     35 H7          0.5055   -0.0136    0.9362 H         1 <0>         0.1142
     36 H8         -0.4436   -2.1461    1.0140 H         1 <0>         0.0816
     37 H9         -1.9040   -1.9520    2.0057 H         1 <0>         0.0871
     38 H10        -0.4440   -3.0746   -0.9164 H         1 <0>         0.0762
     39 H11        -1.8810   -3.5431   -1.8260 H         1 <0>         0.0820
     40 H12        -0.6988   -0.7496   -1.4662 H         1 <0>         0.0806
     41 H13        -0.9615   -1.6409   -2.9616 H         1 <0>         0.0680
     42 H14        -3.7703    0.3024   -3.6484 H         1 <0>         0.0767
     43 H15        -2.0469    0.0215   -3.9705 H         1 <0>         0.0945
     44 H16        -2.7208   -0.5391   -6.2268 H         1 <0>         0.1252
     45 H17        -4.1275   -4.5239   -6.8254 H         1 <0>         0.1287
     46 H18        -4.4705   -4.7576   -4.4143 H         1 <0>         0.1269
     47 H19        -4.9130   -0.5222    0.5181 H         1 <0>         0.0908
     48 H20        -3.7442   -1.1086    1.7248 H         1 <0>         0.0799
     49 H21        -5.0326    1.0070   -0.6531 H         1 <0>         0.0851
     50 H22        -4.7657    1.0997   -2.4122 H         1 <0>         0.0712
     51 H23        -3.4096    2.8980   -0.4118 H         1 <0>         0.0822
     52 H24        -1.7187    3.4015   -0.6471 H         1 <0>         0.1062
     53 H25        -2.9224    3.7012   -1.9236 H         1 <0>         0.0951
     54 H26        -5.8102   -4.2344   -2.9051 H         1 <0>         0.0566
     55 H27        -5.8696   -3.4435   -1.3116 H         1 <0>         0.0605
     56 H28        -6.2284   -2.5086   -2.7831 H         1 <0>         0.0660
     57 H29        -2.3319   -2.6374   -8.3218 H         1 <0>         0.3903
@<TRIPOS>BOND
     1    1    2 1
     2    1   32 1
     3    1   33 1
     4    1   34 1
     5    2    3 2
     6    2   35 1
     7    3   22 1
     8    3    4 1
     9    4    5 1
    10    4   36 1
    11    4   37 1
    12    5   19 1
    13    5    6 1
    14    6    7 1
    15    6   38 1
    16    6   39 1
    17    7    8 1
    18    7   40 1
    19    7   41 1
    20    8   18 1
    21    8   24 1
    22    8    9 1
    23    9   10 1
    24    9   42 1
    25    9   43 1
    26   10   15 ar
    27   10   11 ar
    28   11   12 ar
    29   11   44 1
    30   12   13 ar
    31   12   31 1
    32   13   14 ar
    33   13   45 1
    34   14   15 ar
    35   14   46 1
    36   15   16 1
    37   16   17 1
    38   16   18 1
    39   16   30 1
    40   18   26 1
    41   18   19 1
    42   19   20 1
    43   19   21 1
    44   21   22 1
    45   21   47 1
    46   21   48 1
    47   22   23 1
    48   22   24 1
    49   24   25 1
    50   24   27 1
    51   25   26 1
    52   25   49 1
    53   25   50 1
    54   27   28 2
    55   27   29 1
    56   29   51 1
    57   29   52 1
    58   29   53 1
    59   30   54 1
    60   30   55 1
    61   30   56 1
    62   31   57 1
@<TRIPOS>MOLECULE
ZINC95486316
   50    53     0     0     0
SMALL
USER_CHARGES

@<TRIPOS>ATOM
      1 C1         -0.0187    1.5258    0.0104 C.3       1 <0>        -0.1499
      2 C2          0.0021   -0.0041    0.0020 C.3       1 <0>         0.0756
      3 H1          0.5118   -0.3584   -0.8939 H         1 <0>         0.0481
      4 C3         -1.4305   -0.5373    0.0227 C.3       1 <0>        -0.0731
      5 C4         -1.4223   -2.0269    0.2559 C.ar      1 <0>        -0.0504
      6 C5         -2.5709   -2.7470   -0.0445 C.ar      1 <0>        -0.1271
      7 C6         -2.6179   -4.1097    0.1542 C.ar      1 <0>        -0.0820
      8 C7         -1.5017   -4.7737    0.6621 C.ar      1 <0>        -0.0572
      9 C8         -0.3460   -4.0476    0.9618 C.ar      1 <0>         0.1214
     10 C9         -0.3111   -2.6738    0.7548 C.ar      1 <0>        -0.0946
     11 C10         0.9596   -1.9340    1.0822 C.3       1 <0>         0.1284
     12 H2          1.3596   -2.3061    2.0255 H         1 <0>         0.0999
     13 N1          0.7050   -0.4956    1.1978 N.3       1 <0>        -0.6751
     14 C11         1.9835   -2.1725   -0.0294 C.3       1 <0>        -0.1820
     15 O1          0.7462   -4.6862    1.4576 O.3       1 <0>        -0.4859
     16 C12        -1.5406   -6.2369    0.8816 C.ar      1 <0>        -0.0996
     17 C13        -1.9746   -6.7601    2.1231 C.ar      1 <0>         0.0296
     18 C14        -2.3746   -5.9109    3.1657 C.ar      1 <0>        -0.1192
     19 C15        -2.7888   -6.4381    4.3517 C.ar      1 <0>        -0.0810
     20 C16        -2.8231   -7.8150    4.5507 C.ar      1 <0>        -0.1597
     21 C17        -2.4379   -8.6802    3.5506 C.ar      1 <0>         0.1445
     22 C18        -2.0053   -8.1618    2.3141 C.ar      1 <0>        -0.1056
     23 C19        -1.6048   -9.0170    1.2673 C.ar      1 <0>         0.1772
     24 C20        -1.1869   -8.4861    0.0680 C.ar      1 <0>        -0.2549
     25 C21        -1.1570   -7.1069   -0.1314 C.ar      1 <0>         0.1667
     26 O2         -0.7453   -6.6086   -1.3260 O.3       1 <0>        -0.4892
     27 O3         -1.6308  -10.3631    1.4421 O.3       1 <0>        -0.2918
     28 C22        -1.2114  -11.1688    0.3389 C.3       1 <0>         0.0217
     29 O4         -2.4746  -10.0222    3.7549 O.3       1 <0>        -0.4802
     30 H3          1.0039    1.9031    0.0027 H         1 <0>         0.0561
     31 H4         -0.5459    1.8868   -0.8726 H         1 <0>         0.0637
     32 H5         -0.5289    1.8773    0.9072 H         1 <0>         0.0664
     33 H6         -1.9869   -0.0488    0.8227 H         1 <0>         0.0867
     34 H7         -1.9101   -0.3232   -0.9324 H         1 <0>         0.0789
     35 H8         -3.4361   -2.2339   -0.4375 H         1 <0>         0.1263
     36 H9         -3.5158   -4.6614   -0.0821 H         1 <0>         0.1262
     37 H10         1.5832   -1.8094   -0.9760 H         1 <0>         0.0589
     38 H11         2.9045   -1.6384    0.2043 H         1 <0>         0.0620
     39 H12         2.1922   -3.2394   -0.1084 H         1 <0>         0.0590
     40 H13         1.3583   -5.0030    0.7793 H         1 <0>         0.3814
     41 H14        -2.3539   -4.8399    3.0284 H         1 <0>         0.1305
     42 H15        -3.0948   -5.7776    5.1495 H         1 <0>         0.1303
     43 H16        -3.1548   -8.2094    5.4998 H         1 <0>         0.1327
     44 H17        -0.8811   -9.1467   -0.7298 H         1 <0>         0.1381
     45 H18         0.2059   -6.4420   -1.3760 H         1 <0>         0.3884
     46 H19        -1.8539  -10.9725   -0.5194 H         1 <0>         0.0579
     47 H20        -0.1798  -10.9265    0.0835 H         1 <0>         0.0577
     48 H21        -1.2805  -12.2220    0.6111 H         1 <0>         0.1051
     49 H22        -3.3158  -10.4339    3.5141 H         1 <0>         0.3916
     50 H23         1.5623    0.0146    1.3486 H         1 <0>         0.3471
@<TRIPOS>BOND
     1    1    2 1
     2    1   30 1
     3    1   31 1
     4    1   32 1
     5    2    3 1
     6    2   13 1
     7    2    4 1
     8    4    5 1
     9    4   33 1
    10    4   34 1
    11    5   10 ar
    12    5    6 ar
    13    6    7 ar
    14    6   35 1
    15    7    8 ar
    16    7   36 1
    17    8    9 ar
    18    8   16 1
    19    9   10 ar
    20    9   15 1
    21   10   11 1
    22   11   12 1
    23   11   13 1
    24   11   14 1
    25   13   50 1
    26   14   37 1
    27   14   38 1
    28   14   39 1
    29   15   40 1
    30   16   25 ar
    31   16   17 ar
    32   17   22 ar
    33   17   18 ar
    34   18   19 ar
    35   18   41 1
    36   19   20 ar
    37   19   42 1
    38   20   21 ar
    39   20   43 1
    40   21   22 ar
    41   21   29 1
    42   22   23 ar
    43   23   24 ar
    44   23   27 1
    45   24   25 ar
    46   24   44 1
    47   25   26 1
    48   26   45 1
    49   27   28 1
    50   28   46 1
    51   28   47 1
    52   28   48 1
    53   29   49 1
@<TRIPOS>MOLECULE
ZINC95486317
   53    56     0     0     0
SMALL
USER_CHARGES

@<TRIPOS>ATOM
      1 C1         -0.0187    1.5258    0.0104 C.3       1 <0>        -0.1498
      2 C2          0.0021   -0.0041    0.0020 C.3       1 <0>         0.0757
      3 H1          0.5118   -0.3584   -0.8939 H         1 <0>         0.0481
      4 C3         -1.4305   -0.5373    0.0227 C.3       1 <0>        -0.0728
      5 C4         -1.4223   -2.0269    0.2559 C.ar      1 <0>        -0.0513
      6 C5         -2.5709   -2.7470   -0.0445 C.ar      1 <0>        -0.1273
      7 C6         -2.6179   -4.1097    0.1542 C.ar      1 <0>        -0.0820
      8 C7         -1.5017   -4.7737    0.6621 C.ar      1 <0>        -0.0534
      9 C8         -0.3460   -4.0476    0.9618 C.ar      1 <0>         0.1211
     10 C9         -0.3111   -2.6738    0.7548 C.ar      1 <0>        -0.0950
     11 C10         0.9596   -1.9340    1.0822 C.3       1 <0>         0.1287
     12 H2          1.3596   -2.3061    2.0255 H         1 <0>         0.0996
     13 N1          0.7050   -0.4956    1.1978 N.3       1 <0>        -0.6751
     14 C11         1.9835   -2.1725   -0.0294 C.3       1 <0>        -0.1819
     15 O1          0.7462   -4.6862    1.4576 O.3       1 <0>        -0.4857
     16 C12        -1.5406   -6.2369    0.8816 C.ar      1 <0>        -0.1086
     17 C13        -1.9746   -6.7601    2.1231 C.ar      1 <0>         0.0517
     18 C14        -2.3746   -5.9109    3.1657 C.ar      1 <0>        -0.1512
     19 C15        -2.7888   -6.4381    4.3517 C.ar      1 <0>        -0.0541
     20 C16        -2.8231   -7.8150    4.5507 C.ar      1 <0>        -0.2382
     21 C17        -2.4379   -8.6802    3.5506 C.ar      1 <0>         0.1688
     22 C18        -2.0053   -8.1618    2.3141 C.ar      1 <0>        -0.1032
     23 C19        -1.6048   -9.0170    1.2673 C.ar      1 <0>         0.1895
     24 C20        -1.1869   -8.4861    0.0680 C.ar      1 <0>        -0.2653
     25 C21        -1.1570   -7.1069   -0.1314 C.ar      1 <0>         0.1753
     26 O2         -0.7453   -6.6086   -1.3260 O.3       1 <0>        -0.4895
     27 O3         -1.6308  -10.3631    1.4421 O.3       1 <0>        -0.2868
     28 C22        -1.2114  -11.1688    0.3389 C.3       1 <0>         0.0219
     29 O4         -2.4746  -10.0222    3.7549 O.3       1 <0>        -0.2915
     30 C23        -2.9242  -10.4715    5.0347 C.3       1 <0>         0.0236
     31 H3          1.0039    1.9031    0.0027 H         1 <0>         0.0560
     32 H4         -0.5459    1.8868   -0.8726 H         1 <0>         0.0636
     33 H5         -0.5289    1.8773    0.9072 H         1 <0>         0.0663
     34 H6         -1.9869   -0.0488    0.8227 H         1 <0>         0.0863
     35 H7         -1.9101   -0.3232   -0.9324 H         1 <0>         0.0786
     36 H8         -3.4361   -2.2339   -0.4375 H         1 <0>         0.1258
     37 H9         -3.5158   -4.6614   -0.0821 H         1 <0>         0.1261
     38 H10         1.5832   -1.8094   -0.9760 H         1 <0>         0.0588
     39 H11         2.9045   -1.6384    0.2043 H         1 <0>         0.0616
     40 H12         2.1922   -3.2394   -0.1084 H         1 <0>         0.0591
     41 H13         1.3583   -5.0030    0.7793 H         1 <0>         0.3809
     42 H14        -2.3539   -4.8399    3.0284 H         1 <0>         0.1290
     43 H15        -3.0948   -5.7776    5.1495 H         1 <0>         0.1271
     44 H16        -3.1548   -8.2094    5.4998 H         1 <0>         0.1307
     45 H17        -0.8811   -9.1467   -0.7298 H         1 <0>         0.1381
     46 H18         0.2059   -6.4420   -1.3760 H         1 <0>         0.3886
     47 H19        -1.8539  -10.9725   -0.5194 H         1 <0>         0.0581
     48 H20        -0.1798  -10.9265    0.0835 H         1 <0>         0.0573
     49 H21        -1.2805  -12.2220    0.6111 H         1 <0>         0.1039
     50 H22        -2.2686  -10.0750    5.8099 H         1 <0>         0.0569
     51 H23        -3.9422  -10.1214    5.2056 H         1 <0>         0.0568
     52 H24        -2.9049  -11.5610    5.0646 H         1 <0>         0.1020
     53 H25         1.5623    0.0146    1.3486 H         1 <0>         0.3468
@<TRIPOS>BOND
     1    1    2 1
     2    1   31 1
     3    1   32 1
     4    1   33 1
     5    2    3 1
     6    2   13 1
     7    2    4 1
     8    4    5 1
     9    4   34 1
    10    4   35 1
    11    5   10 ar
    12    5    6 ar
    13    6    7 ar
    14    6   36 1
    15    7    8 ar
    16    7   37 1
    17    8    9 ar
    18    8   16 1
    19    9   10 ar
    20    9   15 1
    21   10   11 1
    22   11   12 1
    23   11   13 1
    24   11   14 1
    25   13   53 1
    26   14   38 1
    27   14   39 1
    28   14   40 1
    29   15   41 1
    30   16   25 ar
    31   16   17 ar
    32   17   22 ar
    33   17   18 ar
    34   18   19 ar
    35   18   42 1
    36   19   20 ar
    37   19   43 1
    38   20   21 ar
    39   20   44 1
    40   21   22 ar
    41   21   29 1
    42   22   23 ar
    43   23   24 ar
    44   23   27 1
    45   24   25 ar
    46   24   45 1
    47   25   26 1
    48   26   46 1
    49   27   28 1
    50   28   47 1
    51   28   48 1
    52   28   49 1
    53   29   30 1
    54   30   50 1
    55   30   51 1
    56   30   52 1
@<TRIPOS>MOLECULE
ZINC95486318
   58    61     0     0     0
SMALL
USER_CHARGES

@<TRIPOS>ATOM
      1 C1         -0.0367    1.4877   -0.2171 C.3       1 <0>        -0.1499
      2 C2         -0.0635   -0.0418   -0.2458 C.3       1 <0>         0.0761
      3 H1          0.2236   -0.3945   -1.2364 H         1 <0>         0.0476
      4 C3         -1.4708   -0.5373    0.0879 C.3       1 <0>        -0.0723
      5 C4         -1.4542   -2.0295    0.2997 C.ar      1 <0>        -0.0533
      6 C5         -2.6584   -2.7168    0.2569 C.ar      1 <0>        -0.1331
      7 C6         -2.6917   -4.0835    0.4494 C.ar      1 <0>        -0.0865
      8 C7         -1.5187   -4.7740    0.6871 C.ar      1 <0>        -0.0980
      9 C8         -0.3142   -4.0914    0.7288 C.ar      1 <0>         0.1129
     10 C9         -0.2815   -2.7136    0.5321 C.ar      1 <0>        -0.0963
     11 C10         1.0519   -2.0145    0.5753 C.3       1 <0>         0.1288
     12 H2          1.6400   -2.4124    1.4022 H         1 <0>         0.0988
     13 N1          0.8730   -0.5716    0.7582 N.3       1 <0>        -0.6754
     14 C11         1.7953   -2.2633   -0.7386 C.3       1 <0>        -0.1818
     15 O1          0.8402   -4.7693    0.9630 O.3       1 <0>        -0.4912
     16 C12        -1.5500   -6.2701    0.9014 C.3       1 <0>         0.0013
     17 H3         -0.5538   -6.5936    1.2188 H         1 <0>         0.0978
     18 C13        -2.5378   -6.6011    1.9843 C.ar      1 <0>        -0.0259
     19 C14        -2.5293   -5.8147    3.1313 C.ar      1 <0>        -0.1446
     20 C15        -3.4197   -6.0490    4.1594 C.ar      1 <0>        -0.0843
     21 C16        -4.3174   -7.0924    4.0622 C.ar      1 <0>        -0.2128
     22 C17        -4.3108   -7.8986    2.9363 C.ar      1 <0>         0.1259
     23 C18        -3.4206   -7.6534    1.8898 C.ar      1 <0>        -0.0921
     24 C19        -3.4581   -8.5808    0.7100 C.3       1 <0>        -0.0383
     25 H4         -3.3949   -9.6137    1.1034 H         1 <0>         0.0742
     26 C20        -2.2972   -8.3852   -0.2451 C.3       1 <0>        -0.1057
     27 C21        -1.8897   -6.9339   -0.4246 C.3       1 <0>        -0.0753
     28 H5         -0.9664   -6.9178   -1.0433 H         1 <0>         0.0656
     29 C22        -2.9403   -6.1182   -1.1754 C.3       1 <0>        -0.1521
     30 C23        -4.7930   -8.4640   -0.0260 C.3       1 <0>        -0.1449
     31 O2         -5.1742   -8.9472    2.8756 O.3       1 <0>        -0.3136
     32 C24        -6.0382   -9.1419    3.9970 C.3       1 <0>         0.0265
     33 H6          0.9692    1.8379   -0.4485 H         1 <0>         0.0559
     34 H7         -0.7362    1.8772   -0.9568 H         1 <0>         0.0634
     35 H8         -0.3242    1.8376    0.7744 H         1 <0>         0.0661
     36 H9         -1.8213   -0.0468    0.9960 H         1 <0>         0.0850
     37 H10        -2.1440   -0.2960   -0.7348 H         1 <0>         0.0773
     38 H11        -3.5765   -2.1789    0.0721 H         1 <0>         0.1226
     39 H12        -3.6329   -4.6119    0.4147 H         1 <0>         0.1303
     40 H13         1.2058   -1.8743   -1.5689 H         1 <0>         0.0581
     41 H14         2.7610   -1.7587   -0.7108 H         1 <0>         0.0612
     42 H15         1.9486   -3.3341   -0.8722 H         1 <0>         0.0597
     43 H16         1.2761   -5.0921    0.1625 H         1 <0>         0.3848
     44 H17        -1.8079   -5.0193    3.2479 H         1 <0>         0.1199
     45 H18        -3.4120   -5.4176    5.0354 H         1 <0>         0.1229
     46 H19        -5.0223   -7.2804    4.8586 H         1 <0>         0.1270
     47 H20        -1.4331   -8.9610    0.1209 H         1 <0>         0.0615
     48 H21        -2.5648   -8.8102   -1.2248 H         1 <0>         0.0693
     49 H22        -2.5182   -5.1535   -1.4570 H         1 <0>         0.0615
     50 H23        -3.2459   -6.6569   -2.0723 H         1 <0>         0.0536
     51 H24        -3.8066   -5.9620   -0.5325 H         1 <0>         0.0624
     52 H25        -4.9257   -7.4409   -0.3776 H         1 <0>         0.0555
     53 H26        -4.7991   -9.1445   -0.8775 H         1 <0>         0.0553
     54 H27        -5.6058   -8.7235    0.6523 H         1 <0>         0.0635
     55 H28        -5.4394   -9.3070    4.8927 H         1 <0>         0.0548
     56 H29        -6.6606   -8.2576    4.1340 H         1 <0>         0.0546
     57 H30        -6.6737  -10.0096    3.8197 H         1 <0>         0.0996
     58 H31         1.7574   -0.0875    0.7188 H         1 <0>         0.3465
@<TRIPOS>BOND
     1    1    2 1
     2    1   33 1
     3    1   34 1
     4    1   35 1
     5    2    3 1
     6    2   13 1
     7    2    4 1
     8    4    5 1
     9    4   36 1
    10    4   37 1
    11    5   10 ar
    12    5    6 ar
    13    6    7 ar
    14    6   38 1
    15    7    8 ar
    16    7   39 1
    17    8    9 ar
    18    8   16 1
    19    9   10 ar
    20    9   15 1
    21   10   11 1
    22   11   12 1
    23   11   13 1
    24   11   14 1
    25   13   58 1
    26   14   40 1
    27   14   41 1
    28   14   42 1
    29   15   43 1
    30   16   17 1
    31   16   27 1
    32   16   18 1
    33   18   23 ar
    34   18   19 ar
    35   19   20 ar
    36   19   44 1
    37   20   21 ar
    38   20   45 1
    39   21   22 ar
    40   21   46 1
    41   22   23 ar
    42   22   31 1
    43   23   24 1
    44   24   25 1
    45   24   26 1
    46   24   30 1
    47   26   27 1
    48   26   47 1
    49   26   48 1
    50   27   28 1
    51   27   29 1
    52   29   49 1
    53   29   50 1
    54   29   51 1
    55   30   52 1
    56   30   53 1
    57   30   54 1
    58   31   32 1
    59   32   55 1
    60   32   56 1
    61   32   57 1
@<TRIPOS>MOLECULE
ZINC95486319
   56    59     0     0     0
SMALL
USER_CHARGES

@<TRIPOS>ATOM
      1 C1         -2.1479    1.8260    2.5435 C.3       1 <0>        -0.1498
      2 C2         -1.8128    0.3726    2.2028 C.3       1 <0>         0.0763
      3 H1         -1.2010    0.3395    1.3013 H         1 <0>         0.0472
      4 C3         -3.1048   -0.4128    1.9757 C.3       1 <0>        -0.0723
      5 C4         -2.8012   -1.8860    1.8794 C.ar      1 <0>        -0.0526
      6 C5         -3.7593   -2.7237    1.3275 C.ar      1 <0>        -0.1370
      7 C6         -3.5263   -4.0805    1.2229 C.ar      1 <0>        -0.0627
      8 C7         -2.3314   -4.6104    1.6707 C.ar      1 <0>        -0.1007
      9 C8         -1.3717   -3.7768    2.2208 C.ar      1 <0>         0.1098
     10 C9         -1.6067   -2.4084    2.3236 C.ar      1 <0>        -0.1008
     11 C10        -0.5305   -1.5387    2.9185 C.3       1 <0>         0.1295
     12 H2         -0.1064   -2.0369    3.7904 H         1 <0>         0.0980
     13 N1         -1.0790   -0.2408    3.3212 N.3       1 <0>        -0.6754
     14 C11         0.5702   -1.3155    1.8795 C.3       1 <0>        -0.1815
     15 O1         -0.1962   -4.2967    2.6623 O.3       1 <0>        -0.4924
     16 C12        -2.0732   -6.0911    1.5614 C.3       1 <0>         0.0046
     17 H3         -1.0853   -6.3143    1.9641 H         1 <0>         0.1066
     18 C13        -3.1136   -6.8367    2.3558 C.ar      1 <0>        -0.0244
     19 C14        -3.4659   -6.3263    3.5993 C.ar      1 <0>        -0.1434
     20 C15        -4.4079   -6.9635    4.3802 C.ar      1 <0>        -0.0843
     21 C16        -5.0085   -8.1216    3.9249 C.ar      1 <0>        -0.2111
     22 C17        -4.6625   -8.6325    2.6857 C.ar      1 <0>         0.1252
     23 C18        -3.7132   -7.9861    1.8956 C.ar      1 <0>        -0.0900
     24 C19        -3.3937   -8.5855    0.5512 C.3       1 <0>        -0.0322
     25 H4         -3.3177   -9.6684    0.6495 H         1 <0>         0.0763
     26 C20        -2.0731   -8.0344    0.0173 C.3       1 <0>        -0.1509
     27 C21        -2.1232   -6.5039    0.0918 C.3       1 <0>         0.1156
     28 H5         -1.2680   -6.0830   -0.4370 H         1 <0>         0.0593
     29 O2         -3.3354   -6.0321   -0.4997 O.3       1 <0>        -0.5475
     30 C22        -4.5156   -8.2458   -0.4321 C.3       1 <0>        -0.1518
     31 O3         -5.2520   -9.7716    2.2365 O.3       1 <0>        -0.3138
     32 C23        -6.2163  -10.3848    3.0945 C.3       1 <0>         0.0270
     33 H6         -1.2255    2.3818    2.7116 H         1 <0>         0.0557
     34 H7         -2.6974    2.2757    1.7164 H         1 <0>         0.0633
     35 H8         -2.7597    1.8561    3.4451 H         1 <0>         0.0660
     36 H9         -3.7860   -0.2374    2.8084 H         1 <0>         0.0845
     37 H10        -3.5735   -0.0786    1.0501 H         1 <0>         0.0769
     38 H11        -4.6943   -2.3117    0.9775 H         1 <0>         0.1209
     39 H12        -4.2768   -4.7266    0.7920 H         1 <0>         0.1412
     40 H13         0.1478   -0.8251    1.0024 H         1 <0>         0.0578
     41 H14         1.3510   -0.6863    2.3067 H         1 <0>         0.0606
     42 H15         0.9959   -2.2759    1.5890 H         1 <0>         0.0592
     43 H16         0.4979   -4.3265    1.9897 H         1 <0>         0.3836
     44 H17        -2.9973   -5.4218    3.9582 H         1 <0>         0.1208
     45 H18        -4.6748   -6.5585    5.3451 H         1 <0>         0.1226
     46 H19        -5.7445   -8.6262    4.5333 H         1 <0>         0.1258
     47 H20        -1.2480   -8.4052    0.6255 H         1 <0>         0.0743
     48 H21        -1.9364   -8.3474   -1.0178 H         1 <0>         0.0731
     49 H22        -3.4317   -6.2602   -1.4345 H         1 <0>         0.3743
     50 H23        -4.8074   -7.2034   -0.3043 H         1 <0>         0.0868
     51 H24        -4.1645   -8.4024   -1.4520 H         1 <0>         0.0487
     52 H25        -5.3740   -8.8895   -0.2404 H         1 <0>         0.0493
     53 H26        -5.7437  -10.6527    4.0395 H         1 <0>         0.0542
     54 H27        -7.0324   -9.6868    3.2814 H         1 <0>         0.0545
     55 H28        -6.6085  -11.2828    2.6170 H         1 <0>         0.0991
     56 H29        -0.3519    0.3731    3.6566 H         1 <0>         0.3460
@<TRIPOS>BOND
     1    1    2 1
     2    1   33 1
     3    1   34 1
     4    1   35 1
     5    2    3 1
     6    2   13 1
     7    2    4 1
     8    4    5 1
     9    4   36 1
    10    4   37 1
    11    5   10 ar
    12    5    6 ar
    13    6    7 ar
    14    6   38 1
    15    7    8 ar
    16    7   39 1
    17    8    9 ar
    18    8   16 1
    19    9   10 ar
    20    9   15 1
    21   10   11 1
    22   11   12 1
    23   11   13 1
    24   11   14 1
    25   13   56 1
    26   14   40 1
    27   14   41 1
    28   14   42 1
    29   15   43 1
    30   16   17 1
    31   16   27 1
    32   16   18 1
    33   18   23 ar
    34   18   19 ar
    35   19   20 ar
    36   19   44 1
    37   20   21 ar
    38   20   45 1
    39   21   22 ar
    40   21   46 1
    41   22   23 ar
    42   22   31 1
    43   23   24 1
    44   24   25 1
    45   24   26 1
    46   24   30 1
    47   26   27 1
    48   26   47 1
    49   26   48 1
    50   27   28 1
    51   27   29 1
    52   29   49 1
    53   30   50 1
    54   30   51 1
    55   30   52 1
    56   31   32 1
    57   32   53 1
    58   32   54 1
    59   32   55 1
@<TRIPOS>MOLECULE
ZINC95486320
   49    53     0     0     0
SMALL
USER_CHARGES

@<TRIPOS>ATOM
      1 C1         -0.0187    1.5258    0.0104 C.3       1 <0>        -0.1491
      2 C2          0.0021   -0.0041    0.0020 C.3       1 <0>         0.0734
      3 H1          0.5118   -0.3585   -0.8939 H         1 <0>         0.0507
      4 C3         -1.4308   -0.5375    0.0230 C.3       1 <0>        -0.0723
      5 C4         -1.4210   -2.0257    0.2591 C.ar      1 <0>        -0.0410
      6 C5         -2.5656   -2.7528   -0.0345 C.ar      1 <0>        -0.1230
      7 C6         -2.6039   -4.1124    0.1569 C.ar      1 <0>        -0.0908
      8 C7         -1.4856   -4.7972    0.6616 C.ar      1 <0>        -0.0855
      9 C8         -0.3477   -4.0470    0.9693 C.ar      1 <0>         0.1303
     10 C9         -0.3120   -2.6747    0.7589 C.ar      1 <0>        -0.0709
     11 C10         0.9595   -1.9342    1.0842 C.3       1 <0>         0.1273
     12 H2          1.3613   -2.3052    2.0270 H         1 <0>         0.1016
     13 N1          0.7047   -0.4957    1.1979 N.3       1 <0>        -0.6755
     14 C11         1.9817   -2.1712   -0.0293 C.3       1 <0>        -0.1814
     15 O1          0.7236   -4.6678    1.5088 O.3       1 <0>        -0.3086
     16 C12         0.5295   -5.3143    2.6516 C.2       1 <0>         0.5416
     17 O2          0.8644   -4.7558    3.6780 O.2       1 <0>        -0.4494
     18 C13        -0.0509   -6.6353    2.7664 C.ar      1 <0>        -0.2166
     19 C14         0.3397   -7.4787    3.8016 C.ar      1 <0>         0.0326
     20 C15        -0.1836   -8.7520    3.9201 C.ar      1 <0>        -0.2551
     21 C16        -1.0832   -9.2268    2.9905 C.ar      1 <0>         0.2091
     22 C17        -1.4878   -8.4297    1.9017 C.ar      1 <0>        -0.1163
     23 C18        -1.0644   -7.0768    1.8019 C.ar      1 <0>         0.0571
     24 C19        -1.6183   -6.2629    0.8037 C.ar      1 <0>        -0.0618
     25 C20        -2.4046   -6.8647   -0.1883 C.ar      1 <0>        -0.0556
     26 C21        -2.7225   -8.2072   -0.1532 C.ar      1 <0>        -0.1618
     27 C22        -2.2918   -8.9957    0.8912 C.ar      1 <0>         0.1668
     28 O3         -2.6385  -10.3071    0.9471 O.3       1 <0>        -0.4767
     29 O4         -1.5855  -10.4785    3.1254 O.3       1 <0>        -0.2906
     30 C23        -1.1379  -11.2396    4.2489 C.3       1 <0>         0.0191
     31 H3          1.0039    1.9031    0.0027 H         1 <0>         0.0570
     32 H4         -0.5459    1.8868   -0.8726 H         1 <0>         0.0641
     33 H5         -0.5289    1.8773    0.9072 H         1 <0>         0.0665
     34 H6         -1.9877   -0.0479    0.8218 H         1 <0>         0.0904
     35 H7         -1.9099   -0.3258   -0.9329 H         1 <0>         0.0833
     36 H8         -3.4373   -2.2434   -0.4178 H         1 <0>         0.1335
     37 H9         -3.5030   -4.6607   -0.0827 H         1 <0>         0.1345
     38 H10         1.5796   -1.8079   -0.9750 H         1 <0>         0.0582
     39 H11         2.9028   -1.6367    0.2032 H         1 <0>         0.0621
     40 H12         2.1910   -3.2380   -0.1093 H         1 <0>         0.0693
     41 H13         1.0640   -7.1327    4.5241 H         1 <0>         0.1443
     42 H14         0.1148   -9.3795    4.7469 H         1 <0>         0.1456
     43 H15        -2.7728   -6.2600   -1.0038 H         1 <0>         0.1392
     44 H16        -3.3108   -8.6416   -0.9479 H         1 <0>         0.1427
     45 H17        -3.4639  -10.4758    1.4217 H         1 <0>         0.3973
     46 H18        -0.0561  -11.3622    4.1970 H         1 <0>         0.0635
     47 H19        -1.4007  -10.7178    5.1692 H         1 <0>         0.0627
     48 H20        -1.6155  -12.2193    4.2377 H         1 <0>         0.1086
     49 H21         1.5619    0.0148    1.3490 H         1 <0>         0.3496
@<TRIPOS>BOND
     1    1    2 1
     2    1   31 1
     3    1   32 1
     4    1   33 1
     5    2    3 1
     6    2   13 1
     7    2    4 1
     8    4    5 1
     9    4   34 1
    10    4   35 1
    11    5   10 ar
    12    5    6 ar
    13    6    7 ar
    14    6   36 1
    15    7    8 ar
    16    7   37 1
    17    8   24 1
    18    8    9 ar
    19    9   10 ar
    20    9   15 1
    21   10   11 1
    22   11   12 1
    23   11   13 1
    24   11   14 1
    25   13   49 1
    26   14   38 1
    27   14   39 1
    28   14   40 1
    29   15   16 1
    30   16   17 2
    31   16   18 1
    32   18   23 ar
    33   18   19 ar
    34   19   20 ar
    35   19   41 1
    36   20   21 ar
    37   20   42 1
    38   21   22 ar
    39   21   29 1
    40   22   27 ar
    41   22   23 ar
    42   23   24 ar
    43   24   25 ar
    44   25   26 ar
    45   25   43 1
    46   26   27 ar
    47   26   44 1
    48   27   28 1
    49   28   45 1
    50   29   30 1
    51   30   46 1
    52   30   47 1
    53   30   48 1
@<TRIPOS>MOLECULE
ZINC95486321
   56    59     0     0     0
SMALL
USER_CHARGES

@<TRIPOS>ATOM
      1 C1          0.8688    1.3119    0.0605 C.3       1 <0>        -0.1491
      2 C2          0.5677   -0.1850   -0.0368 C.3       1 <0>         0.0759
      3 H1          1.0244   -0.5925   -0.9387 H         1 <0>         0.0484
      4 C3         -0.9448   -0.4027   -0.0835 C.3       1 <0>        -0.0711
      5 C4         -1.2587   -1.8702    0.0623 C.ar      1 <0>        -0.0549
      6 C5         -2.5210   -2.3139   -0.3086 C.ar      1 <0>        -0.1263
      7 C6         -2.8609   -3.6441   -0.1912 C.ar      1 <0>        -0.0886
      8 C7         -1.9289   -4.5550    0.3050 C.ar      1 <0>        -0.0404
      9 C8         -0.6583   -4.1070    0.6758 C.ar      1 <0>         0.1186
     10 C9         -0.3276   -2.7630    0.5504 C.ar      1 <0>        -0.0901
     11 C10         1.0572   -2.3274    0.9526 C.3       1 <0>         0.1306
     12 H2          1.3348   -2.8242    1.8823 H         1 <0>         0.0912
     13 N1          1.1067   -0.8757    1.1457 N.3       1 <0>        -0.6766
     14 C11         2.0486   -2.7196   -0.1448 C.3       1 <0>        -0.1793
     15 O1          0.2560   -4.9875    1.1609 O.3       1 <0>        -0.3285
     16 C12         0.2766   -5.1879    2.5756 C.3       1 <0>         0.0306
     17 C13        -2.2828   -5.9861    0.4376 C.ar      1 <0>        -0.1241
     18 C14        -2.8628   -6.4689    1.6350 C.ar      1 <0>         0.0495
     19 C15        -3.1137   -5.6094    2.7150 C.ar      1 <0>        -0.1371
     20 C16        -3.6732   -6.0975    3.8573 C.ar      1 <0>        -0.0722
     21 C17        -4.0036   -7.4442    3.9746 C.ar      1 <0>        -0.1734
     22 C18        -3.7722   -8.3185    2.9356 C.ar      1 <0>         0.1565
     23 C19        -3.1947   -7.8402    1.7429 C.ar      1 <0>        -0.1288
     24 C20        -2.9445   -8.7055    0.6583 C.ar      1 <0>         0.1992
     25 C21        -2.3801   -8.2138   -0.4970 C.ar      1 <0>        -0.3057
     26 C22        -2.0534   -6.8639   -0.6145 C.ar      1 <0>         0.1997
     27 O2         -1.5021   -6.4030   -1.7672 O.3       1 <0>        -0.2997
     28 C23        -1.2914   -7.3553   -2.8116 C.3       1 <0>         0.0247
     29 O3         -3.2594  -10.0227    0.7534 O.3       1 <0>        -0.2903
     30 C24        -2.9782  -10.8407   -0.3840 C.3       1 <0>         0.0214
     31 O4         -4.0978   -9.6308    3.0601 O.3       1 <0>        -0.4814
     32 H3          1.9474    1.4636    0.1007 H         1 <0>         0.0556
     33 H4          0.4625    1.8218   -0.8130 H         1 <0>         0.0632
     34 H5          0.4110    1.7166    0.9632 H         1 <0>         0.0658
     35 H6         -1.4153    0.1505    0.7293 H         1 <0>         0.0853
     36 H7         -1.3329   -0.0426   -1.0364 H         1 <0>         0.0778
     37 H8         -3.2439   -1.6093   -0.6927 H         1 <0>         0.1250
     38 H9         -3.8454   -3.9798   -0.4820 H         1 <0>         0.1250
     39 H10         1.7045   -2.3281   -1.1021 H         1 <0>         0.0559
     40 H11         3.0295   -2.3043    0.0863 H         1 <0>         0.0567
     41 H12         2.1179   -3.8060   -0.2004 H         1 <0>         0.0713
     42 H13         1.1095   -5.8401    2.8382 H         1 <0>         0.0909
     43 H14         0.3952   -4.2273    3.0770 H         1 <0>         0.0465
     44 H15        -0.6594   -5.6491    2.8909 H         1 <0>         0.0513
     45 H16        -2.8632   -4.5614    2.6411 H         1 <0>         0.1292
     46 H17        -3.8628   -5.4293    4.6843 H         1 <0>         0.1296
     47 H18        -4.4459   -7.8079    4.8903 H         1 <0>         0.1315
     48 H19        -2.1906   -8.8821   -1.3240 H         1 <0>         0.1391
     49 H20        -0.8470   -6.8571   -3.6732 H         1 <0>         0.1025
     50 H21        -0.6207   -8.1388   -2.4590 H         1 <0>         0.0557
     51 H22        -2.2458   -7.7963   -3.0992 H         1 <0>         0.0551
     52 H23        -3.5327  -10.4684   -1.2454 H         1 <0>         0.0568
     53 H24        -1.9099  -10.8098   -0.5986 H         1 <0>         0.0576
     54 H25        -3.2773  -11.8680   -0.1757 H         1 <0>         0.1061
     55 H26        -4.9972   -9.8418    2.7745 H         1 <0>         0.3920
     56 H27         2.0459   -0.5674    1.3476 H         1 <0>         0.3460
@<TRIPOS>BOND
     1    1    2 1
     2    1   32 1
     3    1   33 1
     4    1   34 1
     5    2    3 1
     6    2   13 1
     7    2    4 1
     8    4    5 1
     9    4   35 1
    10    4   36 1
    11    5   10 ar
    12    5    6 ar
    13    6    7 ar
    14    6   37 1
    15    7    8 ar
    16    7   38 1
    17    8    9 ar
    18    8   17 1
    19    9   10 ar
    20    9   15 1
    21   10   11 1
    22   11   12 1
    23   11   13 1
    24   11   14 1
    25   13   56 1
    26   14   39 1
    27   14   40 1
    28   14   41 1
    29   15   16 1
    30   16   42 1
    31   16   43 1
    32   16   44 1
    33   17   26 ar
    34   17   18 ar
    35   18   23 ar
    36   18   19 ar
    37   19   20 ar
    38   19   45 1
    39   20   21 ar
    40   20   46 1
    41   21   22 ar
    42   21   47 1
    43   22   23 ar
    44   22   31 1
    45   23   24 ar
    46   24   25 ar
    47   24   29 1
    48   25   26 ar
    49   25   48 1
    50   26   27 1
    51   27   28 1
    52   28   49 1
    53   28   50 1
    54   28   51 1
    55   29   30 1
    56   30   52 1
    57   30   53 1
    58   30   54 1
    59   31   55 1
@<TRIPOS>MOLECULE
ZINC95486322
   53    56     0     0     0
SMALL
USER_CHARGES

@<TRIPOS>ATOM
      1 C1         -0.0187    1.5258    0.0104 C.3       1 <0>        -0.1496
      2 C2          0.0021   -0.0041    0.0020 C.3       1 <0>         0.0755
      3 H1          0.5118   -0.3584   -0.8939 H         1 <0>         0.0477
      4 C3         -1.4305   -0.5373    0.0227 C.3       1 <0>        -0.0719
      5 C4         -1.4223   -2.0269    0.2559 C.ar      1 <0>        -0.0526
      6 C5         -2.5709   -2.7470   -0.0445 C.ar      1 <0>        -0.1295
      7 C6         -2.6179   -4.1097    0.1542 C.ar      1 <0>        -0.0861
      8 C7         -1.5017   -4.7737    0.6621 C.ar      1 <0>        -0.0478
      9 C8         -0.3460   -4.0476    0.9618 C.ar      1 <0>         0.1283
     10 C9         -0.3111   -2.6738    0.7548 C.ar      1 <0>        -0.0964
     11 C10         0.9596   -1.9340    1.0822 C.3       1 <0>         0.1290
     12 H2          1.3596   -2.3061    2.0255 H         1 <0>         0.0995
     13 N1          0.7050   -0.4956    1.1978 N.3       1 <0>        -0.6749
     14 C11         1.9835   -2.1725   -0.0294 C.3       1 <0>        -0.1817
     15 O1          0.7462   -4.6862    1.4576 O.3       1 <0>        -0.4872
     16 C12        -1.5406   -6.2369    0.8816 C.ar      1 <0>        -0.1184
     17 C13        -1.9746   -6.7601    2.1231 C.ar      1 <0>         0.0523
     18 C14        -2.3746   -5.9109    3.1657 C.ar      1 <0>        -0.1258
     19 C15        -2.7888   -6.4381    4.3517 C.ar      1 <0>        -0.0748
     20 C16        -2.8231   -7.8150    4.5507 C.ar      1 <0>        -0.1694
     21 C17        -2.4379   -8.6802    3.5506 C.ar      1 <0>         0.1513
     22 C18        -2.0053   -8.1618    2.3141 C.ar      1 <0>        -0.1267
     23 C19        -1.6048   -9.0170    1.2673 C.ar      1 <0>         0.1993
     24 C20        -1.1869   -8.4861    0.0680 C.ar      1 <0>        -0.3065
     25 C21        -1.1570   -7.1069   -0.1314 C.ar      1 <0>         0.1859
     26 O2         -0.7453   -6.6086   -1.3260 O.3       1 <0>        -0.3056
     27 C22        -0.3640   -7.5546   -2.3268 C.3       1 <0>         0.0244
     28 O3         -1.6308  -10.3631    1.4421 O.3       1 <0>        -0.2901
     29 C23        -1.2114  -11.1688    0.3389 C.3       1 <0>         0.0216
     30 O4         -2.4746  -10.0222    3.7549 O.3       1 <0>        -0.4814
     31 H3          1.0039    1.9031    0.0027 H         1 <0>         0.0557
     32 H4         -0.5459    1.8868   -0.8726 H         1 <0>         0.0633
     33 H5         -0.5289    1.8773    0.9072 H         1 <0>         0.0662
     34 H6         -1.9869   -0.0488    0.8227 H         1 <0>         0.0857
     35 H7         -1.9101   -0.3232   -0.9324 H         1 <0>         0.0777
     36 H8         -3.4361   -2.2339   -0.4375 H         1 <0>         0.1245
     37 H9         -3.5158   -4.6614   -0.0821 H         1 <0>         0.1245
     38 H10         1.5832   -1.8094   -0.9760 H         1 <0>         0.0582
     39 H11         2.9045   -1.6384    0.2043 H         1 <0>         0.0610
     40 H12         2.1922   -3.2394   -0.1084 H         1 <0>         0.0596
     41 H13         1.3583   -5.0030    0.7793 H         1 <0>         0.3837
     42 H14        -2.3539   -4.8399    3.0284 H         1 <0>         0.1307
     43 H15        -3.0948   -5.7776    5.1495 H         1 <0>         0.1296
     44 H16        -3.1548   -8.2094    5.4998 H         1 <0>         0.1314
     45 H17        -0.8811   -9.1467   -0.7298 H         1 <0>         0.1385
     46 H18         0.4663   -8.1576   -1.9592 H         1 <0>         0.0556
     47 H19        -1.2102   -8.2025   -2.5556 H         1 <0>         0.0559
     48 H20        -0.0572   -7.0254   -3.2290 H         1 <0>         0.1024
     49 H21        -0.1798  -10.9265    0.0835 H         1 <0>         0.0571
     50 H22        -1.2805  -12.2220    0.6111 H         1 <0>         0.1060
     51 H23        -1.8539  -10.9725   -0.5194 H         1 <0>         0.0565
     52 H24        -3.3158  -10.4339    3.5141 H         1 <0>         0.3910
     53 H25         1.5623    0.0146    1.3486 H         1 <0>         0.3464
@<TRIPOS>BOND
     1    1    2 1
     2    1   31 1
     3    1   32 1
     4    1   33 1
     5    2    3 1
     6    2   13 1
     7    2    4 1
     8    4    5 1
     9    4   34 1
    10    4   35 1
    11    5   10 ar
    12    5    6 ar
    13    6    7 ar
    14    6   36 1
    15    7    8 ar
    16    7   37 1
    17    8    9 ar
    18    8   16 1
    19    9   10 ar
    20    9   15 1
    21   10   11 1
    22   11   12 1
    23   11   13 1
    24   11   14 1
    25   13   53 1
    26   14   38 1
    27   14   39 1
    28   14   40 1
    29   15   41 1
    30   16   25 ar
    31   16   17 ar
    32   17   22 ar
    33   17   18 ar
    34   18   19 ar
    35   18   42 1
    36   19   20 ar
    37   19   43 1
    38   20   21 ar
    39   20   44 1
    40   21   22 ar
    41   21   30 1
    42   22   23 ar
    43   23   24 ar
    44   23   28 1
    45   24   25 ar
    46   24   45 1
    47   25   26 1
    48   26   27 1
    49   27   46 1
    50   27   47 1
    51   27   48 1
    52   28   29 1
    53   29   49 1
    54   29   50 1
    55   29   51 1
    56   30   52 1
@<TRIPOS>MOLECULE
ZINC95486343
   50    53     0     0     0
SMALL
USER_CHARGES

@<TRIPOS>ATOM
      1 C1         -0.1521    1.2150   -0.4065 C.3       1 <0>         0.0209
      2 N1         -0.1038   -0.2514   -0.3176 N.3       1 <0>        -0.5339
      3 C2          0.5085   -0.8057   -1.5297 C.3       1 <0>         0.0538
      4 C3          0.3239   -2.3115   -1.5853 C.3       1 <0>        -0.0770
      5 C4          0.4518   -2.9487   -0.2301 C.ar      1 <0>        -0.0310
      6 C5          0.3849   -4.3358   -0.1632 C.ar      1 <0>        -0.1885
      7 C6          0.4748   -4.9833    1.0526 C.ar      1 <0>         0.1283
      8 C7          0.6481   -4.2435    2.2202 C.ar      1 <0>         0.0946
      9 C8          0.7695   -2.8625    2.1575 C.ar      1 <0>        -0.0218
     10 C9          0.6231   -2.2131    0.9196 C.ar      1 <0>        -0.0907
     11 C10         0.6103   -0.7042    0.8815 C.3       1 <0>         0.1381
     12 H1          1.6367   -0.3387    0.8548 H         1 <0>         0.0546
     13 C11        -0.0840   -0.1640    2.1322 C.3       1 <0>        -0.0672
     14 C12         0.6056   -0.7088    3.3582 C.ar      1 <0>        -0.0946
     15 C13         1.0550   -2.0313    3.3487 C.ar      1 <0>        -0.0335
     16 C14         1.8200   -2.4865    4.4194 C.ar      1 <0>         0.1129
     17 C15         1.9834   -1.6822    5.5464 C.ar      1 <0>         0.0897
     18 C16         1.4455   -0.4069    5.5770 C.ar      1 <0>        -0.1873
     19 C17         0.7689    0.0829    4.4729 C.ar      1 <0>        -0.0876
     20 O1          2.6754   -2.1558    6.6176 O.3       1 <0>        -0.3049
     21 C18         2.8079   -1.2834    7.7416 C.3       1 <0>         0.0251
     22 O2          2.4732   -3.6782    4.3742 O.3       1 <0>        -0.4627
     23 O3          0.6276   -4.9051    3.4093 O.3       1 <0>        -0.2764
     24 C19        -0.6256   -4.9726    4.0927 C.3       1 <0>         0.2495
     25 O4         -1.4677   -5.9316    3.4499 O.3       1 <0>        -0.5882
     26 O5          0.3940   -6.3396    1.1147 O.3       1 <0>        -0.2709
     27 C20         0.2152   -7.0360   -0.1203 C.3       1 <0>         0.2385
     28 O6          1.4478   -7.0478   -0.8432 O.3       1 <0>        -0.5895
     29 H2          0.8630    1.6104   -0.4443 H         1 <0>         0.0285
     30 H3         -0.6896    1.5069   -1.3087 H         1 <0>         0.0735
     31 H4         -0.6656    1.6153    0.4678 H         1 <0>         0.0733
     32 H5          0.0418   -0.3518   -2.4033 H         1 <0>         0.0846
     33 H6          1.5731   -0.5729   -1.5281 H         1 <0>         0.0374
     34 H7         -0.6643   -2.5336   -1.9877 H         1 <0>         0.0842
     35 H8          1.0784   -2.7365   -2.2472 H         1 <0>         0.0830
     36 H9          0.2614   -4.9088   -1.0697 H         1 <0>         0.1337
     37 H10        -0.0247    0.9206    2.1611 H         1 <0>         0.0837
     38 H11        -1.1237   -0.4822    2.1347 H         1 <0>         0.0892
     39 H12         1.5522    0.2046    6.4599 H         1 <0>         0.1343
     40 H13         0.3697    1.0864    4.4890 H         1 <0>         0.1320
     41 H14         3.3798   -1.7828    8.5237 H         1 <0>         0.1020
     42 H15         3.3262   -0.3743    7.4369 H         1 <0>         0.0553
     43 H16         1.8188   -1.0278    8.1217 H         1 <0>         0.0556
     44 H17         3.3964   -3.6104    4.0944 H         1 <0>         0.3844
     45 H18        -0.4594   -5.2709    5.1278 H         1 <0>         0.0894
     46 H19        -1.1054   -3.9941    4.0692 H         1 <0>         0.0361
     47 H20        -2.3069   -6.0858    3.9049 H         1 <0>         0.3902
     48 H21        -0.0971   -8.0605    0.0822 H         1 <0>         0.1004
     49 H22        -0.5490   -6.5337   -0.7134 H         1 <0>         0.0518
     50 H23         1.4005   -7.5052   -1.6939 H         1 <0>         0.3971
@<TRIPOS>BOND
     1    1    2 1
     2    1   29 1
     3    1   30 1
     4    1   31 1
     5    2   11 1
     6    2    3 1
     7    3    4 1
     8    3   32 1
     9    3   33 1
    10    4    5 1
    11    4   34 1
    12    4   35 1
    13    5   10 ar
    14    5    6 ar
    15    6    7 ar
    16    6   36 1
    17    7    8 ar
    18    7   26 1
    19    8    9 ar
    20    8   23 1
    21    9   15 1
    22    9   10 ar
    23   10   11 1
    24   11   12 1
    25   11   13 1
    26   13   14 1
    27   13   37 1
    28   13   38 1
    29   14   19 ar
    30   14   15 ar
    31   15   16 ar
    32   16   17 ar
    33   16   22 1
    34   17   18 ar
    35   17   20 1
    36   18   19 ar
    37   18   39 1
    38   19   40 1
    39   20   21 1
    40   21   41 1
    41   21   42 1
    42   21   43 1
    43   22   44 1
    44   23   24 1
    45   24   25 1
    46   24   45 1
    47   24   46 1
    48   25   47 1
    49   26   27 1
    50   27   28 1
    51   27   48 1
    52   27   49 1
    53   28   50 1
@<TRIPOS>MOLECULE
ZINC95486344
   47    50     0     0     0
SMALL
USER_CHARGES

@<TRIPOS>ATOM
      1 C1         -0.0173    1.4248    0.0099 C.3       1 <0>         0.0243
      2 O1          0.0021   -0.0041    0.0020 O.3       1 <0>        -0.3058
      3 C2          0.6262   -0.6188    1.0422 C.ar      1 <0>         0.0973
      4 C3          1.2013    0.1368    2.0496 C.ar      1 <0>        -0.1836
      5 C4          1.8432   -0.4968    3.1078 C.ar      1 <0>        -0.0200
      6 C5          1.8816   -1.8899    3.1697 C.ar      1 <0>        -0.0862
      7 C6          1.3138   -2.6392    2.1601 C.ar      1 <0>        -0.1042
      8 C7          0.6826   -2.0090    1.0981 C.ar      1 <0>         0.0853
      9 O2          0.1217   -2.7508    0.1060 O.3       1 <0>        -0.4858
     10 C8          2.5179   -2.5651    4.3544 C.3       1 <0>        -0.0662
     11 C9          3.7393   -1.7808    4.8276 C.3       1 <0>         0.1366
     12 H1          4.5255   -1.8484    4.0756 H         1 <0>         0.0971
     13 C10         3.3911   -0.3331    5.0570 C.ar      1 <0>        -0.1307
     14 C11         2.4747    0.2870    4.1959 C.ar      1 <0>        -0.0127
     15 C12         2.1442    1.6301    4.3725 C.ar      1 <0>         0.0687
     16 C13         2.7332    2.3475    5.4075 C.ar      1 <0>         0.1360
     17 C14         3.6423    1.7264    6.2442 C.ar      1 <0>        -0.1900
     18 C15         3.9825    0.3836    6.0745 C.ar      1 <0>        -0.0341
     19 C16         5.0136   -0.2187    6.9863 C.3       1 <0>        -0.1199
     20 C17         5.3964   -1.6308    6.5763 C.3       1 <0>         0.0581
     21 N1          4.2220   -2.3583    6.0901 N.3       1 <0>        -0.6735
     22 O3          2.4166    3.6566    5.5962 O.3       1 <0>        -0.2707
     23 C18         3.0609    4.3302    6.6794 C.3       1 <0>         0.2383
     24 O4          4.4169    4.6108    6.3267 O.3       1 <0>        -0.5890
     25 O5          1.2543    2.2327    3.5399 O.3       1 <0>        -0.2991
     26 C19        -0.1231    2.1839    3.9174 C.3       1 <0>         0.2423
     27 O6         -0.3568    3.1028    4.9865 O.3       1 <0>        -0.5816
     28 H2          1.0053    1.8021    0.0021 H         1 <0>         0.0588
     29 H3         -0.5445    1.7859   -0.8732 H         1 <0>         0.1031
     30 H4         -0.5275    1.7763    0.9067 H         1 <0>         0.0528
     31 H5          1.1518    1.2150    2.0135 H         1 <0>         0.1633
     32 H6          1.3574   -3.7176    2.1989 H         1 <0>         0.1415
     33 H7          0.7241   -2.9521   -0.6232 H         1 <0>         0.3886
     34 H8          1.7929   -2.6252    5.1661 H         1 <0>         0.0802
     35 H9          2.8247   -3.5722    4.0721 H         1 <0>         0.0920
     36 H10         4.0941    2.2863    7.0497 H         1 <0>         0.1334
     37 H11         5.9060    0.4071    6.9718 H         1 <0>         0.0862
     38 H12         4.6171   -0.2411    8.0014 H         1 <0>         0.0795
     39 H13         6.1483   -1.5842    5.7886 H         1 <0>         0.0775
     40 H14         5.8122   -2.1539    7.4375 H         1 <0>         0.0868
     41 H15         2.5390    5.2640    6.8884 H         1 <0>         0.1018
     42 H16         3.0398    3.6960    7.5657 H         1 <0>         0.0517
     43 H17         4.9162    5.0684    7.0170 H         1 <0>         0.3985
     44 H18        -0.7437    2.4548    3.0632 H         1 <0>         0.0907
     45 H19        -0.3748    1.1749    4.2440 H         1 <0>         0.0444
     46 H20        -1.2732    3.1229    5.2946 H         1 <0>         0.3930
     47 H21         3.4886   -2.3771    6.7828 H         1 <0>         0.3451
@<TRIPOS>BOND
     1    1    2 1
     2    1   28 1
     3    1   29 1
     4    1   30 1
     5    2    3 1
     6    3    8 ar
     7    3    4 ar
     8    4    5 ar
     9    4   31 1
    10    5   14 1
    11    5    6 ar
    12    6    7 ar
    13    6   10 1
    14    7    8 ar
    15    7   32 1
    16    8    9 1
    17    9   33 1
    18   10   11 1
    19   10   34 1
    20   10   35 1
    21   11   12 1
    22   11   21 1
    23   11   13 1
    24   13   18 ar
    25   13   14 ar
    26   14   15 ar
    27   15   16 ar
    28   15   25 1
    29   16   17 ar
    30   16   22 1
    31   17   18 ar
    32   17   36 1
    33   18   19 1
    34   19   20 1
    35   19   37 1
    36   19   38 1
    37   20   21 1
    38   20   39 1
    39   20   40 1
    40   21   47 1
    41   22   23 1
    42   23   24 1
    43   23   41 1
    44   23   42 1
    45   24   43 1
    46   25   26 1
    47   26   27 1
    48   26   44 1
    49   26   45 1
    50   27   46 1
@<TRIPOS>MOLECULE
ZINC95486345
   53    56     0     0     0
SMALL
USER_CHARGES

@<TRIPOS>ATOM
      1 C1          0.5588    1.8099    0.4650 C.3       1 <0>         0.0198
      2 N1          0.3968    0.3556    0.3362 N.3       1 <0>        -0.5351
      3 C2          0.8127   -0.1031   -0.9903 C.3       1 <0>         0.0553
      4 C3          0.4134   -1.5526   -1.2103 C.3       1 <0>        -0.0781
      5 C4          0.5751   -2.3854    0.0300 C.ar      1 <0>        -0.0220
      6 C5          0.3898   -3.7593   -0.0785 C.ar      1 <0>        -0.1942
      7 C6          0.5461   -4.5852    1.0196 C.ar      1 <0>         0.1344
      8 C7          0.8883   -4.0385    2.2512 C.ar      1 <0>         0.0633
      9 C8          1.0550   -2.6605    2.3668 C.ar      1 <0>        -0.0062
     10 C9          0.9070   -1.8345    1.2486 C.ar      1 <0>        -0.0903
     11 C10         1.1372   -0.3526    1.3909 C.3       1 <0>         0.1372
     12 H1          2.2017   -0.1407    1.2900 H         1 <0>         0.0571
     13 C11         0.6554    0.1469    2.7511 C.3       1 <0>        -0.0701
     14 C12         1.2365   -0.6874    3.8603 C.ar      1 <0>        -0.0604
     15 C13         1.4142   -2.0564    3.6720 C.ar      1 <0>        -0.0492
     16 C14         1.9264   -2.8427    4.7001 C.ar      1 <0>        -0.1575
     17 C15         2.2716   -2.2562    5.9054 C.ar      1 <0>         0.0923
     18 C16         2.1067   -0.8852    6.0843 C.ar      1 <0>         0.1113
     19 C17         1.5898   -0.1054    5.0605 C.ar      1 <0>        -0.1727
     20 O1          2.4535   -0.3092    7.2662 O.3       1 <0>        -0.3041
     21 C18         2.2583    1.1016    7.3823 C.3       1 <0>         0.0248
     22 O2          2.7711   -3.0187    6.9146 O.3       1 <0>        -0.3055
     23 C19         3.0130   -4.3975    6.6274 C.3       1 <0>         0.0257
     24 O3          1.0584   -4.8425    3.3343 O.3       1 <0>        -0.2987
     25 C20        -0.1113   -5.1770    4.0840 C.3       1 <0>         0.2415
     26 O4         -0.8694   -6.1570    3.3721 O.3       1 <0>        -0.5793
     27 O5          0.3653   -5.9273    0.8952 O.3       1 <0>        -0.2686
     28 C21         0.0144   -6.4174   -0.4005 C.3       1 <0>         0.2383
     29 O6          1.1671   -6.3987   -1.2450 O.3       1 <0>        -0.5893
     30 H2          1.6150    2.0665    0.3831 H         1 <0>         0.0288
     31 H3          0.0011    2.3092   -0.3273 H         1 <0>         0.0728
     32 H4          0.1806    2.1331    1.4348 H         1 <0>         0.0747
     33 H5          0.3385    0.5186   -1.7497 H         1 <0>         0.0846
     34 H6          1.8953   -0.0121   -1.0782 H         1 <0>         0.0373
     35 H7         -0.6294   -1.5876   -1.5255 H         1 <0>         0.0853
     36 H8          1.0338   -1.9736   -2.0015 H         1 <0>         0.0836
     37 H9          0.1199   -4.1869   -1.0328 H         1 <0>         0.1340
     38 H10         0.9638    1.1840    2.8826 H         1 <0>         0.0815
     39 H11        -0.4324    0.0887    2.7902 H         1 <0>         0.0917
     40 H12         2.0535   -3.9058    4.5582 H         1 <0>         0.1669
     41 H13         1.4640    0.9578    5.2026 H         1 <0>         0.1389
     42 H14         2.8486    1.6138    6.6225 H         1 <0>         0.0554
     43 H15         1.2031    1.3352    7.2412 H         1 <0>         0.0556
     44 H16         2.5744    1.4319    8.3718 H         1 <0>         0.1017
     45 H17         3.3716   -4.8985    7.5266 H         1 <0>         0.1015
     46 H18         2.0873   -4.8671    6.2945 H         1 <0>         0.0531
     47 H19         3.7644   -4.4786    5.8421 H         1 <0>         0.0572
     48 H20         0.1815   -5.5785    5.0542 H         1 <0>         0.0912
     49 H21        -0.7180   -4.2831    4.2289 H         1 <0>         0.0434
     50 H22        -1.7157   -6.3760    3.7853 H         1 <0>         0.3910
     51 H23        -0.3565   -7.4387   -0.3145 H         1 <0>         0.1006
     52 H24        -0.7614   -5.7841   -0.8307 H         1 <0>         0.0518
     53 H25         1.0024   -6.7190   -2.1424 H         1 <0>         0.3976
@<TRIPOS>BOND
     1    1    2 1
     2    1   30 1
     3    1   31 1
     4    1   32 1
     5    2   11 1
     6    2    3 1
     7    3    4 1
     8    3   33 1
     9    3   34 1
    10    4    5 1
    11    4   35 1
    12    4   36 1
    13    5   10 ar
    14    5    6 ar
    15    6    7 ar
    16    6   37 1
    17    7    8 ar
    18    7   27 1
    19    8    9 ar
    20    8   24 1
    21    9   15 1
    22    9   10 ar
    23   10   11 1
    24   11   12 1
    25   11   13 1
    26   13   14 1
    27   13   38 1
    28   13   39 1
    29   14   19 ar
    30   14   15 ar
    31   15   16 ar
    32   16   17 ar
    33   16   40 1
    34   17   18 ar
    35   17   22 1
    36   18   19 ar
    37   18   20 1
    38   19   41 1
    39   20   21 1
    40   21   42 1
    41   21   43 1
    42   21   44 1
    43   22   23 1
    44   23   45 1
    45   23   46 1
    46   23   47 1
    47   24   25 1
    48   25   26 1
    49   25   48 1
    50   25   49 1
    51   26   50 1
    52   27   28 1
    53   28   29 1
    54   28   51 1
    55   28   52 1
    56   29   53 1
@<TRIPOS>MOLECULE
ZINC95486346
   51    54     0     0     0
SMALL
USER_CHARGES

@<TRIPOS>ATOM
      1 C1         -1.4381    1.7782    1.1595 C.3       1 <0>         0.0253
      2 O1         -1.4255    0.3519    1.0722 O.3       1 <0>        -0.3062
      3 C2         -0.5364   -0.3072    1.8624 C.ar      1 <0>         0.0982
      4 C3          0.3002    0.4033    2.7063 C.ar      1 <0>        -0.1820
      5 C4          1.2113   -0.2755    3.5079 C.ar      1 <0>        -0.0173
      6 C5          1.2618   -1.6694    3.4839 C.ar      1 <0>        -0.0897
      7 C6          0.4316   -2.3732    2.6362 C.ar      1 <0>        -0.1033
      8 C7         -0.4704   -1.6976    1.8279 C.ar      1 <0>         0.0838
      9 O2         -1.2891   -2.3949    0.9954 O.3       1 <0>        -0.4858
     10 C8          2.2031   -2.3960    4.4059 C.3       1 <0>        -0.0655
     11 C9          3.5102   -1.6218    4.5577 C.3       1 <0>         0.1340
     12 H1          4.0534   -1.6415    3.6129 H         1 <0>         0.1015
     13 C10         3.2441   -0.1920    4.9508 C.ar      1 <0>        -0.0871
     14 C11         2.1246    0.4599    4.4147 C.ar      1 <0>        -0.0470
     15 C12         1.8586    1.7893    4.7463 C.ar      1 <0>         0.1092
     16 C13         2.7128    2.4621    5.6090 C.ar      1 <0>         0.0779
     17 C14         3.8230    1.8107    6.1266 C.ar      1 <0>         0.0864
     18 C15         4.0993    0.4787    5.7975 C.ar      1 <0>        -0.0829
     19 C16         5.3435   -0.1564    6.3506 C.3       1 <0>        -0.1118
     20 C17         5.5921   -1.5412    5.7766 C.3       1 <0>         0.0579
     21 N1          4.3264   -2.2569    5.6021 N.3       1 <0>        -0.6728
     22 O3          4.6546    2.4714    6.9756 O.3       1 <0>        -0.3298
     23 C18         4.3598    2.3843    8.3712 C.3       1 <0>         0.0377
     24 O4          2.4624    3.7568    5.9457 O.3       1 <0>        -0.2872
     25 C19         3.0716    4.7665    5.1385 C.3       1 <0>         0.2535
     26 O5          2.3836    4.8570    3.8893 O.3       1 <0>        -0.5817
     27 O6          0.7716    2.4204    4.2280 O.3       1 <0>        -0.2901
     28 C20        -0.4135    2.4325    5.0264 C.3       1 <0>         0.2477
     29 O7         -0.2664    3.3835    6.0828 O.3       1 <0>        -0.5733
     30 H2         -0.4577    2.1676    0.8852 H         1 <0>         0.0585
     31 H3         -2.1907    2.1772    0.4795 H         1 <0>         0.1025
     32 H4         -1.6754    2.0777    2.1803 H         1 <0>         0.0532
     33 H5          0.2455    1.4813    2.7416 H         1 <0>         0.1641
     34 H6          0.4812   -3.4516    2.6050 H         1 <0>         0.1412
     35 H7         -0.9159   -2.5517    0.1173 H         1 <0>         0.3882
     36 H8          1.7348   -2.5059    5.3840 H         1 <0>         0.0806
     37 H9          2.4158   -3.3837    3.9969 H         1 <0>         0.0937
     38 H10         6.1975    0.4801    6.1191 H         1 <0>         0.0898
     39 H11         5.2479   -0.2353    7.4336 H         1 <0>         0.0767
     40 H12         6.0927   -1.4454    4.8132 H         1 <0>         0.0783
     41 H13         6.2315   -2.1023    6.4580 H         1 <0>         0.0883
     42 H14         4.2996    1.3364    8.6651 H         1 <0>         0.0453
     43 H15         5.1481    2.8767    8.9405 H         1 <0>         0.0969
     44 H16         3.4067    2.8734    8.5724 H         1 <0>         0.0521
     45 H17         3.0170    5.7255    5.6537 H         1 <0>         0.0913
     46 H18         4.1156    4.5086    4.9605 H         1 <0>         0.0420
     47 H19         2.7440    5.5242    3.2892 H         1 <0>         0.3905
     48 H20        -1.2666    2.7074    4.4062 H         1 <0>         0.0902
     49 H21        -0.5764    1.4414    5.4498 H         1 <0>         0.0410
     50 H22        -1.0352    3.4453    6.6662 H         1 <0>         0.3905
     51 H23         3.8170   -2.3199    6.4708 H         1 <0>         0.3456
@<TRIPOS>BOND
     1    1    2 1
     2    1   30 1
     3    1   31 1
     4    1   32 1
     5    2    3 1
     6    3    8 ar
     7    3    4 ar
     8    4    5 ar
     9    4   33 1
    10    5   14 1
    11    5    6 ar
    12    6    7 ar
    13    6   10 1
    14    7    8 ar
    15    7   34 1
    16    8    9 1
    17    9   35 1
    18   10   11 1
    19   10   36 1
    20   10   37 1
    21   11   12 1
    22   11   21 1
    23   11   13 1
    24   13   18 ar
    25   13   14 ar
    26   14   15 ar
    27   15   16 ar
    28   15   27 1
    29   16   17 ar
    30   16   24 1
    31   17   18 ar
    32   17   22 1
    33   18   19 1
    34   19   20 1
    35   19   38 1
    36   19   39 1
    37   20   21 1
    38   20   40 1
    39   20   41 1
    40   21   51 1
    41   22   23 1
    42   23   42 1
    43   23   43 1
    44   23   44 1
    45   24   25 1
    46   25   26 1
    47   25   45 1
    48   25   46 1
    49   26   47 1
    50   27   28 1
    51   28   29 1
    52   28   48 1
    53   28   49 1
    54   29   50 1
@<TRIPOS>MOLECULE
ZINC95486352
   34    36     0     0     0
SMALL
USER_CHARGES

@<TRIPOS>ATOM
      1 C1         -0.0169    1.3952    0.0097 C.ar      1 <0>        -0.0964
      2 C2          1.1675    2.0998    0.0022 C.ar      1 <0>        -0.1297
      3 C3          2.3805    1.4254   -0.0130 C.ar      1 <0>         0.0837
      4 C4          2.4079    0.0311   -0.0212 C.ar      1 <0>         0.0815
      5 C5          1.2264   -0.6833   -0.0138 C.ar      1 <0>        -0.1016
      6 C6          0.0021   -0.0041    0.0020 C.ar      1 <0>        -0.0354
      7 C7         -1.2590   -0.7582    0.0105 C.2       1 <0>        -0.0881
      8 C8         -1.5543   -1.5135   -1.0652 C.2       1 <0>         0.0429
      9 C9         -2.8179   -2.2638   -1.1048 C.2       1 <0>         0.4131
     10 O1         -2.9861   -3.1718   -1.8990 O.2       1 <0>        -0.4325
     11 C10        -3.8757   -1.8804   -0.1496 C.ar      1 <0>        -0.2036
     12 C11        -3.5498   -1.0900    0.9556 C.ar      1 <0>         0.0026
     13 C12        -4.5370   -0.7235    1.8322 C.ar      1 <0>        -0.1674
     14 C13        -5.8496   -1.1368    1.6339 C.ar      1 <0>         0.1685
     15 C14        -6.1811   -1.9291    0.5444 C.ar      1 <0>        -0.1916
     16 C15        -5.1958   -2.3058   -0.3534 C.ar      1 <0>         0.1949
     17 O2         -5.5060   -3.0819   -1.4221 O.3       1 <0>        -0.4818
     18 O3         -6.8136   -0.7627    2.5129 O.3       1 <0>        -0.4942
     19 C16        -2.1370   -0.6481    1.2139 C.3       1 <0>        -0.0361
     20 O4         -0.6875   -1.5812   -2.1102 O.3       1 <0>        -0.4536
     21 O5          3.5989   -0.6252   -0.0370 O.3       1 <0>        -0.4865
     22 O6          3.5447    2.1257   -0.0204 O.3       1 <0>        -0.4876
     23 H1         -0.9592    1.9226    0.0260 H         1 <0>         0.1322
     24 H2          1.1517    3.1797    0.0078 H         1 <0>         0.1361
     25 H3          1.2464   -1.7631   -0.0201 H         1 <0>         0.1331
     26 H4         -4.2932   -0.1080    2.6855 H         1 <0>         0.1432
     27 H5         -7.2016   -2.2504    0.3970 H         1 <0>         0.1463
     28 H6         -5.4366   -4.0313   -1.2521 H         1 <0>         0.4040
     29 H7         -7.2489    0.0710    2.2880 H         1 <0>         0.4018
     30 H8         -1.7153   -1.2590    2.0120 H         1 <0>         0.1140
     31 H9         -2.1519    0.3911    1.5425 H         1 <0>         0.1094
     32 H10         3.9523   -0.8201    0.8417 H         1 <0>         0.3873
     33 H11         3.8901    2.3237    0.8608 H         1 <0>         0.3880
     34 H12        -0.9875   -2.1479   -2.8341 H         1 <0>         0.4035
@<TRIPOS>BOND
     1    1    6 ar
     2    1    2 ar
     3    1   23 1
     4    2    3 ar
     5    2   24 1
     6    3    4 ar
     7    3   22 1
     8    4    5 ar
     9    4   21 1
    10    5    6 ar
    11    5   25 1
    12    6    7 1
    13    7   19 1
    14    7    8 2
    15    8    9 1
    16    8   20 1
    17    9   10 2
    18    9   11 1
    19   11   16 ar
    20   11   12 ar
    21   12   13 ar
    22   12   19 1
    23   13   14 ar
    24   13   26 1
    25   14   15 ar
    26   14   18 1
    27   15   16 ar
    28   15   27 1
    29   16   17 1
    30   17   28 1
    31   18   29 1
    32   19   30 1
    33   19   31 1
    34   20   34 1
    35   21   32 1
    36   22   33 1
@<TRIPOS>MOLECULE
ZINC19366648
   48    50     0     0     0
SMALL
USER_CHARGES

@<TRIPOS>ATOM
      1 C1         -1.3030   -0.7825    0.1796 C.3       1 <0>        -0.1435
      2 C2          0.0021   -0.0041    0.0020 C.3       1 <0>         0.1223
      3 H1         -0.2140    1.0636   -0.0363 H         1 <0>         0.0485
      4 C3          0.6692   -0.4279   -1.2811 C.ar      1 <0>        -0.0800
      5 C4          1.2856   -1.6624   -1.3645 C.ar      1 <0>        -0.0919
      6 C5          1.8976   -2.0512   -2.5415 C.ar      1 <0>        -0.1242
      7 C6          1.8928   -1.2057   -3.6351 C.ar      1 <0>        -0.1205
      8 C7          1.2757    0.0284   -3.5519 C.ar      1 <0>        -0.1212
      9 C8          0.6600    0.4154   -2.3763 C.ar      1 <0>        -0.1166
     10 N1          0.8961   -0.2824    1.1339 N.3       1 <0>        -0.5312
     11 C9          0.2587    0.0756    2.4088 C.3       1 <0>         0.0547
     12 C10         1.1882   -0.3023    3.5646 C.3       1 <0>         0.0553
     13 N2          2.4714    0.3961    3.4062 N.3       1 <0>        -0.5317
     14 C11         3.1088    0.0382    2.1314 C.3       1 <0>         0.0582
     15 C12         2.1793    0.4161    0.9756 C.3       1 <0>         0.0600
     16 C13         3.3654    0.1179    4.5382 C.3       1 <0>         0.1223
     17 H2          3.5557   -0.9539    4.5960 H         1 <0>         0.0489
     18 C14         2.7069    0.5897    5.8361 C.3       1 <0>        -0.1422
     19 C15         4.6681    0.8494    4.3410 C.ar      1 <0>        -0.0807
     20 C16         4.6685    2.1372    3.8388 C.ar      1 <0>        -0.0937
     21 C17         5.8635    2.8082    3.6579 C.ar      1 <0>        -0.1243
     22 C18         7.0580    2.1915    3.9798 C.ar      1 <0>        -0.1207
     23 C19         7.0576    0.9040    4.4829 C.ar      1 <0>        -0.1210
     24 C20         5.8624    0.2346    4.6678 C.ar      1 <0>        -0.1166
     25 H3         -1.7856   -0.4760    1.1076 H         1 <0>         0.0607
     26 H4         -1.9664   -0.5761   -0.6603 H         1 <0>         0.0619
     27 H5         -1.0869   -1.8502    0.2179 H         1 <0>         0.0660
     28 H6          1.2894   -2.3230   -0.5101 H         1 <0>         0.1271
     29 H7          2.3798   -3.0154   -2.6065 H         1 <0>         0.1205
     30 H8          2.3716   -1.5092   -4.5544 H         1 <0>         0.1200
     31 H9          1.2722    0.6891   -4.4062 H         1 <0>         0.1208
     32 H10         0.1746    1.3781   -2.3125 H         1 <0>         0.1182
     33 H11         0.0680    1.1485    2.4314 H         1 <0>         0.0427
     34 H12        -0.6833   -0.4637    2.5085 H         1 <0>         0.0846
     35 H13         0.7299   -0.0113    4.5098 H         1 <0>         0.0842
     36 H14         1.3571   -1.3792    3.5582 H         1 <0>         0.0427
     37 H15         4.0508    0.5775    2.0317 H         1 <0>         0.0824
     38 H16         3.2995   -1.0347    2.1088 H         1 <0>         0.0403
     39 H17         2.6376    0.1251    0.0304 H         1 <0>         0.0808
     40 H18         2.0104    1.4929    0.9820 H         1 <0>         0.0403
     41 H19         2.5167    1.6614    5.7783 H         1 <0>         0.0659
     42 H20         1.7647    0.0606    5.9787 H         1 <0>         0.0604
     43 H21         3.3703    0.3832    6.6760 H         1 <0>         0.0617
     44 H22         3.7352    2.6190    3.5873 H         1 <0>         0.1287
     45 H23         5.8638    3.8142    3.2648 H         1 <0>         0.1206
     46 H24         7.9917    2.7155    3.8378 H         1 <0>         0.1200
     47 H25         7.9909    0.4220    4.7340 H         1 <0>         0.1209
     48 H26         5.8618   -0.7700    5.0643 H         1 <0>         0.1184
@<TRIPOS>BOND
     1    1    2 1
     2    1   25 1
     3    1   26 1
     4    1   27 1
     5    2    3 1
     6    2    4 1
     7    2   10 1
     8    4    9 ar
     9    4    5 ar
    10    5    6 ar
    11    5   28 1
    12    6    7 ar
    13    6   29 1
    14    7    8 ar
    15    7   30 1
    16    8    9 ar
    17    8   31 1
    18    9   32 1
    19   10   15 1
    20   10   11 1
    21   11   12 1
    22   11   33 1
    23   11   34 1
    24   12   13 1
    25   12   35 1
    26   12   36 1
    27   13   14 1
    28   13   16 1
    29   14   15 1
    30   14   37 1
    31   14   38 1
    32   15   39 1
    33   15   40 1
    34   16   17 1
    35   16   18 1
    36   16   19 1
    37   18   41 1
    38   18   42 1
    39   18   43 1
    40   19   24 ar
    41   19   20 ar
    42   20   21 ar
    43   20   44 1
    44   21   22 ar
    45   21   45 1
    46   22   23 ar
    47   22   46 1
    48   23   24 ar
    49   23   47 1
    50   24   48 1
@<TRIPOS>MOLECULE
ZINC03871989
   73    77     0     0     0
SMALL
USER_CHARGES

@<TRIPOS>ATOM
      1 C1         -0.0187    1.5258    0.0104 C.3       1 <0>        -0.1633
      2 C2          0.0021   -0.0041    0.0020 C.3       1 <0>        -0.1191
      3 C3          0.7182   -0.4975   -1.2568 C.3       1 <0>        -0.1021
      4 H1          0.2445   -0.0645   -2.1378 H         1 <0>         0.0955
      5 C4          2.1883   -0.0733   -1.2072 C.3       1 <0>        -0.0066
      6 N1          2.8746   -0.5545   -2.4120 N.4       1 <0>        -0.3777
      7 C5          4.2651   -0.0813   -2.4204 C.3       1 <0>        -0.0032
      8 C6          4.8542   -0.3223   -3.8111 C.3       1 <0>        -0.1016
      9 C7          4.6087   -1.7488   -4.2328 C.ar      1 <0>        -0.0827
     10 C8          5.3457   -2.2641   -5.2883 C.ar      1 <0>        -0.1667
     11 C9          5.1488   -3.5676   -5.7081 C.ar      1 <0>         0.1323
     12 C10         4.2040   -4.3631   -5.0660 C.ar      1 <0>         0.1177
     13 C11         3.4720   -3.8444   -4.0132 C.ar      1 <0>        -0.1541
     14 C12         3.6747   -2.5376   -3.5937 C.ar      1 <0>        -0.1251
     15 C13         2.8638   -2.0185   -2.4376 C.3       1 <0>         0.0908
     16 H2          3.2919   -2.3927   -1.5077 H         1 <0>         0.1395
     17 C14         1.4218   -2.5188   -2.5440 C.3       1 <0>        -0.1400
     18 C15         0.6308   -2.0244   -1.3286 C.3       1 <0>        -0.0982
     19 H3          1.0516   -2.4562   -0.4205 H         1 <0>         0.0954
     20 C16        -0.8334   -2.4465   -1.4653 C.3       1 <0>        -0.1085
     21 C17        -0.9314   -3.9724   -1.4117 C.3       1 <0>         0.1321
     22 H4         -0.2804   -4.4017   -2.1733 H         1 <0>         0.0492
     23 C18        -2.3539   -4.3891   -1.6811 C.ar      1 <0>        -0.0536
     24 C19        -3.0504   -3.7389   -2.6902 C.ar      1 <0>        -0.1941
     25 C20        -4.3571   -4.0898   -2.9773 C.ar      1 <0>         0.1024
     26 C21        -4.9757   -5.1017   -2.2485 C.ar      1 <0>         0.0862
     27 C22        -4.2782   -5.7454   -1.2422 C.ar      1 <0>        -0.1074
     28 C23        -2.9684   -5.3882   -0.9570 C.ar      1 <0>        -0.0833
     29 C24        -2.2545   -6.1116    0.1563 C.3       1 <0>        -0.0763
     30 C25        -0.7469   -5.8834    0.0451 C.3       1 <0>         0.0552
     31 N2         -0.5023   -4.4387   -0.0895 N.3       1 <0>        -0.6758
     32 O1         -6.2593   -5.4559   -2.5248 O.3       1 <0>        -0.4848
     33 O2         -5.0347   -3.4487   -3.9668 O.3       1 <0>        -0.3042
     34 C26        -4.3354   -2.4208   -4.6714 C.3       1 <0>         0.0261
     35 O3          4.0014   -5.6450   -5.4724 O.3       1 <0>        -0.2954
     36 C27         3.0157   -6.4013   -4.7663 C.3       1 <0>         0.0222
     37 O4          5.8743   -4.0690   -6.7432 O.3       1 <0>        -0.2960
     38 C28         6.8247   -3.1936   -7.3534 C.3       1 <0>         0.0210
     39 H5          1.0039    1.9031    0.0027 H         1 <0>         0.0526
     40 H6         -0.5459    1.8868   -0.8726 H         1 <0>         0.0599
     41 H7         -0.5289    1.8773    0.9072 H         1 <0>         0.0685
     42 H8          0.5293   -0.3651    0.8851 H         1 <0>         0.0759
     43 H9         -1.0205   -0.3814    0.0098 H         1 <0>         0.0887
     44 H10         2.2518    1.0139   -1.1622 H         1 <0>         0.1360
     45 H11         2.6609   -0.5023   -0.3236 H         1 <0>         0.1313
     46 H12         4.2904    0.9842   -2.1919 H         1 <0>         0.1381
     47 H13         4.8432   -0.6312   -1.6778 H         1 <0>         0.1322
     48 H14         4.3831    0.3526   -4.5257 H         1 <0>         0.1031
     49 H15         5.9270   -0.1313   -3.7878 H         1 <0>         0.1228
     50 H16         6.0777   -1.6447   -5.7852 H         1 <0>         0.1472
     51 H17         2.7384   -4.4606   -3.5145 H         1 <0>         0.1435
     52 H18         0.9679   -2.1319   -3.4564 H         1 <0>         0.0933
     53 H19         1.4145   -3.6086   -2.5652 H         1 <0>         0.1091
     54 H20        -1.4134   -2.0162   -0.6489 H         1 <0>         0.0939
     55 H21        -1.2268   -2.0904   -2.4175 H         1 <0>         0.0751
     56 H22        -2.5690   -2.9544   -3.2551 H         1 <0>         0.1307
     57 H23        -4.7560   -6.5310   -0.6757 H         1 <0>         0.1389
     58 H24        -2.6074   -5.7358    1.1167 H         1 <0>         0.0870
     59 H25        -2.4649   -7.1789    0.0877 H         1 <0>         0.0809
     60 H26        -0.2529   -6.2566    0.9421 H         1 <0>         0.0852
     61 H27        -0.3615   -6.4035   -0.8319 H         1 <0>         0.0378
     62 H28        -6.3403   -6.1555   -3.1874 H         1 <0>         0.3910
     63 H29        -4.0328   -1.6419   -3.9715 H         1 <0>         0.0537
     64 H30        -3.4514   -2.8441   -5.1484 H         1 <0>         0.0528
     65 H31        -4.9885   -1.9924   -5.4316 H         1 <0>         0.1042
     66 H32         2.9543   -7.4036   -5.1902 H         1 <0>         0.1110
     67 H33         3.2936   -6.4680   -3.7145 H         1 <0>         0.0580
     68 H34         2.0473   -5.9091   -4.8558 H         1 <0>         0.0569
     69 H35         7.3334   -3.7171   -8.1629 H         1 <0>         0.1112
     70 H36         6.3098   -2.3199   -7.7528 H         1 <0>         0.0602
     71 H37         7.5559   -2.8762   -6.6100 H         1 <0>         0.0607
     72 H38         2.4011   -0.2019   -3.2302 H         1 <0>         0.4222
     73 H39         0.4692   -4.2203    0.0732 H         1 <0>         0.3403
@<TRIPOS>BOND
     1    1    2 1
     2    1   39 1
     3    1   40 1
     4    1   41 1
     5    2    3 1
     6    2   42 1
     7    2   43 1
     8    3    4 1
     9    3   18 1
    10    3    5 1
    11    5    6 1
    12    5   44 1
    13    5   45 1
    14    6   15 1
    15    6    7 1
    16    6   72 1
    17    7    8 1
    18    7   46 1
    19    7   47 1
    20    8    9 1
    21    8   48 1
    22    8   49 1
    23    9   14 ar
    24    9   10 ar
    25   10   11 ar
    26   10   50 1
    27   11   12 ar
    28   11   37 1
    29   12   13 ar
    30   12   35 1
    31   13   14 ar
    32   13   51 1
    33   14   15 1
    34   15   16 1
    35   15   17 1
    36   17   18 1
    37   17   52 1
    38   17   53 1
    39   18   19 1
    40   18   20 1
    41   20   21 1
    42   20   54 1
    43   20   55 1
    44   21   22 1
    45   21   31 1
    46   21   23 1
    47   23   28 ar
    48   23   24 ar
    49   24   25 ar
    50   24   56 1
    51   25   26 ar
    52   25   33 1
    53   26   27 ar
    54   26   32 1
    55   27   28 ar
    56   27   57 1
    57   28   29 1
    58   29   30 1
    59   29   58 1
    60   29   59 1
    61   30   31 1
    62   30   60 1
    63   30   61 1
    64   31   73 1
    65   32   62 1
    66   33   34 1
    67   34   63 1
    68   34   64 1
    69   34   65 1
    70   35   36 1
    71   36   66 1
    72   36   67 1
    73   36   68 1
    74   37   38 1
    75   38   69 1
    76   38   70 1
    77   38   71 1
@<TRIPOS>MOLECULE
ZINC03871576
   29    31     0     0     0
SMALL
USER_CHARGES

@<TRIPOS>ATOM
      1 C1         -0.0169    1.3945    0.0097 C.ar      1 <0>        -0.0666
      2 C2          1.1672    2.0969    0.0022 C.ar      1 <0>        -0.1480
      3 C3          2.3804    1.4183   -0.0135 C.ar      1 <0>         0.1175
      4 C4          2.4042    0.0284   -0.0212 C.ar      1 <0>        -0.1471
      5 C5          1.2251   -0.6825   -0.0138 C.ar      1 <0>        -0.0696
      6 C6          0.0021   -0.0041    0.0020 C.ar      1 <0>        -0.0607
      7 C7         -1.2623   -0.7603    0.0105 C.2       1 <0>         0.1733
      8 C8         -1.2238   -2.1392    0.0085 C.2       1 <0>        -0.2675
      9 C9         -2.4161   -2.8666    0.0170 C.2       1 <0>         0.3649
     10 C10        -3.6370   -2.1554    0.0275 C.2       1 <0>        -0.3407
     11 C11        -4.8707   -2.8387    0.0369 C.2       1 <0>         0.2653
     12 C12        -6.0384   -2.1317    0.0475 C.2       1 <0>        -0.3780
     13 C13        -6.0158   -0.7277    0.0485 C.2       1 <0>         0.3615
     14 O1         -7.1627   -0.0461    0.0589 O.2       1 <0>        -0.6669
     15 C14        -4.7977   -0.0391    0.0393 C.2       1 <0>        -0.3147
     16 C15        -3.6098   -0.7430    0.0291 C.2       1 <0>         0.2111
     17 O2         -2.4272   -0.0920    0.0257 O.3       1 <0>        -0.2196
     18 O3         -4.8969   -4.1953    0.0351 O.3       1 <0>        -0.4477
     19 O4         -2.4024   -4.2178    0.0147 O.3       1 <0>        -0.5784
     20 O5          3.5452    2.1149   -0.0218 O.3       1 <0>        -0.4988
     21 H1         -0.9589    1.9225    0.0260 H         1 <0>         0.1416
     22 H2          1.1536    3.1768    0.0081 H         1 <0>         0.1349
     23 H3          3.3490   -0.4946   -0.0334 H         1 <0>         0.1360
     24 H4          1.2446   -1.7623   -0.0201 H         1 <0>         0.1407
     25 H5         -0.2747   -2.6546   -0.0001 H         1 <0>         0.1464
     26 H6         -6.9835   -2.6543    0.0547 H         1 <0>         0.1160
     27 H7         -4.7867    1.0408    0.0398 H         1 <0>         0.1203
     28 H8         -5.7877   -4.5715    0.0420 H         1 <0>         0.3828
     29 H9          3.8917    2.3124    0.8591 H         1 <0>         0.3921
@<TRIPOS>BOND
     1    1    6 ar
     2    1    2 ar
     3    1   21 1
     4    2    3 ar
     5    2   22 1
     6    3    4 ar
     7    3   20 1
     8    4    5 ar
     9    4   23 1
    10    5    6 ar
    11    5   24 1
    12    6    7 1
    13    7   17 1
    14    7    8 2
    15    8    9 1
    16    8   25 1
    17    9   10 2
    18    9   19 1
    19   10   16 1
    20   10   11 1
    21   11   12 2
    22   11   18 1
    23   12   13 1
    24   12   26 1
    25   13   14 2
    26   13   15 1
    27   15   16 2
    28   15   27 1
    29   16   17 1
    30   18   28 1
    31   20   29 1
@<TRIPOS>MOLECULE
ZINC00058188
   36    38     0     0     0
SMALL
USER_CHARGES
1-(4-methoxybenzofuran-5-yl)-3-phenyl-propane-1,3-dione
@<TRIPOS>ATOM
      1 C1          1.2480    2.0169    0.0010 C.3       1 <0>         0.0499
      2 O1         -0.0163    1.3508    0.0095 O.3       1 <0>        -0.3195
      3 C2          0.0021   -0.0041    0.0020 C.ar      1 <0>         0.2148
      4 C3         -0.0056   -0.7049   -1.2066 C.ar      1 <0>        -0.1683
      5 C4         -0.0185   -0.3087   -2.6201 C.2       1 <0>        -0.1919
      6 C5         -0.0097   -1.4474   -3.3259 C.2       1 <0>         0.0074
      7 O2          0.0126   -2.5056   -2.4967 O.3       1 <0>        -0.1871
      8 C6          0.0193   -2.1088   -1.2093 C.ar      1 <0>         0.0921
      9 C7          0.0402   -2.8012    0.0018 C.ar      1 <0>        -0.1185
     10 C8          0.0422   -2.1258    1.1837 C.ar      1 <0>        -0.0469
     11 C9          0.0233   -0.7205    1.2075 C.ar      1 <0>        -0.2094
     12 C10         0.0261   -0.0067    2.4871 C.2       1 <0>         0.3923
     13 O3          0.0101    1.2064    2.5051 O.2       1 <0>        -0.3994
     14 C11         0.0489   -0.7792    3.7808 C.3       1 <0>        -0.2671
     15 C12         0.0472    0.1831    4.9406 C.2       1 <0>         0.4257
     16 O4          0.0294    1.3782    4.7368 O.2       1 <0>        -0.4118
     17 C13         0.0674   -0.3278    6.3206 C.ar      1 <0>        -0.1685
     18 C14         0.0822   -1.7056    6.5599 C.ar      1 <0>        -0.0769
     19 C15         0.1074   -2.1764    7.8557 C.ar      1 <0>        -0.1312
     20 C16         0.1058   -1.2894    8.9182 C.ar      1 <0>        -0.0878
     21 C17         0.0849    0.0755    8.6897 C.ar      1 <0>        -0.1299
     22 C18         0.0659    0.5620    7.3996 C.ar      1 <0>        -0.0602
     23 H1          1.8174    1.7268    0.8840 H         1 <0>         0.0484
     24 H2          1.8004    1.7364   -0.8958 H         1 <0>         0.0447
     25 H3          1.0905    3.0954    0.0083 H         1 <0>         0.1000
     26 H4         -0.0359    0.6976   -3.0119 H         1 <0>         0.1630
     27 H5         -0.0196   -1.5067   -4.4043 H         1 <0>         0.2145
     28 H6          0.0546   -3.8811    0.0015 H         1 <0>         0.1438
     29 H7          0.0589   -2.6756    2.1131 H         1 <0>         0.1472
     30 H8          0.9966   -0.9375    4.0579 H         1 <0>         0.0966
     31 H9          0.0611   -1.8477    3.5658 H         1 <0>         0.1772
     32 H10         0.0789   -2.3990    5.7319 H         1 <0>         0.1309
     33 H11         0.1234   -3.2400    8.0421 H         1 <0>         0.1308
     34 H12         0.1206   -1.6643    9.9309 H         1 <0>         0.1288
     35 H13         0.0838    0.7613    9.5239 H         1 <0>         0.1310
     36 H14         0.0496    1.6273    7.2228 H         1 <0>         0.1353
@<TRIPOS>BOND
     1    1    2 1
     2    1   23 1
     3    1   24 1
     4    1   25 1
     5    2    3 1
     6    3   11 ar
     7    3    4 ar
     8    4    8 ar
     9    4    5 1
    10    5    6 2
    11    5   26 1
    12    6    7 1
    13    6   27 1
    14    7    8 1
    15    8    9 ar
    16    9   10 ar
    17    9   28 1
    18   10   11 ar
    19   10   29 1
    20   11   12 1
    21   12   14 1
    22   12   13 2
    23   14   30 1
    24   14   31 1
    25   14   15 1
    26   15   17 1
    27   15   16 2
    28   17   22 ar
    29   17   18 ar
    30   18   19 ar
    31   18   32 1
    32   19   20 ar
    33   19   33 1
    34   20   21 ar
    35   20   34 1
    36   21   22 ar
    37   21   35 1
    38   22   36 1
@<TRIPOS>MOLECULE
ZINC03869685
   31    33     0     0     0
SMALL
USER_CHARGES

@<TRIPOS>ATOM
      1 C1          0.1390    1.1246   -0.8120 C.ar      1 <0>        -0.0626
      2 C2          1.3229    1.8301   -0.8179 C.ar      1 <0>        -0.1333
      3 C3          2.3812    1.4233   -0.0172 C.ar      1 <0>         0.0878
      4 C4          2.2522    0.2984    0.7970 C.ar      1 <0>         0.0757
      5 C5          1.0694   -0.4139    0.8086 C.ar      1 <0>        -0.0997
      6 C6          0.0021   -0.0041    0.0020 C.ar      1 <0>        -0.0194
      7 C7         -1.2620   -0.7597    0.0100 C.2       1 <0>         0.1007
      8 C8         -2.4587   -0.0763    0.1245 C.2       1 <0>        -0.0038
      9 C9         -3.6655   -0.7872    0.1324 C.2       1 <0>         0.3349
     10 C10        -3.6167   -2.1939    0.0219 C.2       1 <0>        -0.3331
     11 C11        -4.8018   -2.9593    0.0240 C.2       1 <0>         0.2664
     12 C12        -4.7326   -4.3182   -0.0844 C.2       1 <0>        -0.3749
     13 C13        -3.4871   -4.9570   -0.1979 C.2       1 <0>         0.3648
     14 O1         -3.4307   -6.2860   -0.3033 O.2       1 <0>        -0.6598
     15 C14        -2.3054   -4.2086   -0.2016 C.2       1 <0>        -0.3143
     16 C15        -2.3616   -2.8325   -0.0921 C.2       1 <0>         0.2118
     17 O2         -1.2290   -2.0988   -0.0996 O.3       1 <0>        -0.2018
     18 O3         -6.0073   -2.3463    0.1339 O.3       1 <0>        -0.4482
     19 O4         -4.8484   -0.1420    0.2437 O.3       1 <0>        -0.5747
     20 O5         -2.4638    1.2803    0.2294 O.3       1 <0>        -0.4649
     21 O6          3.2919   -0.0973    1.5794 O.3       1 <0>        -0.4856
     22 O7          3.5458    2.1225   -0.0269 O.3       1 <0>        -0.4881
     23 H1         -0.6843    1.4460   -1.4327 H         1 <0>         0.1397
     24 H2          1.4276    2.7014   -1.4473 H         1 <0>         0.1381
     25 H3          0.9685   -1.2854    1.4384 H         1 <0>         0.1410
     26 H4         -5.6395   -4.9047   -0.0825 H         1 <0>         0.1180
     27 H5         -1.3506   -4.7057   -0.2895 H         1 <0>         0.1230
     28 H6         -6.7597   -2.9537    0.1258 H         1 <0>         0.3847
     29 H7         -3.3475    1.6656    0.3047 H         1 <0>         0.4058
     30 H8          3.2925    0.2977    2.4620 H         1 <0>         0.3855
     31 H9          3.5825    2.8346    0.6263 H         1 <0>         0.3863
@<TRIPOS>BOND
     1    1    6 ar
     2    1    2 ar
     3    1   23 1
     4    2    3 ar
     5    2   24 1
     6    3    4 ar
     7    3   22 1
     8    4    5 ar
     9    4   21 1
    10    5    6 ar
    11    5   25 1
    12    6    7 1
    13    7   17 1
    14    7    8 2
    15    8    9 1
    16    8   20 1
    17    9   10 2
    18    9   19 1
    19   10   16 1
    20   10   11 1
    21   11   12 2
    22   11   18 1
    23   12   13 1
    24   12   26 1
    25   13   14 2
    26   13   15 1
    27   15   16 2
    28   15   27 1
    29   16   17 1
    30   18   28 1
    31   20   29 1
    32   21   30 1
    33   22   31 1
@<TRIPOS>MOLECULE
ZINC00265517
   24    26     0     0     0
SMALL
USER_CHARGES

@<TRIPOS>ATOM
      1 C1         -0.0173    1.4248    0.0099 C.3       1 <0>         0.0351
      2 O1          0.0021   -0.0041    0.0020 O.3       1 <0>        -0.3261
      3 C2         -1.1969   -0.6357    0.0101 C.ar      1 <0>         0.2101
      4 C3         -1.8344   -0.9774    1.2217 C.ar      1 <0>        -0.1366
      5 C4         -1.2483   -0.6741    2.4611 C.ar      1 <0>        -0.0804
      6 C5         -1.8905   -1.0175    3.6114 C.ar      1 <0>        -0.1221
      7 C6         -3.1231   -1.6668    3.5739 C.ar      1 <0>        -0.0829
      8 C7         -3.7191   -1.9761    2.3908 C.ar      1 <0>        -0.1013
      9 C8         -3.0879   -1.6376    1.1792 C.ar      1 <0>         0.1873
     10 N1         -3.6602   -1.9339    0.0086 N.ar      1 <0>        -0.4762
     11 C9         -3.0913   -1.6291   -1.1428 C.ar      1 <0>         0.3127
     12 C10        -1.8455   -0.9650   -1.1761 C.ar      1 <0>        -0.2022
     13 C11        -1.5311   -0.7845   -2.5993 C.2       1 <0>        -0.1964
     14 C12        -2.5553   -1.3169   -3.2766 C.2       1 <0>         0.0284
     15 O2         -3.4668   -1.8217   -2.4248 O.3       1 <0>        -0.1929
     16 H1          1.0053    1.8021    0.0021 H         1 <0>         0.1048
     17 H2         -0.5445    1.7859   -0.8732 H         1 <0>         0.0531
     18 H3         -0.5275    1.7763    0.9067 H         1 <0>         0.0533
     19 H4         -0.2932   -0.1715    2.5016 H         1 <0>         0.1344
     20 H5         -1.4391   -0.7843    4.5644 H         1 <0>         0.1329
     21 H6         -3.6133   -1.9292    4.4998 H         1 <0>         0.1363
     22 H7         -4.6743   -2.4801    2.3812 H         1 <0>         0.1426
     23 H8         -0.6514   -0.3161   -3.0154 H         1 <0>         0.1657
     24 H9         -2.6340   -1.3468   -4.3533 H         1 <0>         0.2205
@<TRIPOS>BOND
     1    1    2 1
     2    1   16 1
     3    1   17 1
     4    1   18 1
     5    2    3 1
     6    3   12 ar
     7    3    4 ar
     8    4    9 ar
     9    4    5 ar
    10    5    6 ar
    11    5   19 1
    12    6    7 ar
    13    6   20 1
    14    7    8 ar
    15    7   21 1
    16    8    9 ar
    17    8   22 1
    18    9   10 ar
    19   10   11 ar
    20   11   15 1
    21   11   12 ar
    22   12   13 1
    23   13   14 2
    24   13   23 1
    25   14   15 1
    26   14   24 1
@<TRIPOS>MOLECULE
ZINC05430812
   55    57     0     0     0
SMALL
USER_CHARGES

@<TRIPOS>ATOM
      1 C1         -0.8510    2.1659    0.2391 C.3       1 <0>        -0.1183
      2 C2         -0.1716    0.8232    0.1586 C.2       1 <0>        -0.1427
      3 C3          0.1514    0.1856    1.2565 C.2       1 <0>        -0.1488
      4 C4         -0.2428    0.7478    2.5980 C.3       1 <0>        -0.0384
      5 C5         -1.0453   -0.2778    3.3563 C.ar      1 <0>        -0.1820
      6 C6         -2.4298   -0.3155    3.2190 C.ar      1 <0>         0.1874
      7 C7         -3.1836   -1.2526    3.9095 C.ar      1 <0>        -0.1950
      8 C8         -2.5634   -2.1659    4.7475 C.ar      1 <0>         0.1936
      9 C9         -1.1615   -2.1333    4.8907 C.ar      1 <0>        -0.2270
     10 C10        -0.4046   -1.1805    4.1805 C.ar      1 <0>         0.2239
     11 O1          0.9451   -1.1473    4.3100 O.3       1 <0>        -0.4627
     12 C11        -0.5258   -3.0644    5.7457 C.2       1 <0>         0.3796
     13 C12        -1.3292   -4.0001    6.4300 C.2       1 <0>        -0.3196
     14 C13        -0.7429   -4.9469    7.2931 C.2       1 <0>         0.0475
     15 C14        -1.5258   -5.8448    7.9490 C.2       1 <0>        -0.0640
     16 C15        -2.9266   -5.8317    7.7678 C.2       1 <0>         0.3280
     17 O2         -3.6876   -6.7149    8.4141 O.2       1 <0>        -0.6453
     18 C16        -3.5180   -4.8966    6.9144 C.2       1 <0>        -0.3028
     19 C17        -2.7299   -3.9806    6.2434 C.2       1 <0>         0.2005
     20 O3         -3.3003   -3.0762    5.4187 O.3       1 <0>        -0.2269
     21 O4         -0.9581   -6.7587    8.7818 O.3       1 <0>        -0.3135
     22 C18        -1.0509   -8.1320    8.3978 C.3       1 <0>         0.0309
     23 C19         0.7512   -4.9649    7.4891 C.3       1 <0>        -0.0625
     24 C20         1.1359   -3.9297    8.5145 C.2       1 <0>        -0.1004
     25 C21         1.7524   -4.2925    9.6120 C.2       1 <0>        -0.1689
     26 C22         1.9983   -5.7529    9.8906 C.3       1 <0>        -0.1179
     27 C23         2.2156   -3.2493   10.5959 C.3       1 <0>        -0.1056
     28 O5          0.8135   -3.0575    5.9019 O.3       1 <0>        -0.5491
     29 O6         -3.0481    0.5738    2.4019 O.3       1 <0>        -0.4874
     30 C24         0.1364    0.2138   -1.1849 C.3       1 <0>        -0.1158
     31 H1         -0.2504    2.8410    0.8486 H         1 <0>         0.0635
     32 H2         -0.9579    2.5797   -0.7637 H         1 <0>         0.0566
     33 H3         -1.8361    2.0481    0.6904 H         1 <0>         0.0714
     34 H4          0.7000   -0.7429    1.2002 H         1 <0>         0.1095
     35 H5          0.6540    0.9989    3.1644 H         1 <0>         0.0797
     36 H6         -0.8442    1.6453    2.4533 H         1 <0>         0.0858
     37 H7         -4.2573   -1.2707    3.7941 H         1 <0>         0.1462
     38 H8          1.2577   -0.5756    5.0245 H         1 <0>         0.3950
     39 H9         -4.5894   -4.8900    6.7786 H         1 <0>         0.1220
     40 H10        -0.4964   -8.2889    7.4726 H         1 <0>         0.0274
     41 H11        -0.6301   -8.7585    9.1843 H         1 <0>         0.0750
     42 H12        -2.0971   -8.3963    8.2436 H         1 <0>         0.0573
     43 H13         1.0605   -5.9513    7.8348 H         1 <0>         0.0683
     44 H14         1.2444   -4.7402    6.5433 H         1 <0>         0.1148
     45 H15         0.9033   -2.8888    8.3446 H         1 <0>         0.1011
     46 H16         2.9186   -6.0668    9.3981 H         1 <0>         0.0518
     47 H17         2.0906   -5.9072   10.9656 H         1 <0>         0.0488
     48 H18         1.1635   -6.3411    9.5095 H         1 <0>         0.0846
     49 H19         1.3575   -2.6792   10.9520 H         1 <0>         0.0561
     50 H20         2.7034   -3.7370   11.4399 H         1 <0>         0.0532
     51 H21         2.9211   -2.5770   10.1075 H         1 <0>         0.0558
     52 H22        -3.1450    0.2681    1.4896 H         1 <0>         0.3941
     53 H23        -0.2031    0.8843   -1.9744 H         1 <0>         0.0591
     54 H24         1.2116    0.0601   -1.2762 H         1 <0>         0.0627
     55 H25        -0.3766   -0.7436   -1.2758 H         1 <0>         0.0635
@<TRIPOS>BOND
     1    1    2 1
     2    1   31 1
     3    1   32 1
     4    1   33 1
     5    2    3 2
     6    2   30 1
     7    3    4 1
     8    3   34 1
     9    4    5 1
    10    4   35 1
    11    4   36 1
    12    5   10 ar
    13    5    6 ar
    14    6    7 ar
    15    6   29 1
    16    7    8 ar
    17    7   37 1
    18    8   20 1
    19    8    9 ar
    20    9   10 ar
    21    9   12 1
    22   10   11 1
    23   11   38 1
    24   12   13 2
    25   12   28 1
    26   13   19 1
    27   13   14 1
    28   14   15 2
    29   14   23 1
    30   15   16 1
    31   15   21 1
    32   16   17 2
    33   16   18 1
    34   18   19 2
    35   18   39 1
    36   19   20 1
    37   21   22 1
    38   22   40 1
    39   22   41 1
    40   22   42 1
    41   23   24 1
    42   23   43 1
    43   23   44 1
    44   24   25 2
    45   24   45 1
    46   25   26 1
    47   25   27 1
    48   26   46 1
    49   26   47 1
    50   26   48 1
    51   27   49 1
    52   27   50 1
    53   27   51 1
    54   29   52 1
    55   30   53 1
    56   30   54 1
    57   30   55 1
@<TRIPOS>MOLECULE
ZINC05765089
   28    30     0     0     0
SMALL
USER_CHARGES

@<TRIPOS>ATOM
      1 C1         -0.0184    1.5028    0.0103 C.3       1 <0>        -0.0946
      2 C2          0.0021   -0.0041    0.0020 C.2       1 <0>         0.0591
      3 C3         -0.0968   -0.6775   -1.1722 C.2       1 <0>        -0.3221
      4 C4         -0.0783   -2.0856   -1.1867 C.2       1 <0>         0.4022
      5 O1         -0.1681   -2.6860   -2.2518 O.2       1 <0>        -0.5987
      6 C5          0.0425   -2.8026    0.0086 C.2       1 <0>        -0.3470
      7 C6          0.1436   -2.1263    1.2084 C.2       1 <0>         0.2078
      8 O2          0.2608   -2.8142    2.3642 O.3       1 <0>        -0.2309
      9 C7          0.3622   -2.1866    3.5553 C.ar      1 <0>         0.1969
     10 C8          0.4816   -2.9256    4.7214 C.ar      1 <0>        -0.1992
     11 C9          0.5864   -2.2840    5.9466 C.ar      1 <0>         0.1800
     12 C10         0.5734   -0.8945    6.0237 C.ar      1 <0>        -0.2252
     13 C11         0.4551   -0.1369    4.8762 C.ar      1 <0>         0.2188
     14 C12         0.3485   -0.7788    3.6264 C.ar      1 <0>        -0.2281
     15 C13         0.2270   -0.0212    2.4378 C.2       1 <0>         0.3730
     16 C14         0.1294   -0.7127    1.2115 C.2       1 <0>        -0.3487
     17 O3          0.2105    1.3262    2.4751 O.3       1 <0>        -0.5701
     18 O4          0.4414    1.2171    4.9510 O.3       1 <0>        -0.4672
     19 O5          0.7023   -3.0184    7.0814 O.3       1 <0>        -0.4921
     20 H1          0.9099    1.8764    0.4425 H         1 <0>         0.0718
     21 H2         -0.1174    1.8704   -1.0110 H         1 <0>         0.0406
     22 H3         -0.8624    1.8514    0.6054 H         1 <0>         0.0727
     23 H4         -0.1903   -0.1313   -2.0992 H         1 <0>         0.1086
     24 H5          0.0562   -3.8824   -0.0069 H         1 <0>         0.1152
     25 H6          0.4926   -4.0046    4.6761 H         1 <0>         0.1454
     26 H7          0.6557   -0.4076    6.9842 H         1 <0>         0.1400
     27 H8          1.3170    1.6232    4.8909 H         1 <0>         0.3962
     28 H9          1.6154   -3.2188    7.3287 H         1 <0>         0.3956
@<TRIPOS>BOND
     1    1    2 1
     2    1   20 1
     3    1   21 1
     4    1   22 1
     5    2   16 1
     6    2    3 2
     7    3    4 1
     8    3   23 1
     9    4    5 2
    10    4    6 1
    11    6    7 2
    12    6   24 1
    13    7   16 1
    14    7    8 1
    15    8    9 1
    16    9   14 ar
    17    9   10 ar
    18   10   11 ar
    19   10   25 1
    20   11   12 ar
    21   11   19 1
    22   12   13 ar
    23   12   26 1
    24   13   14 ar
    25   13   18 1
    26   14   15 1
    27   15   16 2
    28   15   17 1
    29   18   27 1
    30   19   28 1
@<TRIPOS>MOLECULE
ZINC00900182
   32    35     0     0     0
SMALL
USER_CHARGES
dimethoxyBLAH
@<TRIPOS>ATOM
      1 C1          0.0230   -0.6596    1.2716 C.3       1 <0>         0.0311
      2 O1          0.0021   -0.0041    0.0020 O.3       1 <0>        -0.3154
      3 C2         -0.0163    1.3516    0.0095 C.ar      1 <0>         0.3511
      4 C3         -1.2173    2.0553    0.0188 C.ar      1 <0>        -0.1921
      5 C4         -2.6330    1.6644    0.0337 C.2       1 <0>        -0.1516
      6 C5         -3.3335    2.8047    0.0465 C.2       1 <0>         0.0377
      7 O2         -2.5026    3.8633    0.0461 O.3       1 <0>        -0.1713
      8 C6         -1.2121    3.4666    0.0328 C.ar      1 <0>         0.3508
      9 C7          1.1099    3.5128    0.0121 C.ar      1 <0>         0.2092
     10 C8          1.1803    2.0971    0.0021 C.ar      1 <0>        -0.1077
     11 C9          2.4313    1.4577   -0.0164 C.ar      1 <0>        -0.0455
     12 C10         3.5772    2.1990   -0.0259 C.ar      1 <0>         0.0678
     13 C11         3.5208    3.6016   -0.0163 C.ar      1 <0>         0.1344
     14 C12         2.3080    4.2560    0.0036 C.ar      1 <0>         0.0580
     15 O3          2.2670    5.6156    0.0145 O.3       1 <0>        -0.3113
     16 C13         2.2625    6.2543    1.2928 C.3       1 <0>         0.0156
     17 O4          4.7996    4.0847   -0.0289 O.3       1 <0>        -0.2721
     18 C14         5.6222    2.9861   -0.4624 C.3       1 <0>         0.2041
     19 O5          4.8898    1.8196   -0.0446 O.3       1 <0>        -0.2812
     20 H1          0.9142   -0.3576    1.8218 H         1 <0>         0.0694
     21 H2         -0.8655   -0.3818    1.8386 H         1 <0>         0.0709
     22 H3          0.0363   -1.7393    1.1229 H         1 <0>         0.1286
     23 H4         -3.0289    0.6596    0.0312 H         1 <0>         0.1946
     24 H5         -4.4117    2.8665    0.0560 H         1 <0>         0.2455
     25 H6          2.4861    0.3791   -0.0229 H         1 <0>         0.1802
     26 H7          2.2282    7.3354    1.1587 H         1 <0>         0.1197
     27 H8          1.3885    5.9303    1.8578 H         1 <0>         0.0507
     28 H9          3.1675    5.9842    1.8371 H         1 <0>         0.0668
     29 H10         5.7363    2.9982   -1.5463 H         1 <0>         0.1125
     30 H11         6.5969    3.0229    0.0241 H         1 <0>         0.1586
     31 N1         -0.0759    4.2156    0.0286 N.ar      1 <0>        -0.4863
     32 H12        -0.1003    5.2420    0.0372 H         1 <0>         0.4771
@<TRIPOS>BOND
     1    1    2 1
     2    1   20 1
     3    1   21 1
     4    1   22 1
     5    2    3 1
     6    3   10 ar
     7    3    4 ar
     8    4    8 ar
     9    4    5 1
    10    5    6 2
    11    5   23 1
    12    6    7 1
    13    6   24 1
    14    7    8 1
    15    8   31 ar
    16    9   14 ar
    17    9   10 ar
    18    9   31 ar
    19   10   11 ar
    20   11   12 ar
    21   11   25 1
    22   12   19 1
    23   12   13 ar
    24   13   14 ar
    25   13   17 1
    26   14   15 1
    27   15   16 1
    28   16   26 1
    29   16   27 1
    30   16   28 1
    31   17   18 1
    32   18   19 1
    33   18   29 1
    34   18   30 1
    35   31   32 1
@<TRIPOS>MOLECULE
ZINC00900237
   28    31     0     0     0
SMALL
USER_CHARGES
methoxyBLAH
@<TRIPOS>ATOM
      1 C1          5.7917    1.2837    3.4320 C.3       1 <0>         0.0320
      2 O1          5.8561    0.4225    2.2935 O.3       1 <0>        -0.3173
      3 C2          5.0066   -0.6336    2.2720 C.ar      1 <0>         0.3500
      4 C3          5.3724   -1.8634    2.8129 C.ar      1 <0>        -0.1953
      5 C4          6.5791   -2.3707    3.4790 C.2       1 <0>        -0.1518
      6 C5          6.3285   -3.6511    3.7771 C.2       1 <0>         0.0358
      7 O2          5.0936   -3.9932    3.3663 O.3       1 <0>        -0.1717
      8 C6          4.4719   -2.9493    2.7780 C.ar      1 <0>         0.3476
      9 C7          2.8684   -1.6570    1.7030 C.ar      1 <0>         0.2326
     10 C8          3.7222   -0.5249    1.7015 C.ar      1 <0>        -0.1189
     11 C9          3.2796    0.6831    1.1366 C.ar      1 <0>        -0.0432
     12 C10         2.0299    0.7608    0.5960 C.ar      1 <0>         0.0533
     13 C11         1.1791   -0.3581    0.5976 C.ar      1 <0>         0.1605
     14 C12         1.5860   -1.5439    1.1377 C.ar      1 <0>        -0.1641
     15 O3          0.0021   -0.0041    0.0020 O.3       1 <0>        -0.2806
     16 C13        -0.0174    1.4350    0.0099 C.3       1 <0>         0.2057
     17 O4          1.3747    1.8006   -0.0014 O.3       1 <0>        -0.2839
     18 H1          4.7917    1.7106    3.5086 H         1 <0>         0.0687
     19 H2          6.0126    0.7117    4.3332 H         1 <0>         0.0704
     20 H3          6.5217    2.0857    3.3227 H         1 <0>         0.1277
     21 H4          7.4853   -1.8213    3.6868 H         1 <0>         0.1933
     22 H5          7.0189   -4.3150    4.2762 H         1 <0>         0.2445
     23 H6          3.9270    1.5475    1.1307 H         1 <0>         0.1761
     24 H7          0.9226   -2.3961    1.1301 H         1 <0>         0.1755
     25 H8         -0.5199    1.8155   -0.8794 H         1 <0>         0.1571
     26 H9         -0.5028    1.8059    0.9127 H         1 <0>         0.1110
     27 N1          3.2257   -2.8778    2.2342 N.ar      1 <0>        -0.4916
     28 H10         2.5904   -3.6843    2.2207 H         1 <0>         0.4765
@<TRIPOS>BOND
     1    1    2 1
     2    1   18 1
     3    1   19 1
     4    1   20 1
     5    2    3 1
     6    3   10 ar
     7    3    4 ar
     8    4    8 ar
     9    4    5 1
    10    5    6 2
    11    5   21 1
    12    6    7 1
    13    6   22 1
    14    7    8 1
    15    8   27 ar
    16    9   14 ar
    17    9   10 ar
    18    9   27 ar
    19   10   11 ar
    20   11   12 ar
    21   11   23 1
    22   12   17 1
    23   12   13 ar
    24   13   14 ar
    25   13   15 1
    26   14   24 1
    27   15   16 1
    28   16   17 1
    29   16   25 1
    30   16   26 1
    31   27   28 1
@<TRIPOS>MOLECULE
ZINC05452752
   56    58     0     0     0
SMALL
USER_CHARGES
5,7-dihydroxy-6-(3-methylbutanoyl)-8-(3-methylbut-2-enyl)-4-phenyl-chromen-2-one
@<TRIPOS>ATOM
      1 C1         -5.0743    2.1956   -7.9398 C.3       1 <0>        -0.1473
      2 C2         -4.2568    2.7919   -6.7922 C.3       1 <0>        -0.0902
      3 C3         -4.8006    4.1794   -6.4459 C.3       1 <0>        -0.1551
      4 C4         -4.3606    1.8828   -5.5660 C.3       1 <0>        -0.1446
      5 C5         -3.4589    2.4039   -4.4767 C.2       1 <0>         0.4060
      6 O1         -2.7980    3.4045   -4.6629 O.2       1 <0>        -0.4419
      7 C6         -3.3805    1.7036   -3.1950 C.ar      1 <0>        -0.2860
      8 C7         -2.5433    2.1923   -2.1708 C.ar      1 <0>         0.3149
      9 C8         -2.4611    1.5316   -0.9606 C.ar      1 <0>        -0.2564
     10 C9         -3.2112    0.3849   -0.7332 C.ar      1 <0>         0.2643
     11 C10        -4.0560   -0.1107   -1.7435 C.ar      1 <0>        -0.2979
     12 C11        -4.1432    0.5464   -2.9762 C.ar      1 <0>         0.3245
     13 O2         -4.9555    0.0697   -3.9486 O.3       1 <0>        -0.5125
     14 C12        -4.8408   -1.3271   -1.4817 C.2       1 <0>         0.0826
     15 C13        -4.7081   -1.9286   -0.2432 C.2       1 <0>        -0.2523
     16 C14        -3.8422   -1.3669    0.7084 C.2       1 <0>         0.5147
     17 O3         -3.7308   -1.9028    1.7971 O.2       1 <0>        -0.4562
     18 O4         -3.1330   -0.2562    0.4524 O.3       1 <0>        -0.2653
     19 C15        -5.7438   -1.8891   -2.5104 C.ar      1 <0>        -0.0901
     20 C16        -7.1029   -2.0503   -2.2373 C.ar      1 <0>        -0.0862
     21 C17        -7.9404   -2.5700   -3.2026 C.ar      1 <0>        -0.1018
     22 C18        -7.4336   -2.9416   -4.4352 C.ar      1 <0>        -0.0963
     23 C19        -6.0862   -2.7892   -4.7105 C.ar      1 <0>        -0.1027
     24 C20        -5.2390   -2.2655   -3.7559 C.ar      1 <0>        -0.1217
     25 C21        -1.5566    2.0617    0.1220 C.3       1 <0>        -0.0423
     26 C22        -0.1898    1.4423   -0.0174 C.2       1 <0>        -0.1623
     27 C23         0.8706    2.2070   -0.0990 C.2       1 <0>        -0.1323
     28 C24         2.2447    1.5889   -0.1321 C.3       1 <0>        -0.1204
     29 C25         0.7166    3.7049   -0.1599 C.3       1 <0>        -0.1227
     30 O5         -1.8105    3.3134   -2.3773 O.3       1 <0>        -0.4587
     31 H1         -4.6833    1.1980   -8.1888 H         1 <0>         0.0535
     32 H2         -4.9997    2.8492   -8.8214 H         1 <0>         0.0558
     33 H3         -6.1276    2.1109   -7.6343 H         1 <0>         0.0541
     34 H4         -3.2035    2.8767   -7.0977 H         1 <0>         0.0736
     35 H5         -4.2129    4.6081   -5.6208 H         1 <0>         0.0704
     36 H6         -5.8539    4.0946   -6.1404 H         1 <0>         0.0476
     37 H7         -4.7260    4.8330   -7.3275 H         1 <0>         0.0520
     38 H8         -5.4001    1.8694   -5.2065 H         1 <0>         0.0997
     39 H9         -4.0539    0.8623   -5.8391 H         1 <0>         0.0991
     40 H10        -5.2660   -2.8235   -0.0101 H         1 <0>         0.1671
     41 H11        -7.4989   -1.7651   -1.2738 H         1 <0>         0.1424
     42 H12        -8.9932   -2.6912   -2.9941 H         1 <0>         0.1420
     43 H13        -8.0926   -3.3521   -5.1859 H         1 <0>         0.1405
     44 H14        -5.6968   -3.0812   -5.6746 H         1 <0>         0.1460
     45 H15        -4.1876   -2.1467   -3.9720 H         1 <0>         0.1499
     46 H16        -1.4751    3.1547    0.0291 H         1 <0>         0.0760
     47 H17        -1.9756    1.8077    1.1069 H         1 <0>         0.0998
     48 H18        -0.0827    0.3480   -0.0506 H         1 <0>         0.1154
     49 H19         3.0025    2.3832   -0.2016 H         1 <0>         0.0643
     50 H20         2.3275    0.9257   -1.0058 H         1 <0>         0.0664
     51 H21         2.4071    1.0066    0.7869 H         1 <0>         0.0682
     52 H22         1.7098    4.1732   -0.2251 H         1 <0>         0.0746
     53 H23         0.2036    4.0579    0.7468 H         1 <0>         0.0756
     54 H24         0.1241    3.9768   -1.0459 H         1 <0>         0.0579
     55 H25        -1.1564    3.6974   -1.5806 H         1 <0>         0.4247
     56 H26        -5.5512   -0.8379   -3.7717 H         1 <0>         0.4196
@<TRIPOS>BOND
     1    1    2 1
     2    1   31 1
     3    1   32 1
     4    1   33 1
     5    2    3 1
     6    2    4 1
     7    2   34 1
     8    3   35 1
     9    3   36 1
    10    3   37 1
    11    4    5 1
    12    4   38 1
    13    4   39 1
    14    5    6 2
    15    5    7 1
    16    7   12 ar
    17    7    8 ar
    18    8    9 ar
    19    8   30 1
    20    9   10 ar
    21    9   25 1
    22   10   18 1
    23   10   11 ar
    24   11   12 ar
    25   11   14 1
    26   12   13 1
    27   13   56 1
    28   14   15 2
    29   14   19 1
    30   15   16 1
    31   15   40 1
    32   16   17 2
    33   16   18 1
    34   19   24 ar
    35   19   20 ar
    36   20   21 ar
    37   20   41 1
    38   21   22 ar
    39   21   42 1
    40   22   23 ar
    41   22   43 1
    42   23   24 ar
    43   23   44 1
    44   24   45 1
    45   25   26 1
    46   25   46 1
    47   25   47 1
    48   26   27 2
    49   26   48 1
    50   27   28 1
    51   27   29 1
    52   28   49 1
    53   28   50 1
    54   28   51 1
    55   29   52 1
    56   29   53 1
    57   29   54 1
    58   30   55 1
@<TRIPOS>MOLECULE
ZINC05452752
   55    57     0     0     0
SMALL
USER_CHARGES
5,7-dihydroxy-6-(3-methylbutanoyl)-8-(3-methylbut-2-enyl)-4-phenyl-chromen-2-one
@<TRIPOS>ATOM
      1 C1         -5.0743    2.1956   -7.9398 C.3       1 <0>        -0.1433
      2 C2         -4.2568    2.7919   -6.7922 C.3       1 <0>        -0.0900
      3 C3         -4.8006    4.1794   -6.4459 C.3       1 <0>        -0.1520
      4 C4         -4.3606    1.8828   -5.5660 C.3       1 <0>        -0.1420
      5 C5         -3.4589    2.4039   -4.4767 C.2       1 <0>         0.4028
      6 O1         -2.7980    3.4045   -4.6629 O.2       1 <0>        -0.4542
      7 C6         -3.3805    1.7036   -3.1950 C.ar      1 <0>        -0.3595
      8 C7         -2.5433    2.1923   -2.1708 C.ar      1 <0>         0.3729
      9 C8         -2.4611    1.5316   -0.9606 C.ar      1 <0>        -0.2567
     10 C9         -3.2112    0.3849   -0.7332 C.ar      1 <0>         0.2267
     11 C10        -4.0560   -0.1107   -1.7435 C.ar      1 <0>        -0.3564
     12 C11        -4.1432    0.5464   -2.9762 C.ar      1 <0>         0.3079
     13 O2         -4.9555    0.0697   -3.9486 O.3       1 <0>        -0.5286
     14 C12        -4.8408   -1.3271   -1.4817 C.2       1 <0>         0.1026
     15 C13        -4.7081   -1.9286   -0.2432 C.2       1 <0>        -0.3215
     16 C14        -3.8422   -1.3669    0.7084 C.2       1 <0>         0.5183
     17 O3         -3.7308   -1.9028    1.7971 O.2       1 <0>        -0.5021
     18 O4         -3.1330   -0.2562    0.4524 O.3       1 <0>        -0.2748
     19 C15        -5.7438   -1.8891   -2.5104 C.ar      1 <0>        -0.0710
     20 C16        -7.1029   -2.0503   -2.2373 C.ar      1 <0>        -0.0919
     21 C17        -7.9404   -2.5700   -3.2026 C.ar      1 <0>        -0.1105
     22 C18        -7.4336   -2.9416   -4.4352 C.ar      1 <0>        -0.1081
     23 C19        -6.0862   -2.7892   -4.7105 C.ar      1 <0>        -0.1109
     24 C20        -5.2390   -2.2655   -3.7559 C.ar      1 <0>        -0.1118
     25 C21        -1.5566    2.0617    0.1220 C.3       1 <0>        -0.0205
     26 C22        -0.1898    1.4423   -0.0174 C.2       1 <0>        -0.1350
     27 C23         0.8706    2.2070   -0.0990 C.2       1 <0>        -0.1501
     28 C24         2.2447    1.5889   -0.1321 C.3       1 <0>        -0.1097
     29 C25         0.7166    3.7049   -0.1599 C.3       1 <0>        -0.1170
     30 O5         -1.8105    3.3134   -2.3773 O.3       1 <0>        -0.6110
     31 H1         -4.6833    1.1980   -8.1888 H         1 <0>         0.0502
     32 H2         -4.9997    2.8492   -8.8214 H         1 <0>         0.0490
     33 H3         -6.1276    2.1109   -7.6343 H         1 <0>         0.0507
     34 H4         -3.2035    2.8767   -7.0977 H         1 <0>         0.0701
     35 H5         -4.2129    4.6081   -5.6208 H         1 <0>         0.0764
     36 H6         -5.8539    4.0946   -6.1404 H         1 <0>         0.0433
     37 H7         -4.7260    4.8330   -7.3275 H         1 <0>         0.0437
     38 H8         -5.4001    1.8694   -5.2065 H         1 <0>         0.0882
     39 H9         -4.0539    0.8623   -5.8391 H         1 <0>         0.0874
     40 H10        -5.2660   -2.8235   -0.0101 H         1 <0>         0.1461
     41 H11        -7.4989   -1.7651   -1.2738 H         1 <0>         0.1378
     42 H12        -8.9932   -2.6912   -2.9941 H         1 <0>         0.1342
     43 H13        -8.0926   -3.3521   -5.1859 H         1 <0>         0.1324
     44 H14        -5.6968   -3.0812   -5.6746 H         1 <0>         0.1389
     45 H15        -4.1876   -2.1467   -3.9720 H         1 <0>         0.1477
     46 H16        -1.4751    3.1547    0.0291 H         1 <0>         0.0833
     47 H17        -1.9756    1.8077    1.1069 H         1 <0>         0.0620
     48 H18        -0.0827    0.3480   -0.0506 H         1 <0>         0.0963
     49 H19         3.0025    2.3832   -0.2016 H         1 <0>         0.0546
     50 H20         2.3275    0.9257   -1.0058 H         1 <0>         0.0570
     51 H21         2.4071    1.0066    0.7869 H         1 <0>         0.0567
     52 H22         1.7098    4.1732   -0.2251 H         1 <0>         0.0438
     53 H23         0.2036    4.0579    0.7468 H         1 <0>         0.0544
     54 H24         0.1241    3.9768   -1.0459 H         1 <0>         0.0917
     55 H25        -5.5512   -0.8379   -3.7717 H         1 <0>         0.4018
@<TRIPOS>BOND
     1    1    2 1
     2    1   31 1
     3    1   32 1
     4    1   33 1
     5    2    3 1
     6    2    4 1
     7    2   34 1
     8    3   35 1
     9    3   36 1
    10    3   37 1
    11    4    5 1
    12    4   38 1
    13    4   39 1
    14    5    6 2
    15    5    7 1
    16    7   12 ar
    17    7    8 ar
    18    8    9 ar
    19    8   30 1
    20    9   10 ar
    21    9   25 1
    22   10   18 1
    23   10   11 ar
    24   11   12 ar
    25   11   14 1
    26   12   13 1
    27   13   55 1
    28   14   15 2
    29   14   19 1
    30   15   16 1
    31   15   40 1
    32   16   17 2
    33   16   18 1
    34   19   24 ar
    35   19   20 ar
    36   20   21 ar
    37   20   41 1
    38   21   22 ar
    39   21   42 1
    40   22   23 ar
    41   22   43 1
    42   23   24 ar
    43   23   44 1
    44   24   45 1
    45   25   26 1
    46   25   46 1
    47   25   47 1
    48   26   27 2
    49   26   48 1
    50   27   28 1
    51   27   29 1
    52   28   49 1
    53   28   50 1
    54   28   51 1
    55   29   52 1
    56   29   53 1
    57   29   54 1
@<TRIPOS>MOLECULE
ZINC03830747
   76    80     0     0     0
SMALL
USER_CHARGES

@<TRIPOS>ATOM
      1 C1         -0.0187    1.5258    0.0104 C.3       1 <0>        -0.1633
      2 C2          0.0021   -0.0041    0.0020 C.3       1 <0>        -0.1189
      3 C3         -1.4333   -0.5336    0.0129 C.3       1 <0>        -0.1022
      4 H1         -1.9703   -0.1110    0.8621 H         1 <0>         0.0956
      5 C4         -2.1356   -0.1315   -1.2866 C.3       1 <0>        -0.0065
      6 N1         -3.5096   -0.6473   -1.2769 N.4       1 <0>        -0.3777
      7 C5         -4.2237   -0.1961   -2.4786 C.3       1 <0>        -0.0032
      8 C6         -5.7161   -0.4740   -2.2926 C.3       1 <0>        -0.1015
      9 C7         -5.9228   -1.9046   -1.8642 C.ar      1 <0>        -0.0830
     10 C8         -7.1920   -2.4524   -1.9730 C.ar      1 <0>        -0.1667
     11 C9         -7.4243   -3.7607   -1.5880 C.ar      1 <0>         0.1321
     12 C10        -6.3763   -4.5285   -1.0881 C.ar      1 <0>         0.1178
     13 C11        -5.1120   -3.9775   -0.9822 C.ar      1 <0>        -0.1539
     14 C12        -4.8829   -2.6659   -1.3721 C.ar      1 <0>        -0.1249
     15 C13        -3.4897   -2.1112   -1.2496 C.3       1 <0>         0.0907
     16 H2         -2.8891   -2.4733   -2.0840 H         1 <0>         0.1393
     17 C14        -2.8487   -2.5910    0.0542 C.3       1 <0>        -0.1400
     18 C15        -1.4135   -2.0601    0.1298 C.3       1 <0>        -0.0982
     19 H3         -0.8266   -2.4802   -0.6871 H         1 <0>         0.0950
     20 C16        -0.7896   -2.4620    1.4677 C.3       1 <0>        -0.1085
     21 C17        -0.6558   -3.9849    1.5311 C.3       1 <0>         0.1363
     22 H4         -1.6298   -4.4393    1.3496 H         1 <0>         0.0468
     23 C18        -0.1678   -4.3846    2.8992 C.ar      1 <0>        -0.0837
     24 C19        -0.7098   -3.7440    4.0047 C.ar      1 <0>        -0.1714
     25 C20        -0.2965   -4.0801    5.2811 C.ar      1 <0>         0.0994
     26 C21         0.6690   -5.0675    5.4560 C.ar      1 <0>         0.1115
     27 C22         1.2079   -5.7018    4.3511 C.ar      1 <0>        -0.1757
     28 C23         0.7913   -5.3594    3.0729 C.ar      1 <0>        -0.0579
     29 C24         1.4166   -6.0714    1.9005 C.3       1 <0>        -0.0769
     30 C25         0.5612   -5.8690    0.6497 C.3       1 <0>         0.0558
     31 N2          0.2862   -4.4313    0.5001 N.3       1 <0>        -0.6759
     32 O1          1.0802   -5.4071    6.7070 O.3       1 <0>        -0.3043
     33 C26         2.0740   -6.4289    6.8082 C.3       1 <0>         0.0245
     34 O2         -0.8308   -3.4485    6.3604 O.3       1 <0>        -0.3029
     35 C27        -1.8160   -2.4459    6.1034 C.3       1 <0>         0.0274
     36 O3         -6.5947   -5.8149   -0.7049 O.3       1 <0>        -0.2954
     37 C28        -5.4719   -6.5415   -0.2016 C.3       1 <0>         0.0221
     38 O4         -8.6705   -4.2941   -1.6970 O.3       1 <0>        -0.2961
     39 C29        -9.6958   -3.4459   -2.2182 C.3       1 <0>         0.0210
     40 H5          1.0039    1.9031    0.0027 H         1 <0>         0.0683
     41 H6         -0.5459    1.8868   -0.8726 H         1 <0>         0.0525
     42 H7         -0.5289    1.8773    0.9072 H         1 <0>         0.0600
     43 H8          0.5123   -0.3556   -0.8948 H         1 <0>         0.0756
     44 H9          0.5293   -0.3651    0.8851 H         1 <0>         0.0889
     45 H10        -2.1557    0.9552   -1.3678 H         1 <0>         0.1358
     46 H11        -1.5961   -0.5501   -2.1361 H         1 <0>         0.1311
     47 H12        -4.0653    0.8732   -2.6185 H         1 <0>         0.1380
     48 H13        -3.8559   -0.7400   -3.3486 H         1 <0>         0.1321
     49 H14        -6.1164    0.1937   -1.5297 H         1 <0>         0.1031
     50 H15        -6.2369   -0.2993   -3.2341 H         1 <0>         0.1226
     51 H16        -8.0036   -1.8545   -2.3607 H         1 <0>         0.1471
     52 H17        -4.2982   -4.5721   -0.5941 H         1 <0>         0.1437
     53 H18        -3.4215   -2.2154    0.9021 H         1 <0>         0.0934
     54 H19        -2.8360   -3.6808    0.0749 H         1 <0>         0.1093
     55 H20         0.1964   -2.0065    1.5603 H         1 <0>         0.0933
     56 H21        -1.4263   -2.1190    2.2832 H         1 <0>         0.0749
     57 H22        -1.4592   -2.9785    3.8674 H         1 <0>         0.1330
     58 H23         1.9569   -6.4683    4.4843 H         1 <0>         0.1374
     59 H24         2.4151   -5.6710    1.7247 H         1 <0>         0.0866
     60 H25         1.4892   -7.1364    2.1208 H         1 <0>         0.0795
     61 H26         1.1004   -6.2318   -0.2254 H         1 <0>         0.0842
     62 H27        -0.3776   -6.4125    0.7562 H         1 <0>         0.0376
     63 H28         1.6951   -7.3496    6.3644 H         1 <0>         0.0564
     64 H29         2.9738   -6.1142    6.2795 H         1 <0>         0.0569
     65 H30         2.3112   -6.6024    7.8578 H         1 <0>         0.1049
     66 H31        -1.3809   -1.6579    5.4887 H         1 <0>         0.0524
     67 H32        -2.6602   -2.8923    5.5778 H         1 <0>         0.0519
     68 H33        -2.1586   -2.0226    7.0476 H         1 <0>         0.1032
     69 H34        -5.7830   -7.5510    0.0670 H         1 <0>         0.1110
     70 H35        -4.6983   -6.5915   -0.9679 H         1 <0>         0.0579
     71 H36        -5.0777   -6.0362    0.6801 H         1 <0>         0.0573
     72 H37        -9.4255   -3.1251   -3.2242 H         1 <0>         0.0606
     73 H38       -10.6378   -3.9934   -2.2522 H         1 <0>         0.1112
     74 H39        -9.8062   -2.5724   -1.5756 H         1 <0>         0.0602
     75 H40        -3.9904   -0.3038   -0.4590 H         1 <0>         0.4222
     76 H41        -0.0639   -4.2248   -0.4234 H         1 <0>         0.3395
@<TRIPOS>BOND
     1    1    2 1
     2    1   40 1
     3    1   41 1
     4    1   42 1
     5    2    3 1
     6    2   43 1
     7    2   44 1
     8    3    4 1
     9    3   18 1
    10    3    5 1
    11    5    6 1
    12    5   45 1
    13    5   46 1
    14    6   15 1
    15    6    7 1
    16    6   75 1
    17    7    8 1
    18    7   47 1
    19    7   48 1
    20    8    9 1
    21    8   49 1
    22    8   50 1
    23    9   14 ar
    24    9   10 ar
    25   10   11 ar
    26   10   51 1
    27   11   12 ar
    28   11   38 1
    29   12   13 ar
    30   12   36 1
    31   13   14 ar
    32   13   52 1
    33   14   15 1
    34   15   16 1
    35   15   17 1
    36   17   18 1
    37   17   53 1
    38   17   54 1
    39   18   19 1
    40   18   20 1
    41   20   21 1
    42   20   55 1
    43   20   56 1
    44   21   22 1
    45   21   31 1
    46   21   23 1
    47   23   28 ar
    48   23   24 ar
    49   24   25 ar
    50   24   57 1
    51   25   26 ar
    52   25   34 1
    53   26   27 ar
    54   26   32 1
    55   27   28 ar
    56   27   58 1
    57   28   29 1
    58   29   30 1
    59   29   59 1
    60   29   60 1
    61   30   31 1
    62   30   61 1
    63   30   62 1
    64   31   76 1
    65   32   33 1
    66   33   63 1
    67   33   64 1
    68   33   65 1
    69   34   35 1
    70   35   66 1
    71   35   67 1
    72   35   68 1
    73   36   37 1
    74   37   69 1
    75   37   70 1
    76   37   71 1
    77   38   39 1
    78   39   72 1
    79   39   73 1
    80   39   74 1
@<TRIPOS>MOLECULE
ZINC00608186
   44    45     0     0     0
SMALL
USER_CHARGES

@<TRIPOS>ATOM
      1 C1         -1.0016   -2.1178    2.0607 C.3       1 <0>        -0.1243
      2 C2          0.3101   -2.3042    1.3424 C.ar      1 <0>         0.0466
      3 C3          0.3531   -3.0317    0.1746 C.ar      1 <0>        -0.2878
      4 C4          1.5540   -3.2123   -0.4988 C.ar      1 <0>         0.2357
      5 C5          2.7389   -2.6511    0.0106 C.ar      1 <0>        -0.3638
      6 C6          2.6984   -1.9087    1.2012 C.ar      1 <0>         0.3555
      7 C7          1.4761   -1.7318    1.8638 C.ar      1 <0>        -0.2859
      8 C8          1.4198   -0.9506    3.1095 C.2       1 <0>         0.5650
      9 O1          1.5771   -1.5028    4.1808 O.2       1 <0>        -0.4991
     10 O2          1.1938    0.3778    3.0626 O.3       1 <0>        -0.2941
     11 C9          1.0445    1.0408    4.2377 C.ar      1 <0>         0.1408
     12 C10        -0.2285    1.2426    4.7625 C.ar      1 <0>        -0.1322
     13 C11        -0.3910    1.9080    5.9438 C.ar      1 <0>        -0.0249
     14 C12         0.7247    2.3917    6.6353 C.ar      1 <0>        -0.1457
     15 C13         2.0104    2.1898    6.1097 C.ar      1 <0>         0.1637
     16 C14         2.1617    1.5091    4.9130 C.ar      1 <0>        -0.1105
     17 C15         3.5381    1.2826    4.3427 C.3       1 <0>        -0.1114
     18 O3          3.0988    2.6548    6.7723 O.3       1 <0>        -0.4862
     19 C16         0.5510    3.1095    7.9084 C.2       1 <0>         0.5314
     20 O4          0.5498    2.4953    8.9572 O.2       1 <0>        -0.4969
     21 O5          0.3932    4.4481    7.9113 O.3       1 <0>        -0.3424
     22 C17         0.2299    5.0794    9.1828 C.3       1 <0>         0.0312
     23 C18        -1.7740    2.1220    6.5029 C.3       1 <0>        -0.1187
     24 O6          3.8306   -1.3630    1.7028 O.3       1 <0>        -0.6763
     25 C19         4.0071   -2.8405   -0.6966 C.2       1 <0>         0.4003
     26 O7          4.0380   -3.4832   -1.7253 O.2       1 <0>        -0.5054
     27 O8          1.5844   -3.9299   -1.6469 O.3       1 <0>        -0.4906
     28 H1         -1.4941   -1.2187    1.6903 H         1 <0>         0.0744
     29 H2         -1.6405   -2.9824    1.8807 H         1 <0>         0.0709
     30 H3         -0.8189   -2.0174    3.1306 H         1 <0>         0.0604
     31 H4         -0.5537   -3.4654   -0.2205 H         1 <0>         0.1172
     32 H5         -1.0930    0.8710    4.2323 H         1 <0>         0.1419
     33 H6          3.8052    2.1178    3.6953 H         1 <0>         0.0784
     34 H7          4.2604    1.2076    5.1556 H         1 <0>         0.0683
     35 H8          3.5443    0.3585    3.7647 H         1 <0>         0.0879
     36 H9          3.4738    2.0252    7.4032 H         1 <0>         0.3965
     37 H10         1.1076    4.8866    9.7996 H         1 <0>         0.0614
     38 H11         0.1132    6.1540    9.0426 H         1 <0>         0.1030
     39 H12        -0.6559    4.6791    9.6761 H         1 <0>         0.0604
     40 H13        -2.0387    1.2844    7.1481 H         1 <0>         0.0809
     41 H14        -1.7932    3.0460    7.0808 H         1 <0>         0.0655
     42 H15        -2.4903    2.1906    5.6842 H         1 <0>         0.0809
     43 H16         4.9149   -2.4081   -0.3026 H         1 <0>         0.0905
     44 H17         1.4437   -3.4018   -2.4447 H         1 <0>         0.3872
@<TRIPOS>BOND
     1    1    2 1
     2    1   28 1
     3    1   29 1
     4    1   30 1
     5    2    7 ar
     6    2    3 ar
     7    3    4 ar
     8    3   31 1
     9    4    5 ar
    10    4   27 1
    11    5    6 ar
    12    5   25 1
    13    6    7 ar
    14    6   24 1
    15    7    8 1
    16    8    9 2
    17    8   10 1
    18   10   11 1
    19   11   16 ar
    20   11   12 ar
    21   12   13 ar
    22   12   32 1
    23   13   14 ar
    24   13   23 1
    25   14   15 ar
    26   14   19 1
    27   15   16 ar
    28   15   18 1
    29   16   17 1
    30   17   33 1
    31   17   34 1
    32   17   35 1
    33   18   36 1
    34   19   20 2
    35   19   21 1
    36   21   22 1
    37   22   37 1
    38   22   38 1
    39   22   39 1
    40   23   40 1
    41   23   41 1
    42   23   42 1
    43   25   26 2
    44   25   43 1
    45   27   44 1
@<TRIPOS>MOLECULE
ZINC00607911
   51    54     0     0     0
SMALL
USER_CHARGES

@<TRIPOS>ATOM
      1 C1          0.6623    1.4956   -0.0546 C.3       1 <0>         0.0197
      2 N1          0.4476    0.0427   -0.0247 N.3       1 <0>        -0.5352
      3 C2          0.8371   -0.5714   -1.2951 C.3       1 <0>         0.0552
      4 C3          0.3847   -2.0208   -1.3555 C.3       1 <0>        -0.0785
      5 C4          0.5256   -2.7200   -0.0329 C.ar      1 <0>        -0.0232
      6 C5          0.2905   -4.0898    0.0086 C.ar      1 <0>        -0.2032
      7 C6          0.4252   -4.7974    1.1891 C.ar      1 <0>         0.1186
      8 C7          0.7956   -4.1336    2.3532 C.ar      1 <0>         0.0680
      9 C8          1.0123   -2.7581    2.3183 C.ar      1 <0>        -0.0046
     10 C9          0.8858   -2.0530    1.1178 C.ar      1 <0>        -0.0886
     11 C10         1.1698   -0.5737    1.0980 C.3       1 <0>         0.1368
     12 H1          2.2404   -0.4127    0.9712 H         1 <0>         0.0572
     13 C11         0.7160    0.0870    2.3978 C.3       1 <0>        -0.0701
     14 C12         1.2750   -0.6430    3.5888 C.ar      1 <0>        -0.0611
     15 C13         1.4024   -2.0300    3.5492 C.ar      1 <0>        -0.0503
     16 C14         1.8935   -2.7186    4.6547 C.ar      1 <0>        -0.1529
     17 C15         2.2682   -2.0182    5.7883 C.ar      1 <0>         0.0910
     18 C16         2.1537   -0.6308    5.8182 C.ar      1 <0>         0.1113
     19 C17         1.6576    0.0520    4.7177 C.ar      1 <0>        -0.1739
     20 O1          2.5295    0.0565    6.9296 O.3       1 <0>        -0.3043
     21 C18         2.3856    1.4778    6.8930 C.3       1 <0>         0.0249
     22 O2          2.7475   -2.6848    6.8724 O.3       1 <0>        -0.3058
     23 C19         2.8374   -4.1074    6.7718 C.3       1 <0>         0.0260
     24 O3          0.9448   -4.8215    3.5163 O.3       1 <0>        -0.3188
     25 C20        -0.2357   -5.0579    4.2861 C.3       1 <0>         0.0296
     26 O4          0.1957   -6.1377    1.2114 O.3       1 <0>        -0.3062
     27 C21        -0.1818   -6.7518   -0.0225 C.3       1 <0>         0.0245
     28 H2          1.7264    1.7034   -0.1674 H         1 <0>         0.0288
     29 H3          0.1171    1.9263   -0.8944 H         1 <0>         0.0729
     30 H4          0.3029    1.9353    0.8758 H         1 <0>         0.0749
     31 H5          0.3799   -0.0186   -2.1158 H         1 <0>         0.0847
     32 H6          1.9216   -0.5298   -1.3959 H         1 <0>         0.0370
     33 H7         -0.6609   -2.0518   -1.6616 H         1 <0>         0.0860
     34 H8          0.9839   -2.5470   -2.0986 H         1 <0>         0.0830
     35 H9         -0.0014   -4.6080   -0.8929 H         1 <0>         0.1341
     36 H10         1.0622    1.1204    2.4152 H         1 <0>         0.0812
     37 H11        -0.3728    0.0729    2.4466 H         1 <0>         0.0916
     38 H12         1.9816   -3.7947    4.6282 H         1 <0>         0.1695
     39 H13         1.5709    1.1282    4.7443 H         1 <0>         0.1384
     40 H14         2.9883    1.8832    6.0802 H         1 <0>         0.0552
     41 H15         1.3384    1.7329    6.7310 H         1 <0>         0.0555
     42 H16         2.7205    1.9014    7.8398 H         1 <0>         0.1015
     43 H17         1.8463   -4.5220    6.5877 H         1 <0>         0.0544
     44 H18         3.5007   -4.3722    5.9484 H         1 <0>         0.0566
     45 H19         3.2338   -4.5131    7.7025 H         1 <0>         0.1006
     46 H20         0.0344   -5.5350    5.2282 H         1 <0>         0.0932
     47 H21        -0.7334   -4.1096    4.4887 H         1 <0>         0.0472
     48 H22        -0.9086   -5.7095    3.7287 H         1 <0>         0.0518
     49 H23        -1.1066   -6.3023   -0.3841 H         1 <0>         0.0562
     50 H24         0.6073   -6.6020   -0.7593 H         1 <0>         0.0570
     51 H25        -0.3341   -7.8196    0.1348 H         1 <0>         0.1024
@<TRIPOS>BOND
     1    1    2 1
     2    1   28 1
     3    1   29 1
     4    1   30 1
     5    2   11 1
     6    2    3 1
     7    3    4 1
     8    3   31 1
     9    3   32 1
    10    4    5 1
    11    4   33 1
    12    4   34 1
    13    5   10 ar
    14    5    6 ar
    15    6    7 ar
    16    6   35 1
    17    7    8 ar
    18    7   26 1
    19    8    9 ar
    20    8   24 1
    21    9   15 1
    22    9   10 ar
    23   10   11 1
    24   11   12 1
    25   11   13 1
    26   13   14 1
    27   13   36 1
    28   13   37 1
    29   14   19 ar
    30   14   15 ar
    31   15   16 ar
    32   16   17 ar
    33   16   38 1
    34   17   18 ar
    35   17   22 1
    36   18   19 ar
    37   18   20 1
    38   19   39 1
    39   20   21 1
    40   21   40 1
    41   21   41 1
    42   21   42 1
    43   22   23 1
    44   23   43 1
    45   23   44 1
    46   23   45 1
    47   24   25 1
    48   25   46 1
    49   25   47 1
    50   25   48 1
    51   26   27 1
    52   27   49 1
    53   27   50 1
    54   27   51 1
@<TRIPOS>MOLECULE
ZINC00056792
   48    51     0     0     0
SMALL
USER_CHARGES

@<TRIPOS>ATOM
      1 C1          0.5260    1.5151    0.0292 C.3       1 <0>         0.0208
      2 N1          0.3622    0.0543    0.0262 N.3       1 <0>        -0.5340
      3 C2          0.8090   -0.4961   -1.2578 C.3       1 <0>         0.0536
      4 C3          0.4005   -1.9522   -1.3902 C.3       1 <0>        -0.0773
      5 C4          0.5169   -2.6943   -0.0883 C.ar      1 <0>        -0.0327
      6 C5          0.2498   -4.0586   -0.1001 C.ar      1 <0>        -0.1979
      7 C6          0.3184   -4.7956    1.0651 C.ar      1 <0>         0.1085
      8 C7          0.6716   -4.1717    2.2595 C.ar      1 <0>         0.0977
      9 C8          0.9919   -2.8215    2.2712 C.ar      1 <0>        -0.0181
     10 C9          0.8665   -2.0729    1.0881 C.ar      1 <0>        -0.0890
     11 C10         1.0747   -0.5789    1.1416 C.3       1 <0>         0.1376
     12 H1          2.1403   -0.3636    1.0633 H         1 <0>         0.0548
     13 C11         0.5473   -0.0332    2.4691 C.3       1 <0>        -0.0672
     14 C12         1.2236   -0.7557    3.6075 C.ar      1 <0>        -0.0951
     15 C13         1.4709   -2.1251    3.4864 C.ar      1 <0>        -0.0331
     16 C14         2.2253   -2.7592    4.4702 C.ar      1 <0>         0.1178
     17 C15         2.5758   -2.0673    5.6288 C.ar      1 <0>         0.0889
     18 C16         2.2356   -0.7333    5.7744 C.ar      1 <0>        -0.1872
     19 C17         1.5714   -0.0755    4.7531 C.ar      1 <0>        -0.0885
     20 O1          3.2555   -2.7091    6.6172 O.3       1 <0>        -0.3050
     21 C18         3.5853   -1.9454    7.7791 C.3       1 <0>         0.0251
     22 O2          2.6909   -4.0262    4.3069 O.3       1 <0>        -0.4605
     23 O3          0.6275   -4.9049    3.4052 O.3       1 <0>        -0.2982
     24 C19        -0.6273   -4.9702    4.0858 C.3       1 <0>         0.0405
     25 O4          0.0417   -6.1272    1.0513 O.3       1 <0>        -0.3025
     26 C20        -0.3147   -6.7028   -0.2072 C.3       1 <0>         0.0245
     27 H2          1.5841    1.7623   -0.0576 H         1 <0>         0.0286
     28 H3         -0.0174    1.9434   -0.8130 H         1 <0>         0.0735
     29 H4          0.1329    1.9229    0.9605 H         1 <0>         0.0736
     30 H5          0.3612    0.0799   -2.0668 H         1 <0>         0.0846
     31 H6          1.8944   -0.4193   -1.3186 H         1 <0>         0.0372
     32 H7         -0.6328   -2.0014   -1.7331 H         1 <0>         0.0848
     33 H8          1.0411   -2.4339   -2.1289 H         1 <0>         0.0824
     34 H9         -0.0134   -4.5432   -1.0282 H         1 <0>         0.1334
     35 H10         0.7681    1.0269    2.5587 H         1 <0>         0.0835
     36 H11        -0.5259   -0.1983    2.5272 H         1 <0>         0.0892
     37 H12         2.4863   -0.2066    6.6824 H         1 <0>         0.1339
     38 H13         1.3269    0.9714    4.8580 H         1 <0>         0.1316
     39 H14         4.2124   -1.1010    7.4930 H         1 <0>         0.0550
     40 H15         2.6706   -1.5775    8.2439 H         1 <0>         0.0556
     41 H16         4.1246   -2.5751    8.4868 H         1 <0>         0.1018
     42 H17         3.5941   -4.0723    3.9646 H         1 <0>         0.3821
     43 H18        -0.5046   -5.5132    5.0228 H         1 <0>         0.0920
     44 H19        -0.9803   -3.9603    4.2946 H         1 <0>         0.0382
     45 H20        -1.3542   -5.4868    3.4590 H         1 <0>         0.0425
     46 H21        -1.2104   -6.2136   -0.5898 H         1 <0>         0.0551
     47 H22         0.5039   -6.5664   -0.9140 H         1 <0>         0.0559
     48 H23        -0.5093   -7.7674   -0.0777 H         1 <0>         0.1020
@<TRIPOS>BOND
     1    1    2 1
     2    1   27 1
     3    1   28 1
     4    1   29 1
     5    2   11 1
     6    2    3 1
     7    3    4 1
     8    3   30 1
     9    3   31 1
    10    4    5 1
    11    4   32 1
    12    4   33 1
    13    5   10 ar
    14    5    6 ar
    15    6    7 ar
    16    6   34 1
    17    7    8 ar
    18    7   25 1
    19    8    9 ar
    20    8   23 1
    21    9   15 1
    22    9   10 ar
    23   10   11 1
    24   11   12 1
    25   11   13 1
    26   13   14 1
    27   13   35 1
    28   13   36 1
    29   14   19 ar
    30   14   15 ar
    31   15   16 ar
    32   16   17 ar
    33   16   22 1
    34   17   18 ar
    35   17   20 1
    36   18   19 ar
    37   18   37 1
    38   19   38 1
    39   20   21 1
    40   21   39 1
    41   21   40 1
    42   21   41 1
    43   22   42 1
    44   23   24 1
    45   24   43 1
    46   24   44 1
    47   24   45 1
    48   25   26 1
    49   26   46 1
    50   26   47 1
    51   26   48 1
@<TRIPOS>MOLECULE
ZINC85849252
   86    92     0     0     0
SMALL
USER_CHARGES

@<TRIPOS>ATOM
      1 C1         -0.0178    1.4648    0.0101 C.3       1 <0>        -0.0575
      2 N1          0.0021   -0.0041    0.0020 N.4       1 <0>        -0.3804
      3 C2          0.7211   -0.4849   -1.1871 C.3       1 <0>        -0.0036
      4 C3          2.0448    0.2674   -1.3103 C.3       1 <0>        -0.1059
      5 C4          2.7736    0.3222    0.0061 C.ar      1 <0>        -0.0272
      6 C5          4.1068    0.7017    0.0291 C.ar      1 <0>        -0.2119
      7 C6          4.7937    0.7656    1.2308 C.ar      1 <0>         0.1601
      8 C7          4.1453    0.4646    2.4245 C.ar      1 <0>         0.0317
      9 C8          2.8102    0.0903    2.4031 C.ar      1 <0>         0.1710
     10 C9          2.1364   -0.0074    1.1816 C.ar      1 <0>        -0.1808
     11 C10         0.7103   -0.4968    1.1882 C.3       1 <0>         0.0756
     12 H1          0.7153   -1.5873    1.1709 H         1 <0>         0.1536
     13 C11         0.0057    0.0031    2.4505 C.3       1 <0>        -0.0763
     14 C12         0.0187   -1.0871    3.4912 C.ar      1 <0>        -0.0926
     15 C13        -0.2157   -0.8046    4.8227 C.ar      1 <0>        -0.0581
     16 C14        -0.1831   -1.8236    5.7603 C.ar      1 <0>        -0.1548
     17 C15         0.0825   -3.1228    5.3645 C.ar      1 <0>         0.1615
     18 C16         0.3065   -3.4019    4.0183 C.ar      1 <0>        -0.1373
     19 C17         0.2732   -2.3876    3.0901 C.ar      1 <0>        -0.1134
     20 O1          0.1491   -4.1570    6.2232 O.3       1 <0>        -0.2567
     21 C18        -0.1741   -4.0763    7.5277 C.ar      1 <0>         0.1325
     22 C19         0.8084   -4.2738    8.4855 C.ar      1 <0>        -0.1339
     23 C20         0.4553   -4.3070    9.8204 C.ar      1 <0>        -0.0242
     24 C21        -0.8335   -4.0494   10.2201 C.ar      1 <0>        -0.1914
     25 C22        -1.8104   -3.7815    9.2687 C.ar      1 <0>         0.1353
     26 C23        -1.4840   -3.7998    7.9166 C.ar      1 <0>         0.0288
     27 O2         -2.4378   -3.5488    6.9789 O.3       1 <0>        -0.3152
     28 C24        -3.1695   -4.6709    6.4813 C.3       1 <0>         0.0355
     29 O3         -3.0829   -3.5021    9.6587 O.3       1 <0>        -0.3015
     30 C25        -3.3454   -3.5009   11.0634 C.3       1 <0>         0.0220
     31 C26         1.5419   -4.7100   10.7908 C.3       1 <0>        -0.0884
     32 C27         2.3551   -5.8282   10.1397 C.3       1 <0>         0.0794
     33 N2          2.9170   -5.4495    8.8629 N.3       1 <0>        -0.5687
     34 C28         2.2296   -4.4569    8.0601 C.3       1 <0>         0.1499
     35 H2          2.2596   -4.7575    7.0060 H         1 <0>         0.0942
     36 C29         2.9786   -3.1232    8.1823 C.3       1 <0>        -0.0754
     37 C30         2.8516   -2.3415    6.9023 C.ar      1 <0>        -0.0677
     38 C31         2.8641   -0.9577    6.9532 C.ar      1 <0>        -0.1040
     39 C32         2.6922   -0.2235    5.8005 C.ar      1 <0>        -0.1117
     40 C33         2.4928   -0.8721    4.5850 C.ar      1 <0>         0.1034
     41 C34         2.5719   -2.2560    4.5258 C.ar      1 <0>        -0.1179
     42 C35         2.7475   -2.9880    5.6856 C.ar      1 <0>        -0.1033
     43 O4          2.1089   -0.1444    3.5242 O.3       1 <0>        -0.2522
     44 C36         3.2507   -6.6350    8.0621 C.3       1 <0>         0.0365
     45 O5          4.8173    0.5366    3.6057 O.3       1 <0>        -0.4663
     46 O6          6.1057    1.1232    1.2436 O.3       1 <0>        -0.2951
     47 C37         6.7099    1.4186   -0.0173 C.3       1 <0>         0.0200
     48 H3          1.0047    1.8421    0.0024 H         1 <0>         0.1255
     49 H4         -0.5450    1.8259   -0.8730 H         1 <0>         0.1250
     50 H5         -0.5280    1.8163    0.9069 H         1 <0>         0.1252
     51 H6          0.9163   -1.5527   -1.0883 H         1 <0>         0.1324
     52 H7          0.1160   -0.3064   -2.0761 H         1 <0>         0.1396
     53 H8          2.6735   -0.2358   -2.0449 H         1 <0>         0.1234
     54 H9          1.8465    1.2839   -1.6503 H         1 <0>         0.1079
     55 H10         4.6121    0.9481   -0.8931 H         1 <0>         0.1461
     56 H11         0.5267    0.8798    2.8352 H         1 <0>         0.1120
     57 H12        -1.0247    0.2665    2.2121 H         1 <0>         0.0860
     58 H13        -0.4238    0.2089    5.1323 H         1 <0>         0.1238
     59 H14        -0.3649   -1.6039    6.8019 H         1 <0>         0.1235
     60 H15         0.5067   -4.4154    3.7033 H         1 <0>         0.1305
     61 H16         0.4456   -2.6059    2.0465 H         1 <0>         0.1217
     62 H17        -1.0865   -4.0548   11.2700 H         1 <0>         0.1430
     63 H18        -2.4809   -5.3768    6.0170 H         1 <0>         0.0451
     64 H19        -3.6900   -5.1594    7.3050 H         1 <0>         0.0488
     65 H20        -3.8958   -4.3323    5.7424 H         1 <0>         0.0942
     66 H21        -3.1222   -4.4850   11.4756 H         1 <0>         0.0593
     67 H22        -2.7192   -2.7528   11.5495 H         1 <0>         0.0601
     68 H23        -4.3952   -3.2641   11.2367 H         1 <0>         0.1066
     69 H24         2.1874   -3.8564   10.9979 H         1 <0>         0.0936
     70 H25         1.0947   -5.0700   11.7173 H         1 <0>         0.0909
     71 H26         3.1669   -6.1082   10.8111 H         1 <0>         0.0839
     72 H27         1.7086   -6.6938    9.9955 H         1 <0>         0.0364
     73 H28         2.5551   -2.5444    9.0031 H         1 <0>         0.0737
     74 H29         4.0320   -3.3172    8.3846 H         1 <0>         0.0981
     75 H30         3.0084   -0.4538    7.8975 H         1 <0>         0.1271
     76 H31         2.7116    0.8556    5.8399 H         1 <0>         0.1238
     77 H32         2.4960   -2.7612    3.5743 H         1 <0>         0.1232
     78 H33         2.8032   -4.0656    5.6404 H         1 <0>         0.1271
     79 H34         2.3385   -7.1835    7.8275 H         1 <0>         0.0272
     80 H35         3.7357   -6.3237    7.1369 H         1 <0>         0.0679
     81 H36         3.9256   -7.2773    8.6278 H         1 <0>         0.0725
     82 H37         4.7731    1.4039    4.0311 H         1 <0>         0.3909
     83 H38         6.6515    0.5419   -0.6624 H         1 <0>         0.0624
     84 H39         6.1841    2.2504   -0.4861 H         1 <0>         0.0617
     85 H40         7.7548    1.6887    0.1349 H         1 <0>         0.1118
     86 H41        -0.9428   -0.3579   -0.0025 H         1 <0>         0.4307
@<TRIPOS>BOND
     1    1    2 1
     2    1   48 1
     3    1   49 1
     4    1   50 1
     5    2   11 1
     6    2    3 1
     7    2   86 1
     8    3    4 1
     9    3   51 1
    10    3   52 1
    11    4    5 1
    12    4   53 1
    13    4   54 1
    14    5   10 ar
    15    5    6 ar
    16    6    7 ar
    17    6   55 1
    18    7    8 ar
    19    7   46 1
    20    8    9 ar
    21    8   45 1
    22    9   43 1
    23    9   10 ar
    24   10   11 1
    25   11   12 1
    26   11   13 1
    27   13   14 1
    28   13   56 1
    29   13   57 1
    30   14   19 ar
    31   14   15 ar
    32   15   16 ar
    33   15   58 1
    34   16   17 ar
    35   16   59 1
    36   17   18 ar
    37   17   20 1
    38   18   19 ar
    39   18   60 1
    40   19   61 1
    41   20   21 1
    42   21   26 ar
    43   21   22 ar
    44   22   34 1
    45   22   23 ar
    46   23   24 ar
    47   23   31 1
    48   24   25 ar
    49   24   62 1
    50   25   26 ar
    51   25   29 1
    52   26   27 1
    53   27   28 1
    54   28   63 1
    55   28   64 1
    56   28   65 1
    57   29   30 1
    58   30   66 1
    59   30   67 1
    60   30   68 1
    61   31   32 1
    62   31   69 1
    63   31   70 1
    64   32   33 1
    65   32   71 1
    66   32   72 1
    67   33   34 1
    68   33   44 1
    69   34   35 1
    70   34   36 1
    71   36   37 1
    72   36   73 1
    73   36   74 1
    74   37   42 ar
    75   37   38 ar
    76   38   39 ar
    77   38   75 1
    78   39   40 ar
    79   39   76 1
    80   40   41 ar
    81   40   43 1
    82   41   42 ar
    83   41   77 1
    84   42   78 1
    85   44   79 1
    86   44   80 1
    87   44   81 1
    88   45   82 1
    89   46   47 1
    90   47   83 1
    91   47   84 1
    92   47   85 1
@<TRIPOS>MOLECULE
ZINC05998557
   34    36     0     0     0
SMALL
USER_CHARGES

@<TRIPOS>ATOM
      1 C1         -1.3850   -0.2775   -0.1698 C.3       1 <0>         0.0292
      2 O1          0.0073   -0.0038   -0.0008 O.3       1 <0>        -0.3188
      3 C2          0.6122   -0.5321    1.0993 C.2       1 <0>        -0.1698
      4 C3          0.7547   -1.9270    1.2213 C.2       1 <0>         0.3439
      5 O2          0.2955   -2.7281    0.2568 O.2       1 <0>        -0.6490
      6 C4          1.3744   -2.4784    2.3463 C.2       1 <0>        -0.3080
      7 C5          1.8513   -1.6543    3.3472 C.2       1 <0>         0.2099
      8 O3          2.4518   -2.1789    4.4370 O.3       1 <0>        -0.2180
      9 C6          2.9229   -1.3952    5.4202 C.2       1 <0>         0.1717
     10 C7          2.8139   -0.0213    5.3601 C.2       1 <0>        -0.2617
     11 C8          2.2022    0.5783    4.2569 C.2       1 <0>         0.3659
     12 C9          1.7095   -0.2538    3.2270 C.2       1 <0>        -0.3299
     13 C10         1.0887    0.2994    2.0878 C.2       1 <0>         0.2579
     14 O4          0.9570    1.6461    1.9689 O.3       1 <0>        -0.4398
     15 O5          2.0848    1.9223    4.1765 O.3       1 <0>        -0.5718
     16 C11         3.5698   -2.0162    6.5893 C.ar      1 <0>        -0.0423
     17 C12         4.0613   -1.2163    7.6258 C.ar      1 <0>        -0.0779
     18 C13         4.6659   -1.7990    8.7180 C.ar      1 <0>        -0.1310
     19 C14         4.7894   -3.1800    8.7928 C.ar      1 <0>         0.0936
     20 C15         4.3022   -3.9839    7.7630 C.ar      1 <0>         0.0785
     21 C16         3.6889   -3.4075    6.6679 C.ar      1 <0>        -0.0951
     22 O6          4.4259   -5.3360    7.8396 O.3       1 <0>        -0.4846
     23 O7          5.3868   -3.7492    9.8716 O.3       1 <0>        -0.4869
     24 H1         -1.9266    0.0273    0.7257 H         1 <0>         0.0287
     25 H2         -1.7625    0.2768   -1.0291 H         1 <0>         0.0760
     26 H3         -1.5279   -1.3454   -0.3350 H         1 <0>         0.0580
     27 H4          1.4803   -3.5497    2.4333 H         1 <0>         0.1243
     28 H5          3.2001    0.5886    6.1634 H         1 <0>         0.1489
     29 H6          0.4472    1.9247    1.1959 H         1 <0>         0.3871
     30 H7          3.9672   -0.1418    7.5699 H         1 <0>         0.1447
     31 H8          5.0450   -1.1802    9.5178 H         1 <0>         0.1418
     32 H9          3.3064   -4.0293    5.8721 H         1 <0>         0.1479
     33 H10         3.6795   -5.7755    8.2696 H         1 <0>         0.3880
     34 H11         4.7776   -3.9619   10.5919 H         1 <0>         0.3887
@<TRIPOS>BOND
     1    1    2 1
     2    1   24 1
     3    1   25 1
     4    1   26 1
     5    2    3 1
     6    3   13 2
     7    3    4 1
     8    4    5 2
     9    4    6 1
    10    6    7 2
    11    6   27 1
    12    7   12 1
    13    7    8 1
    14    8    9 1
    15    9   10 2
    16    9   16 1
    17   10   11 1
    18   10   28 1
    19   11   12 2
    20   11   15 1
    21   12   13 1
    22   13   14 1
    23   14   29 1
    24   16   21 ar
    25   16   17 ar
    26   17   18 ar
    27   17   30 1
    28   18   19 ar
    29   18   31 1
    30   19   20 ar
    31   19   23 1
    32   20   21 ar
    33   20   22 1
    34   21   32 1
    35   22   33 1
    36   23   34 1
@<TRIPOS>MOLECULE
ZINC00135449
   45    48     0     0     0
SMALL
USER_CHARGES

@<TRIPOS>ATOM
      1 C1          0.6622    1.4955   -0.0548 C.3       1 <0>         0.0195
      2 N1          0.4475    0.0426   -0.0248 N.3       1 <0>        -0.5353
      3 C2          0.8370   -0.5716   -1.2953 C.3       1 <0>         0.0544
      4 C3          0.3847   -2.0210   -1.3556 C.3       1 <0>        -0.0781
      5 C4          0.5256   -2.7201   -0.0330 C.ar      1 <0>        -0.0485
      6 C5          0.2905   -4.0900    0.0085 C.ar      1 <0>        -0.1335
      7 C6          0.4252   -4.7974    1.1891 C.ar      1 <0>         0.0954
      8 C7          0.7956   -4.1336    2.3531 C.ar      1 <0>         0.0779
      9 C8          1.0122   -2.7581    2.3183 C.ar      1 <0>        -0.0371
     10 C9          0.8858   -2.0531    1.1177 C.ar      1 <0>        -0.0564
     11 C10         1.1698   -0.5738    1.0978 C.3       1 <0>         0.1318
     12 H1          2.2403   -0.4127    0.9711 H         1 <0>         0.0599
     13 C11         0.7159    0.0869    2.3976 C.3       1 <0>        -0.0693
     14 C12         1.2749   -0.6430    3.5887 C.ar      1 <0>        -0.0893
     15 C13         1.4023   -2.0299    3.5491 C.ar      1 <0>        -0.0191
     16 C14         1.8935   -2.7186    4.6547 C.ar      1 <0>        -0.1786
     17 C15         2.2681   -2.0181    5.7882 C.ar      1 <0>         0.0962
     18 C16         2.1536   -0.6307    5.8180 C.ar      1 <0>         0.0837
     19 C17         1.6575    0.0521    4.7176 C.ar      1 <0>        -0.1061
     20 O1          2.5293    0.0567    6.9295 O.3       1 <0>        -0.4856
     21 O2          2.7474   -2.6846    6.8724 O.3       1 <0>        -0.3067
     22 C18         2.8374   -4.1072    6.7718 C.3       1 <0>         0.0250
     23 O3          0.9448   -4.8215    3.5163 O.3       1 <0>        -0.3268
     24 C19        -0.2357   -5.0579    4.2861 C.3       1 <0>         0.0323
     25 O4          0.1957   -6.1378    1.2114 O.3       1 <0>        -0.4899
     26 H2          1.7263    1.7033   -0.1676 H         1 <0>         0.0293
     27 H3          0.1169    1.9261   -0.8947 H         1 <0>         0.0738
     28 H4          0.3028    1.9352    0.8756 H         1 <0>         0.0758
     29 H5          0.3799   -0.0188   -2.1159 H         1 <0>         0.0859
     30 H6          1.9216   -0.5299   -1.3961 H         1 <0>         0.0373
     31 H7         -0.6610   -2.0520   -1.6617 H         1 <0>         0.0871
     32 H8          0.9839   -2.5472   -2.0987 H         1 <0>         0.0843
     33 H9         -0.0014   -4.6082   -0.8929 H         1 <0>         0.1362
     34 H10         1.0621    1.1204    2.4150 H         1 <0>         0.0838
     35 H11        -0.3729    0.0728    2.4464 H         1 <0>         0.0916
     36 H12         1.9815   -3.7946    4.6282 H         1 <0>         0.1662
     37 H13         1.5708    1.1283    4.7441 H         1 <0>         0.1395
     38 H14         3.4569    0.3301    6.9280 H         1 <0>         0.3876
     39 H15         3.5006   -4.3721    5.9484 H         1 <0>         0.0568
     40 H16         3.2338   -4.5129    7.7026 H         1 <0>         0.1018
     41 H17         1.8462   -4.5218    6.5877 H         1 <0>         0.0554
     42 H18        -0.7334   -4.1096    4.4887 H         1 <0>         0.0480
     43 H19        -0.9086   -5.7095    3.7287 H         1 <0>         0.0564
     44 H20         0.0344   -5.5350    5.2282 H         1 <0>         0.0939
     45 H21         0.9800   -6.6741    1.0317 H         1 <0>         0.3936
@<TRIPOS>BOND
     1    1    2 1
     2    1   26 1
     3    1   27 1
     4    1   28 1
     5    2   11 1
     6    2    3 1
     7    3    4 1
     8    3   29 1
     9    3   30 1
    10    4    5 1
    11    4   31 1
    12    4   32 1
    13    5   10 ar
    14    5    6 ar
    15    6    7 ar
    16    6   33 1
    17    7    8 ar
    18    7   25 1
    19    8    9 ar
    20    8   23 1
    21    9   15 1
    22    9   10 ar
    23   10   11 1
    24   11   12 1
    25   11   13 1
    26   13   14 1
    27   13   34 1
    28   13   35 1
    29   14   19 ar
    30   14   15 ar
    31   15   16 ar
    32   16   17 ar
    33   16   36 1
    34   17   18 ar
    35   17   21 1
    36   18   19 ar
    37   18   20 1
    38   19   37 1
    39   20   38 1
    40   21   22 1
    41   22   39 1
    42   22   40 1
    43   22   41 1
    44   23   24 1
    45   24   42 1
    46   24   43 1
    47   24   44 1
    48   25   45 1
@<TRIPOS>MOLECULE
ZINC14594077
   62    63     0     0     0
SMALL
USER_CHARGES
(2R,6S)-2,5-dihydroxy-6-methoxy-4,6-bis(3-methylbut-2-enyl)-2-[(E)-3-phenylprop-2-enoyl]cyclohex-4-ene-1,3-dione
@<TRIPOS>ATOM
      1 C1         -1.9653    1.8182    1.5334 C.3       1 <0>        -0.1193
      2 C2         -0.6419    2.5342    1.6161 C.2       1 <0>        -0.1129
      3 C3          0.4739    1.8704    1.4414 C.2       1 <0>        -0.1685
      4 C4          1.7984    2.5431    1.6951 C.3       1 <0>        -0.0582
      5 C5          2.6203    1.6966    2.6327 C.3       1 <0>        -0.1775
      6 C6          3.4944    0.8285    2.1018 C.2       1 <0>         0.3106
      7 C7          4.3765   -0.0384    2.9624 C.3       1 <0>         0.0769
      8 C8          3.7152   -0.2012    4.3150 C.2       1 <0>         0.3535
      9 O1          3.5786   -1.2885    4.8224 O.2       1 <0>        -0.3515
     10 C9          3.2327    1.0588    5.0048 C.3       1 <0>         0.0007
     11 C10         2.4259    1.8552    4.0092 C.2       1 <0>         0.3749
     12 O2          1.5946    2.6458    4.4088 O.2       1 <0>        -0.4020
     13 C11         4.4141    1.8711    5.4690 C.2       1 <0>         0.3820
     14 O3          4.8255    2.7885    4.7880 O.2       1 <0>        -0.4418
     15 C12         5.0419    1.5657    6.6943 C.2       1 <0>        -0.2710
     16 C13         6.1031    2.2952    7.1113 C.2       1 <0>         0.0454
     17 C14         6.7577    1.9769    8.3888 C.ar      1 <0>        -0.1041
     18 C15         6.2831    0.9242    9.1792 C.ar      1 <0>        -0.0854
     19 C16         6.9058    0.6289   10.3732 C.ar      1 <0>        -0.1251
     20 C17         7.9907    1.3774   10.7960 C.ar      1 <0>        -0.0921
     21 C18         8.4628    2.4239   10.0227 C.ar      1 <0>        -0.1264
     22 C19         7.8550    2.7286    8.8234 C.ar      1 <0>        -0.0813
     23 O4          2.4141    0.7136    6.1241 O.3       1 <0>        -0.4898
     24 C20         5.7468    0.6197    3.1361 C.3       1 <0>        -0.1003
     25 C21         6.4474    0.6807    1.8032 C.2       1 <0>        -0.1586
     26 C22         6.8510    1.8326    1.3275 C.2       1 <0>        -0.1180
     27 C23         6.7101    3.0820    2.1583 C.3       1 <0>        -0.1234
     28 C24         7.4564    1.9083   -0.0505 C.3       1 <0>        -0.1160
     29 O5          4.5335   -1.3187    2.3475 O.3       1 <0>        -0.3156
     30 C25         3.3041   -2.0148    2.1324 C.3       1 <0>         0.0025
     31 O6          3.5894    0.7326    0.7621 O.2       1 <0>        -0.4477
     32 C26        -0.6020    4.0137    1.8997 C.3       1 <0>        -0.1279
     33 H1         -2.2422    1.4512    2.5217 H         1 <0>         0.0694
     34 H2         -2.7296    2.5076    1.1746 H         1 <0>         0.0635
     35 H3         -1.8815    0.9780    0.8442 H         1 <0>         0.0636
     36 H4          0.4448    0.8425    1.1113 H         1 <0>         0.1128
     37 H5          2.3316    2.6629    0.7519 H         1 <0>         0.1045
     38 H6          1.6288    3.5220    2.1435 H         1 <0>         0.1011
     39 H7          4.6761    0.7498    7.2999 H         1 <0>         0.1489
     40 H8          6.4690    3.1112    6.5056 H         1 <0>         0.1419
     41 H9          5.4339    0.3421    8.8528 H         1 <0>         0.1321
     42 H10         6.5438   -0.1863   10.9822 H         1 <0>         0.1306
     43 H11         8.4717    1.1433   11.7342 H         1 <0>         0.1287
     44 H12         9.3098    3.0031   10.3597 H         1 <0>         0.1304
     45 H13         8.2249    3.5450    8.2209 H         1 <0>         0.1311
     46 H14         2.0535    1.4758    6.5975 H         1 <0>         0.4003
     47 H15         5.6181    1.6297    3.5254 H         1 <0>         0.1100
     48 H16         6.3450    0.0346    3.8345 H         1 <0>         0.1027
     49 H17         6.6166   -0.2252    1.2402 H         1 <0>         0.1251
     50 H18         7.3146    2.9886    3.0604 H         1 <0>         0.0700
     51 H19         7.0491    3.9423    1.5812 H         1 <0>         0.0659
     52 H20         5.6645    3.2189    2.4342 H         1 <0>         0.0601
     53 H21         6.6699    2.0879   -0.7835 H         1 <0>         0.0714
     54 H22         8.1788    2.7238   -0.0856 H         1 <0>         0.0628
     55 H23         7.9583    0.9681   -0.2790 H         1 <0>         0.0650
     56 H24         3.5087   -2.9768    1.6625 H         1 <0>         0.1070
     57 H25         2.8058   -2.1760    3.0883 H         1 <0>         0.0585
     58 H26         2.6602   -1.4226    1.4823 H         1 <0>         0.0532
     59 H27         3.4697    2.1749    2.8557 H         1 <0>         0.1531
     60 H28         0.4245    4.3715    1.8194 H         1 <0>         0.0671
     61 H29        -1.2273    4.5390    1.1778 H         1 <0>         0.0682
     62 H30        -0.9742    4.2008    2.9069 H         1 <0>         0.0685
@<TRIPOS>BOND
     1    1    2 1
     2    1   33 1
     3    1   34 1
     4    1   35 1
     5    2    3 2
     6    2   32 1
     7    3    4 1
     8    3   36 1
     9    4   37 1
    10    4   38 1
    11    4    5 1
    12    5   59 1
    13    5    6 1
    14    5   11 1
    15    6    7 1
    16    6   31 2
    17    7    8 1
    18    7   24 1
    19    7   29 1
    20    8    9 2
    21    8   10 1
    22   10   11 1
    23   10   13 1
    24   10   23 1
    25   11   12 2
    26   13   14 2
    27   13   15 1
    28   15   16 2
    29   15   39 1
    30   16   17 1
    31   16   40 1
    32   17   22 ar
    33   17   18 ar
    34   18   19 ar
    35   18   41 1
    36   19   20 ar
    37   19   42 1
    38   20   21 ar
    39   20   43 1
    40   21   22 ar
    41   21   44 1
    42   22   45 1
    43   23   46 1
    44   24   25 1
    45   24   47 1
    46   24   48 1
    47   25   26 2
    48   25   49 1
    49   26   27 1
    50   26   28 1
    51   27   50 1
    52   27   51 1
    53   27   52 1
    54   28   53 1
    55   28   54 1
    56   28   55 1
    57   29   30 1
    58   30   56 1
    59   30   57 1
    60   30   58 1
    61   32   60 1
    62   32   61 1
    63   32   62 1
@<TRIPOS>MOLECULE
ZINC00900216
   32    34     0     0     0
SMALL
USER_CHARGES

@<TRIPOS>ATOM
      1 C1         -0.0173    1.4248    0.0099 C.3       1 <0>         0.0223
      2 O1          0.0021   -0.0041    0.0020 O.3       1 <0>        -0.2997
      3 C2          0.6062   -0.6076   -1.0565 C.ar      1 <0>         0.1195
      4 C3          1.1614    0.1547   -2.0420 C.ar      1 <0>        -0.1591
      5 C4          1.7859   -0.4690   -3.1352 C.ar      1 <0>        -0.1243
      6 C5          1.8350   -1.8844   -3.2068 C.ar      1 <0>         0.2033
      7 C6          1.2531   -2.6402   -2.1736 C.ar      1 <0>        -0.1828
      8 C7          0.6575   -2.0078   -1.1213 C.ar      1 <0>         0.1586
      9 O2          0.1016   -2.7452   -0.1244 O.3       1 <0>        -0.2976
     10 C8          0.1847   -4.1667   -0.2452 C.3       1 <0>         0.0196
     11 N1          2.4252   -2.4921   -4.2414 N.ar      1 <0>        -0.4749
     12 C9          2.9800   -1.8107   -5.2266 C.ar      1 <0>         0.3090
     13 C10         2.9684   -0.3993   -5.2203 C.ar      1 <0>        -0.2023
     14 C11         2.3687    0.2906   -4.1704 C.ar      1 <0>         0.2076
     15 O3          2.3454    1.6457   -4.1444 O.3       1 <0>        -0.3259
     16 C12         3.4415    2.3012   -3.5035 C.3       1 <0>         0.0342
     17 C13         3.6628    0.0077   -6.4489 C.2       1 <0>        -0.1953
     18 C14         4.0196   -1.1244   -7.0667 C.2       1 <0>         0.0261
     19 O4          3.6204   -2.1925   -6.3520 O.3       1 <0>        -0.1923
     20 H1          1.0053    1.8021    0.0021 H         1 <0>         0.0572
     21 H2         -0.5445    1.7859   -0.8732 H         1 <0>         0.0596
     22 H3         -0.5275    1.7763    0.9067 H         1 <0>         0.1062
     23 H4          1.1209    1.2323   -1.9825 H         1 <0>         0.1493
     24 H5          1.2805   -3.7192   -2.2112 H         1 <0>         0.1568
     25 H6         -0.3177   -4.4837   -1.1591 H         1 <0>         0.0622
     26 H7          1.2317   -4.4675   -0.2831 H         1 <0>         0.0619
     27 H8         -0.2964   -4.6331    0.6145 H         1 <0>         0.1069
     28 H9          3.2986    3.3807   -3.5532 H         1 <0>         0.1040
     29 H10         3.4918    1.9891   -2.4603 H         1 <0>         0.0518
     30 H11         4.3700    2.0339   -4.0079 H         1 <0>         0.0537
     31 H12         3.8478    1.0170   -6.7858 H         1 <0>         0.1648
     32 H13         4.5517   -1.1739   -8.0052 H         1 <0>         0.2196
@<TRIPOS>BOND
     1    1    2 1
     2    1   20 1
     3    1   21 1
     4    1   22 1
     5    2    3 1
     6    3    8 ar
     7    3    4 ar
     8    4    5 ar
     9    4   23 1
    10    5   14 ar
    11    5    6 ar
    12    6    7 ar
    13    6   11 ar
    14    7    8 ar
    15    7   24 1
    16    8    9 1
    17    9   10 1
    18   10   25 1
    19   10   26 1
    20   10   27 1
    21   11   12 ar
    22   12   19 1
    23   12   13 ar
    24   13   14 ar
    25   13   17 1
    26   14   15 1
    27   15   16 1
    28   16   28 1
    29   16   29 1
    30   16   30 1
    31   17   18 2
    32   17   31 1
    33   18   19 1
    34   18   32 1
@<TRIPOS>MOLECULE
ZINC00035526
   46    48     0     0     0
SMALL
USER_CHARGES

@<TRIPOS>ATOM
      1 C1         -0.0187    1.5258    0.0104 C.3       1 <0>        -0.1747
      2 C2          0.0021   -0.0041    0.0020 C.3       1 <0>         0.1002
      3 C3          0.7421   -0.5109    1.2415 C.3       1 <0>        -0.1928
      4 C4         -1.4333   -0.5336    0.0129 C.3       1 <0>         0.1271
      5 H1         -1.9334   -0.2470   -0.9122 H         1 <0>         0.1184
      6 C5         -1.4133   -2.0590    0.1302 C.3       1 <0>         0.0233
      7 O1         -2.7463   -2.5625    0.0234 O.3       1 <0>        -0.2860
      8 C6         -2.9058   -3.9103    0.1079 C.ar      1 <0>         0.1440
      9 C7         -1.7879   -4.7270    0.2968 C.ar      1 <0>        -0.1856
     10 C8         -1.9191   -6.0784    0.3847 C.ar      1 <0>        -0.0407
     11 C9         -3.1910   -6.6671    0.2856 C.ar      1 <0>        -0.1563
     12 C10        -4.3347   -5.8515    0.0943 C.ar      1 <0>         0.2071
     13 C11        -4.1695   -4.4541    0.0116 C.ar      1 <0>         0.0636
     14 O2         -5.2498   -3.6469   -0.1671 O.3       1 <0>        -0.3025
     15 C12        -5.6278   -3.3576   -1.5145 C.3       1 <0>         0.0383
     16 N1         -5.5509   -6.3977   -0.0021 N.ar      1 <0>        -0.4672
     17 C13        -5.7376   -7.7022    0.0754 C.ar      1 <0>         0.3216
     18 C14        -4.6445   -8.5746    0.2651 C.ar      1 <0>        -0.2096
     19 C15        -3.3534   -8.0652    0.3730 C.ar      1 <0>         0.2222
     20 O3         -2.2893   -8.8847    0.5551 O.3       1 <0>        -0.3257
     21 C16        -1.9225   -9.1815    1.9040 C.3       1 <0>         0.0345
     22 C17        -5.2184   -9.9261    0.3022 C.2       1 <0>        -0.1940
     23 C18        -6.5382   -9.7740    0.1412 C.2       1 <0>         0.0268
     24 O4         -6.8455   -8.4706    0.0080 O.3       1 <0>        -0.1911
     25 O5         -2.1371    0.0205    1.1263 O.3       1 <0>        -0.5370
     26 O6          0.6709   -0.4649   -1.1737 O.3       1 <0>        -0.5573
     27 H2          1.0039    1.9031    0.0027 H         1 <0>         0.0620
     28 H3         -0.5459    1.8868   -0.8726 H         1 <0>         0.0676
     29 H4         -0.5289    1.8773    0.9072 H         1 <0>         0.0758
     30 H5          0.2319   -0.1594    2.1383 H         1 <0>         0.0710
     31 H6          0.7568   -1.6008    1.2356 H         1 <0>         0.0675
     32 H7          1.7647   -0.1336    1.2338 H         1 <0>         0.0696
     33 H8         -0.8018   -2.4769   -0.6695 H         1 <0>         0.0841
     34 H9         -0.9936   -2.3437    1.0951 H         1 <0>         0.0695
     35 H10        -0.8077   -4.2802    0.3737 H         1 <0>         0.1423
     36 H11        -1.0465   -6.6980    0.5302 H         1 <0>         0.1429
     37 H12        -5.8674   -4.2865   -2.0320 H         1 <0>         0.0451
     38 H13        -6.5013   -2.7057   -1.5149 H         1 <0>         0.0947
     39 H14        -4.8028   -2.8600   -2.0244 H         1 <0>         0.0439
     40 H15        -1.0581   -9.8455    1.9077 H         1 <0>         0.1053
     41 H16        -1.6726   -8.2570    2.4244 H         1 <0>         0.0535
     42 H17        -2.7569   -9.6685    2.4087 H         1 <0>         0.0544
     43 H18        -4.6833  -10.8551    0.4327 H         1 <0>         0.1657
     44 H19        -7.2546  -10.5820    0.1211 H         1 <0>         0.2204
     45 H20        -1.7471   -0.1945    1.9846 H         1 <0>         0.3737
     46 H21         1.5879   -0.1667   -1.2470 H         1 <0>         0.3841
@<TRIPOS>BOND
     1    1    2 1
     2    1   27 1
     3    1   28 1
     4    1   29 1
     5    2    3 1
     6    2    4 1
     7    2   26 1
     8    3   30 1
     9    3   31 1
    10    3   32 1
    11    4    5 1
    12    4    6 1
    13    4   25 1
    14    6    7 1
    15    6   33 1
    16    6   34 1
    17    7    8 1
    18    8   13 ar
    19    8    9 ar
    20    9   10 ar
    21    9   35 1
    22   10   11 ar
    23   10   36 1
    24   11   19 ar
    25   11   12 ar
    26   12   13 ar
    27   12   16 ar
    28   13   14 1
    29   14   15 1
    30   15   37 1
    31   15   38 1
    32   15   39 1
    33   16   17 ar
    34   17   24 1
    35   17   18 ar
    36   18   19 ar
    37   18   22 1
    38   19   20 1
    39   20   21 1
    40   21   40 1
    41   21   41 1
    42   21   42 1
    43   22   23 2
    44   22   43 1
    45   23   24 1
    46   23   44 1
    47   25   45 1
    48   26   46 1
@<TRIPOS>MOLECULE
ZINC00035525
   33    35     0     0     0
SMALL
USER_CHARGES

@<TRIPOS>ATOM
      1 C1         -0.0173    1.4248    0.0099 C.3       1 <0>         0.0102
      2 O1          0.0021   -0.0041    0.0020 O.3       1 <0>        -0.2785
      3 C2          0.6061   -0.6074   -1.0563 C.ar      1 <0>         0.2218
      4 C3          1.1743    0.1751   -2.0649 C.ar      1 <0>        -0.1831
      5 C4          1.7847   -0.4028   -3.1348 C.ar      1 <0>         0.0023
      6 C5          1.8489   -1.8029   -3.2333 C.ar      1 <0>        -0.1575
      7 C6          1.2774   -2.6102   -2.2176 C.ar      1 <0>         0.2269
      8 C7          0.6556   -1.9843   -1.1183 C.ar      1 <0>         0.0082
      9 O2          0.1030   -2.7341   -0.1269 O.3       1 <0>        -0.3078
     10 C8         -1.2690   -3.1032   -0.2805 C.3       1 <0>         0.0173
     11 N1          1.3307   -3.9434   -2.2983 N.ar      1 <0>        -0.4685
     12 C9          1.9098   -4.5581   -3.3129 C.ar      1 <0>         0.3520
     13 C10         2.4993   -3.8177   -4.3600 C.ar      1 <0>        -0.2083
     14 C11         2.4755   -2.4261   -4.3323 C.ar      1 <0>         0.3473
     15 O3          3.0352   -1.6954   -5.3273 O.3       1 <0>        -0.3179
     16 C12         4.4107   -1.3391   -5.1756 C.3       1 <0>         0.0319
     17 C13         3.0360   -4.8142   -5.2959 C.2       1 <0>        -0.1517
     18 C14         2.7458   -6.0108   -4.7717 C.2       1 <0>         0.0351
     19 O4          2.0852   -5.8635   -3.6085 O.3       1 <0>        -0.1669
     20 H1          1.0053    1.8021    0.0021 H         1 <0>         0.0736
     21 H2         -0.5445    1.7859   -0.8732 H         1 <0>         0.0728
     22 H3         -0.5275    1.7763    0.9067 H         1 <0>         0.1224
     23 H4          1.1280    1.2518   -1.9946 H         1 <0>         0.1691
     24 H5          2.2192    0.2140   -3.9076 H         1 <0>         0.1709
     25 H6         -1.8821   -2.2043   -0.3443 H         1 <0>         0.0649
     26 H7         -1.3876   -3.6894   -1.1918 H         1 <0>         0.0458
     27 H8         -1.5836   -3.6975    0.5774 H         1 <0>         0.1153
     28 H9          5.0143   -2.2437   -5.1015 H         1 <0>         0.0698
     29 H10         4.7327   -0.7572   -6.0393 H         1 <0>         0.1273
     30 H11         4.5344   -0.7446   -4.2704 H         1 <0>         0.0682
     31 H12         3.5590   -4.6204   -6.2208 H         1 <0>         0.1925
     32 H13         3.0047   -6.9594   -5.2184 H         1 <0>         0.2458
     33 H14         0.9326   -4.4744   -1.5908 H         1 <0>         0.4488
@<TRIPOS>BOND
     1    1    2 1
     2    1   20 1
     3    1   21 1
     4    1   22 1
     5    2    3 1
     6    3    8 ar
     7    3    4 ar
     8    4    5 ar
     9    4   23 1
    10    5    6 ar
    11    5   24 1
    12    6   14 ar
    13    6    7 ar
    14    7    8 ar
    15    7   11 ar
    16    8    9 1
    17    9   10 1
    18   10   25 1
    19   10   26 1
    20   10   27 1
    21   11   12 ar
    22   11   33 1
    23   12   19 1
    24   12   13 ar
    25   13   14 ar
    26   13   17 1
    27   14   15 1
    28   15   16 1
    29   16   28 1
    30   16   29 1
    31   16   30 1
    32   17   18 2
    33   17   31 1
    34   18   19 1
    35   18   32 1
@<TRIPOS>MOLECULE
ZINC01724917
   27    30     0     0     0
SMALL
USER_CHARGES
10H-indolo[3,2-b]quinoline
@<TRIPOS>ATOM
      1 C1         -1.3948   10.1034    0.0701 C.ar      1 <0>        -0.1065
      2 C2         -0.0065    9.9737    0.0566 C.ar      1 <0>        -0.1113
      3 C3          0.5844    8.7489    0.0429 C.ar      1 <0>        -0.0823
      4 C4         -0.2122    7.5878    0.0442 C.ar      1 <0>         0.1167
      5 C5         -1.6247    7.7227    0.0584 C.ar      1 <0>        -0.0671
      6 C6         -2.1989    9.0057    0.0713 C.ar      1 <0>        -0.1063
      7 C7         -2.4259    6.5684    0.0597 C.ar      1 <0>        -0.1009
      8 C8         -1.7977    5.3374    0.0479 C.ar      1 <0>         0.0949
      9 C9         -0.3859    5.2781    0.0341 C.ar      1 <0>         0.1498
     10 N1          0.3464    6.3770    0.0327 N.ar      1 <0>        -0.4374
     11 C10        -0.0363    3.8436    0.0231 C.ar      1 <0>        -0.1169
     12 C11         1.1762    3.1574    0.0078 C.ar      1 <0>        -0.0363
     13 C12         1.1823    1.7792    0.0003 C.ar      1 <0>        -0.1580
     14 C13        -0.0126    1.0758    0.0080 C.ar      1 <0>        -0.0669
     15 C14        -1.2189    1.7425    0.0173 C.ar      1 <0>        -0.1530
     16 C15        -1.2459    3.1340    0.0308 C.ar      1 <0>         0.1785
     17 N2         -2.2898    4.0425    0.0456 N.pl3     1 <0>        -0.6343
     18 H1         -3.3756    3.8668    0.0550 H         1 <0>         0.4470
     19 H2         -1.8377   11.0883    0.0800 H         1 <0>         0.1286
     20 H3          0.6097   10.8606    0.0562 H         1 <0>         0.1308
     21 H4          1.6612    8.6671    0.0325 H         1 <0>         0.1357
     22 H5         -3.2729    9.1196    0.0818 H         1 <0>         0.1301
     23 H6         -3.5034    6.6411    0.0704 H         1 <0>         0.1411
     24 H7          2.1079    3.7035    0.0022 H         1 <0>         0.1319
     25 H8          2.1210    1.2453   -0.0119 H         1 <0>         0.1311
     26 H9          0.0021   -0.0041    0.0020 H         1 <0>         0.1326
     27 H10        -2.1437    1.1847    0.0187 H         1 <0>         0.1282
@<TRIPOS>BOND
     1    1    6 ar
     2    1    2 ar
     3    1   19 1
     4    2    3 ar
     5    2   20 1
     6    3    4 ar
     7    3   21 1
     8    4   10 ar
     9    4    5 ar
    10    5    6 ar
    11    5    7 ar
    12    6   22 1
    13    7    8 ar
    14    7   23 1
    15    8   17 1
    16    8    9 ar
    17    9   10 ar
    18    9   11 1
    19   11   16 ar
    20   11   12 ar
    21   12   13 ar
    22   12   24 1
    23   13   14 ar
    24   13   25 1
    25   14   15 ar
    26   14   26 1
    27   15   16 ar
    28   15   27 1
    29   16   17 1
    30   17   18 1
@<TRIPOS>MOLECULE
ZINC00058188
   35    37     0     0     0
SMALL
USER_CHARGES

@<TRIPOS>ATOM
      1 C1         -0.0173    1.4248    0.0099 C.3       1 <0>         0.0547
      2 O1          0.0021   -0.0041    0.0020 O.3       1 <0>        -0.3155
      3 C2          0.6045   -0.6058   -1.0534 C.ar      1 <0>         0.1768
      4 C3         -0.1296   -0.9252   -2.1987 C.ar      1 <0>        -0.1686
      5 C4         -1.5333   -0.7600   -2.5951 C.2       1 <0>        -0.1913
      6 C5         -1.6342   -1.2701   -3.8298 C.2       1 <0>        -0.0129
      7 O2         -0.4396   -1.7334   -4.2381 O.3       1 <0>        -0.1974
      8 C6          0.4989   -1.5478   -3.2890 C.ar      1 <0>         0.0651
      9 C7          1.8589   -1.8456   -3.2215 C.ar      1 <0>        -0.1322
     10 C8          2.5787   -1.5369   -2.1060 C.ar      1 <0>        -0.0444
     11 C9          1.9692   -0.9088   -1.0109 C.ar      1 <0>        -0.1561
     12 C10         2.7641   -0.5749    0.1868 C.2       1 <0>         0.4090
     13 C11         4.1416   -0.8815    0.2279 C.2       1 <0>        -0.5098
     14 C12         4.8746   -0.5735    1.3324 C.2       1 <0>         0.3199
     15 O3          4.2837    0.0260    2.3902 O.3       1 <0>        -0.6368
     16 C13         6.3143   -0.8940    1.3754 C.ar      1 <0>        -0.0744
     17 C14         6.9295   -1.5084    0.2817 C.ar      1 <0>        -0.0999
     18 C15         8.2757   -1.8046    0.3287 C.ar      1 <0>        -0.1364
     19 C16         9.0168   -1.4947    1.4556 C.ar      1 <0>        -0.1310
     20 C17         8.4140   -0.8866    2.5428 C.ar      1 <0>        -0.1359
     21 C18         7.0700   -0.5793    2.5076 C.ar      1 <0>        -0.0878
     22 O4          2.2313   -0.0343    1.1406 O.2       1 <0>        -0.4861
     23 H1          1.0053    1.8021    0.0021 H         1 <0>         0.0527
     24 H2         -0.5445    1.7859   -0.8732 H         1 <0>         0.0310
     25 H3         -0.5275    1.7763    0.9067 H         1 <0>         0.0889
     26 H4         -2.3251   -0.3169   -2.0094 H         1 <0>         0.1548
     27 H5         -2.5429   -1.3046   -4.4124 H         1 <0>         0.2048
     28 H6          2.3454   -2.3245   -4.0584 H         1 <0>         0.1308
     29 H7          3.6316   -1.7742   -2.0674 H         1 <0>         0.1472
     30 H8          6.3523   -1.7511   -0.5983 H         1 <0>         0.1263
     31 H9          8.7526   -2.2798   -0.5158 H         1 <0>         0.1150
     32 H10        10.0706   -1.7289    1.4869 H         1 <0>         0.1123
     33 H11         8.9984   -0.6483    3.4192 H         1 <0>         0.1147
     34 H12         6.6018   -0.1007    3.3551 H         1 <0>         0.1277
     35 H13         4.6136   -1.3605   -0.6172 H         1 <0>         0.0849
@<TRIPOS>BOND
     1    1    2 1
     2    1   23 1
     3    1   24 1
     4    1   25 1
     5    2    3 1
     6    3   11 ar
     7    3    4 ar
     8    4    8 ar
     9    4    5 1
    10    5    6 2
    11    5   26 1
    12    6    7 1
    13    6   27 1
    14    7    8 1
    15    8    9 ar
    16    9   10 ar
    17    9   28 1
    18   10   11 ar
    19   10   29 1
    20   11   12 1
    21   12   13 1
    22   12   22 2
    23   13   35 1
    24   13   14 2
    25   14   16 1
    26   14   15 1
    27   16   21 ar
    28   16   17 ar
    29   17   18 ar
    30   17   30 1
    31   18   19 ar
    32   18   31 1
    33   19   20 ar
    34   19   32 1
    35   20   21 ar
    36   20   33 1
    37   21   34 1
@<TRIPOS>MOLECULE
ZINC33832344
   38    42     0     0     0
SMALL
USER_CHARGES

@<TRIPOS>ATOM
      1 C1         -0.0167    1.3802    0.0096 C.ar      1 <0>        -0.1016
      2 C2          1.2054    2.0534    0.0016 C.ar      1 <0>        -0.0967
      3 C3          2.3999    1.3569   -0.0340 C.ar      1 <0>        -0.0617
      4 C4          2.4268   -0.0365   -0.0174 C.ar      1 <0>        -0.0914
      5 C5          1.2161   -0.7086   -0.0045 C.ar      1 <0>         0.0222
      6 C6          0.0021   -0.0041    0.0020 C.ar      1 <0>         0.0320
      7 O1         -1.0172   -0.8930    0.0029 O.3       1 <0>        -0.3071
      8 C7         -0.4329   -2.1527   -0.3885 C.3       1 <0>         0.2114
      9 O2          0.9502   -2.0344    0.0052 O.3       1 <0>        -0.3052
     10 C8          3.6908    2.0928   -0.1433 C.3       1 <0>        -0.0621
     11 H1          3.9071    2.2309   -1.2027 H         1 <0>         0.0900
     12 C9          4.8937    1.4154    0.4898 C.3       1 <0>         0.1297
     13 H2          4.7481    1.3622    1.5687 H         1 <0>         0.0704
     14 C10         6.1755    2.1904    0.1942 C.3       1 <0>         0.1129
     15 H3          6.8006    2.1791    1.0871 H         1 <0>         0.0665
     16 C11         5.9534    3.6175   -0.2144 C.2       1 <0>        -0.1798
     17 C12         4.8009    4.1986   -0.1440 C.2       1 <0>        -0.1127
     18 C13         3.5941    3.4838    0.4957 C.3       1 <0>         0.1554
     19 H4          3.6572    3.4378    1.5829 H         1 <0>         0.0998
     20 N1          2.4216    4.2009    0.0446 N.3       1 <0>        -0.6430
     21 C14         1.1588    3.5595    0.0588 C.3       1 <0>         0.1737
     22 C15         2.7899    5.2290   -0.9132 C.3       1 <0>         0.1133
     23 C16         4.2772    5.5355   -0.6019 C.3       1 <0>        -0.0890
     24 O3          6.8767    1.5239   -0.8575 O.3       1 <0>        -0.5477
     25 O4          5.0159    0.0911   -0.0332 O.3       1 <0>        -0.5380
     26 H5         -0.9501    1.9232    0.0259 H         1 <0>         0.1417
     27 H6          3.3628   -0.5754   -0.0150 H         1 <0>         0.1766
     28 H7         -0.9116   -2.9767    0.1407 H         1 <0>         0.1311
     29 H8         -0.5125   -2.2922   -1.4666 H         1 <0>         0.0858
     30 H9          6.7950    4.1848   -0.5837 H         1 <0>         0.1198
     31 H10         0.5823    3.9177   -0.7940 H         1 <0>         0.0730
     32 H11         0.6353    3.8523    0.9689 H         1 <0>         0.0744
     33 H12         2.7094    4.8508   -1.9323 H         1 <0>         0.0384
     34 H13         2.1701    6.1159   -0.7817 H         1 <0>         0.0811
     35 H14         4.3299    6.2677    0.2038 H         1 <0>         0.0910
     36 H15         4.8225    5.8844   -1.4788 H         1 <0>         0.0868
     37 H16         7.7066    1.9515   -1.1095 H         1 <0>         0.3797
     38 H17         5.7640   -0.4058    0.3252 H         1 <0>         0.3793
@<TRIPOS>BOND
     1    1    6 ar
     2    1    2 ar
     3    1   26 1
     4    2   21 1
     5    2    3 ar
     6    3    4 ar
     7    3   10 1
     8    4    5 ar
     9    4   27 1
    10    5    9 1
    11    5    6 ar
    12    6    7 1
    13    7    8 1
    14    8    9 1
    15    8   28 1
    16    8   29 1
    17   10   11 1
    18   10   18 1
    19   10   12 1
    20   12   13 1
    21   12   14 1
    22   12   25 1
    23   14   15 1
    24   14   16 1
    25   14   24 1
    26   16   17 2
    27   16   30 1
    28   17   23 1
    29   17   18 1
    30   18   19 1
    31   18   20 1
    32   20   21 1
    33   20   22 1
    34   21   31 1
    35   21   32 1
    36   22   23 1
    37   22   33 1
    38   22   34 1
    39   23   35 1
    40   23   36 1
    41   24   37 1
    42   25   38 1
@<TRIPOS>MOLECULE
ZINC00058188
   35    37     0     0     0
SMALL
USER_CHARGES

@<TRIPOS>ATOM
      1 C1          0.1947    1.4197   -0.0959 C.3       1 <0>         0.0574
      2 O1          0.0076    0.0067    0.0075 O.3       1 <0>        -0.3058
      3 C2          0.6238   -0.6220    1.0388 C.ar      1 <0>         0.1754
      4 C3          1.9573   -1.0234    0.9270 C.ar      1 <0>        -0.1704
      5 C4          2.9699   -0.9295   -0.1318 C.2       1 <0>        -0.1921
      6 C5          4.0769   -1.5020    0.3598 C.2       1 <0>        -0.0138
      7 O2          3.8547   -1.9399    1.6117 O.3       1 <0>        -0.1981
      8 C6          2.5911   -1.6742    1.9977 C.ar      1 <0>         0.0604
      9 C7          1.8823   -1.9173    3.1734 C.ar      1 <0>        -0.1312
     10 C8          0.5816   -1.5284    3.2887 C.ar      1 <0>        -0.0529
     11 C9         -0.0670   -0.8718    2.2312 C.ar      1 <0>        -0.1131
     12 C10        -1.4695   -0.4520    2.3730 C.2       1 <0>         0.3282
     13 O3         -2.1250    0.0822    1.3185 O.3       1 <0>        -0.6058
     14 C11        -2.1095   -0.6020    3.5702 C.2       1 <0>        -0.5161
     15 C12        -3.4812   -0.3101    3.6757 C.2       1 <0>         0.4040
     16 C13        -4.1749   -0.4726    4.9734 C.ar      1 <0>        -0.1154
     17 C14        -3.4694   -0.9097    6.0950 C.ar      1 <0>        -0.0894
     18 C15        -4.1216   -1.0586    7.3016 C.ar      1 <0>        -0.1380
     19 C16        -5.4723   -0.7757    7.4009 C.ar      1 <0>        -0.1260
     20 C17        -6.1775   -0.3419    6.2923 C.ar      1 <0>        -0.1362
     21 C18        -5.5358   -0.1838    5.0813 C.ar      1 <0>        -0.0885
     22 O4         -4.0989    0.0767    2.6986 O.2       1 <0>        -0.5126
     23 H1          1.2563    1.6380   -0.2120 H         1 <0>         0.0287
     24 H2         -0.3505    1.7960   -0.9615 H         1 <0>         0.0869
     25 H3         -0.1790    1.9027    0.8069 H         1 <0>         0.0482
     26 H4          2.8471   -0.4883   -1.1099 H         1 <0>         0.1539
     27 H5          5.0118   -1.5983   -0.1722 H         1 <0>         0.2040
     28 H6          2.3675   -2.4177    3.9983 H         1 <0>         0.1297
     29 H7          0.0449   -1.7241    4.2053 H         1 <0>         0.1458
     30 H8         -2.4151   -1.1312    6.0188 H         1 <0>         0.1281
     31 H9         -3.5767   -1.3972    8.1705 H         1 <0>         0.1160
     32 H10        -5.9784   -0.8942    8.3475 H         1 <0>         0.1134
     33 H11        -7.2318   -0.1230    6.3761 H         1 <0>         0.1156
     34 H12        -6.0863    0.1591    4.2178 H         1 <0>         0.1257
     35 H13        -1.5622   -0.9447    4.4359 H         1 <0>         0.0841
@<TRIPOS>BOND
     1    1    2 1
     2    1   23 1
     3    1   24 1
     4    1   25 1
     5    2    3 1
     6    3   11 ar
     7    3    4 ar
     8    4    8 ar
     9    4    5 1
    10    5    6 2
    11    5   26 1
    12    6    7 1
    13    6   27 1
    14    7    8 1
    15    8    9 ar
    16    9   10 ar
    17    9   28 1
    18   10   11 ar
    19   10   29 1
    20   11   12 1
    21   12   14 2
    22   12   13 1
    23   14   35 1
    24   14   15 1
    25   15   16 1
    26   15   22 2
    27   16   21 ar
    28   16   17 ar
    29   17   18 ar
    30   17   30 1
    31   18   19 ar
    32   18   31 1
    33   19   20 ar
    34   19   32 1
    35   20   21 ar
    36   20   33 1
    37   21   34 1
