MODEL 1
REMARK VINA RESULT:      -6.4      0.000      0.000
REMARK  Name = ZINC95486230
REMARK  19 active torsions:
REMARK  status: ('A' for Active; 'I' for Inactive)
REMARK    1  A    between atoms: C1_1  and  C2_2
REMARK    2  A    between atoms: C2_2  and  O2_4
REMARK    3  A    between atoms: O2_4  and  C3_5
REMARK    4  A    between atoms: C6_10  and  C32_49
REMARK    5  A    between atoms: C7_12  and  C31_48
REMARK    6  A    between atoms: C14_20  and  C30_47
REMARK    7  A    between atoms: C15_21  and  C27_42
REMARK    8  A    between atoms: C16_23  and  C25_40
REMARK    9  A    between atoms: C16_23  and  C26_41
REMARK   10  A    between atoms: C17_24  and  O8_39
REMARK   11  A    between atoms: C18_26  and  O5_31
REMARK   12  A    between atoms: O5_31  and  C20_32
REMARK   13  A    between atoms: C20_32  and  C21_33
REMARK   14  A    between atoms: C21_33  and  C22_34
REMARK   15  A    between atoms: C22_34  and  C23_35
REMARK   16  A    between atoms: C23_35  and  C24_36
REMARK   17  A    between atoms: C27_42  and  C28_43
REMARK   18  A    between atoms: C28_43  and  O10_45
REMARK   19  A    between atoms: O10_45  and  C29_46
REMARK                            x       y       z     vdW  Elec       q    Type
REMARK                         _______ _______ _______ _____ _____    ______ ____
ROOT
ATOM      4  C   UNL     1      52.304  15.319  18.637  0.00  0.00    +0.180 C 
ATOM      5  C   UNL     1      52.803  16.439  19.515  0.00  0.00    +0.360 C 
ATOM      6  C   UNL     1      52.746  17.837  18.946  0.00  0.00    +0.045 C 
ATOM      7  C   UNL     1      51.333  18.113  18.429  0.00  0.00    +0.089 C 
ATOM     13  C   UNL     1      50.849  17.029  17.464  0.00  0.00    -0.052 C 
ATOM     14  C   UNL     1      51.740  17.043  16.211  0.00  0.00    +0.046 C 
ATOM     15  C   UNL     1      49.418  17.359  17.034  0.00  0.00    +0.021 C 
ATOM     16  C   UNL     1      48.360  17.105  18.091  0.00  0.00    +0.016 C 
ATOM     17  C   UNL     1      48.443  15.709  18.716  0.00  0.00    +0.048 C 
ATOM     18  C   UNL     1      48.156  14.602  17.695  0.00  0.00    -0.044 C 
ATOM     19  C   UNL     1      46.871  15.035  16.929  0.00  0.00    +0.029 C 
ATOM     20  C   UNL     1      47.812  13.297  18.385  0.00  0.00    +0.034 C 
ATOM     26  C   UNL     1      47.915  12.026  17.559  0.00  0.00    -0.044 C 
ATOM     27  C   UNL     1      46.632  11.790  16.757  0.00  0.00    +0.038 C 
ATOM     28  C   UNL     1      48.068  10.840  18.537  0.00  0.00    +0.040 C 
ATOM     29  C   UNL     1      49.122  12.016  16.632  0.00  0.00    +0.156 C 
ATOM     32  C   UNL     1      49.145  13.274  15.777  0.00  0.00    +0.144 C 
ATOM     41  C   UNL     1      49.264  14.517  16.665  0.00  0.00    +0.182 C 
ATOM     42  O   UNL     1      50.570  14.623  17.174  0.00  0.00    -0.330 OA
ATOM     43  C   UNL     1      49.881  15.621  19.222  0.00  0.00    -0.144 C 
ATOM     44  C   UNL     1      50.170  15.593  20.501  0.00  0.00    +0.037 C 
ATOM     45  O   UNL     1      53.236  16.229  20.622  0.00  0.00    -0.431 OA
ATOM     46  C   UNL     1      50.908  15.642  18.109  0.00  0.00    +0.205 C 
ENDROOT
BRANCH   7   8
ATOM      8  C   UNL     1      51.371  19.447  17.729  0.00  0.00    -0.165 A 
ATOM      9  C   UNL     1      52.139  19.779  16.590  0.00  0.00    -0.053 A 
ATOM     10  C   UNL     1      51.871  21.065  16.300  0.00  0.00    +0.162 A 
ATOM     11  O   UNL     1      50.985  21.526  17.198  0.00  0.00    -0.176 OA
ATOM     12  C   UNL     1      50.674  20.548  18.064  0.00  0.00    +0.161 A 
ENDBRANCH   7   8
BRANCH  29  30
ATOM     30  O   UNL     1      50.330  11.911  17.387  0.00  0.00    -0.540 OA
ATOM     31  H   UNL     1      50.211  12.033  18.340  0.00  0.00    +0.381 HD
ENDBRANCH  29  30
BRANCH   4   3
ATOM      3  O   UNL     1      52.283  14.088  19.359  0.00  0.00    -0.310 OA
BRANCH   3   2
ATOM      1  C   UNL     1      54.529  13.123  19.698  0.00  0.00    +0.158 C 
ATOM      2  C   UNL     1      53.189  13.162  19.009  0.00  0.00    +0.465 C 
ATOM     47  O   UNL     1      52.931  12.361  18.143  0.00  0.00    -0.515 OA
ENDBRANCH   3   2
ENDBRANCH   4   3
BRANCH  20  21
ATOM     21  C   UNL     1      48.572  13.076  19.695  0.00  0.00    +0.115 C 
BRANCH  21  22
ATOM     22  C   UNL     1      47.598  13.062  20.845  0.00  0.00    +0.466 C 
ATOM     25  O   UNL     1      47.887  12.499  21.874  0.00  0.00    -0.510 OA
BRANCH  22  23
ATOM     23  O   UNL     1      46.410  13.677  20.726  0.00  0.00    -0.349 OA
ATOM     24  C   UNL     1      45.434  13.399  21.731  0.00  0.00    +0.247 C 
ENDBRANCH  22  23
ENDBRANCH  21  22
ENDBRANCH  20  21
BRANCH  32  33
ATOM     33  O   UNL     1      50.278  13.228  14.900  0.00  0.00    -0.367 OA
BRANCH  33  34
ATOM     34  C   UNL     1      50.030  12.557  13.663  0.00  0.00    +0.152 C 
BRANCH  34  35
ATOM     35  C   UNL     1      51.027  13.044  12.609  0.00  0.00    +0.013 C 
BRANCH  35  36
ATOM     36  C   UNL     1      50.300  13.258  11.280  0.00  0.00    +0.028 C 
BRANCH  36  37
ATOM     37  C   UNL     1      51.305  13.176  10.130  0.00  0.00    -0.070 C 
BRANCH  37  38
ATOM     38  C   UNL     1      51.367  11.760   9.618  0.00  0.00    +0.488 C 
ATOM     39  O   UNL     1      50.409  11.279   9.037  0.00  0.00    -0.708 OA
ATOM     40  O   UNL     1      52.377  11.096   9.783  0.00  0.00    -0.701 OA
ENDBRANCH  37  38
ENDBRANCH  36  37
ENDBRANCH  35  36
ENDBRANCH  34  35
ENDBRANCH  33  34
ENDBRANCH  32  33
TORSDOF 13
ENDMDL
MODEL 2
REMARK VINA RESULT:      -6.2      2.635      7.191
REMARK  Name = ZINC95486230
REMARK  19 active torsions:
REMARK  status: ('A' for Active; 'I' for Inactive)
REMARK    1  A    between atoms: C1_1  and  C2_2
REMARK    2  A    between atoms: C2_2  and  O2_4
REMARK    3  A    between atoms: O2_4  and  C3_5
REMARK    4  A    between atoms: C6_10  and  C32_49
REMARK    5  A    between atoms: C7_12  and  C31_48
REMARK    6  A    between atoms: C14_20  and  C30_47
REMARK    7  A    between atoms: C15_21  and  C27_42
REMARK    8  A    between atoms: C16_23  and  C25_40
REMARK    9  A    between atoms: C16_23  and  C26_41
REMARK   10  A    between atoms: C17_24  and  O8_39
REMARK   11  A    between atoms: C18_26  and  O5_31
REMARK   12  A    between atoms: O5_31  and  C20_32
REMARK   13  A    between atoms: C20_32  and  C21_33
REMARK   14  A    between atoms: C21_33  and  C22_34
REMARK   15  A    between atoms: C22_34  and  C23_35
REMARK   16  A    between atoms: C23_35  and  C24_36
REMARK   17  A    between atoms: C27_42  and  C28_43
REMARK   18  A    between atoms: C28_43  and  O10_45
REMARK   19  A    between atoms: O10_45  and  C29_46
REMARK                            x       y       z     vdW  Elec       q    Type
REMARK                         _______ _______ _______ _____ _____    ______ ____
ROOT
ATOM      4  C   UNL     1      47.010  14.633  21.455  0.00  0.00    +0.180 C 
ATOM      5  C   UNL     1      45.561  14.288  21.690  0.00  0.00    +0.360 C 
ATOM      6  C   UNL     1      44.605  15.439  21.900  0.00  0.00    +0.045 C 
ATOM      7  C   UNL     1      44.768  16.444  20.759  0.00  0.00    +0.089 C 
ATOM     13  C   UNL     1      46.224  16.873  20.570  0.00  0.00    -0.052 C 
ATOM     14  C   UNL     1      46.692  17.622  21.828  0.00  0.00    +0.046 C 
ATOM     15  C   UNL     1      46.301  17.838  19.385  0.00  0.00    +0.021 C 
ATOM     16  C   UNL     1      46.155  17.188  18.022  0.00  0.00    +0.016 C 
ATOM     17  C   UNL     1      47.080  15.984  17.817  0.00  0.00    +0.048 C 
ATOM     18  C   UNL     1      48.559  16.385  17.830  0.00  0.00    -0.044 C 
ATOM     19  C   UNL     1      48.685  17.628  16.901  0.00  0.00    +0.029 C 
ATOM     20  C   UNL     1      49.423  15.306  17.206  0.00  0.00    +0.034 C 
ATOM     26  C   UNL     1      50.911  15.345  17.513  0.00  0.00    -0.044 C 
ATOM     27  C   UNL     1      51.640  16.298  16.562  0.00  0.00    +0.038 C 
ATOM     28  C   UNL     1      51.479  13.929  17.266  0.00  0.00    +0.040 C 
ATOM     29  C   UNL     1      51.211  15.715  18.958  0.00  0.00    +0.156 C 
ATOM     32  C   UNL     1      50.502  17.008  19.333  0.00  0.00    +0.144 C 
ATOM     41  C   UNL     1      48.984  16.835  19.213  0.00  0.00    +0.182 C 
ATOM     42  O   UNL     1      48.503  16.052  20.277  0.00  0.00    -0.330 OA
ATOM     43  C   UNL     1      46.755  15.070  18.996  0.00  0.00    -0.144 C 
ATOM     44  C   UNL     1      46.150  13.916  18.837  0.00  0.00    +0.037 C 
ATOM     45  O   UNL     1      45.179  13.143  21.715  0.00  0.00    -0.431 OA
ATOM     46  C   UNL     1      47.134  15.664  20.336  0.00  0.00    +0.205 C 
ENDROOT
BRANCH   7   8
ATOM      8  C   UNL     1      43.919  17.642  21.100  0.00  0.00    -0.165 A 
ATOM      9  C   UNL     1      43.405  17.976  22.374  0.00  0.00    -0.053 A 
ATOM     10  C   UNL     1      42.709  19.117  22.227  0.00  0.00    +0.162 A 
ATOM     11  O   UNL     1      42.772  19.489  20.937  0.00  0.00    -0.176 OA
ATOM     12  C   UNL     1      43.509  18.601  20.250  0.00  0.00    +0.161 A 
ENDBRANCH   7   8
BRANCH  29  30
ATOM     30  O   UNL     1      50.811  14.661  19.836  0.00  0.00    -0.540 OA
ATOM     31  H   UNL     1      50.383  14.966  20.648  0.00  0.00    +0.381 HD
ENDBRANCH  29  30
BRANCH   4   3
ATOM      3  O   UNL     1      47.756  13.461  21.128  0.00  0.00    -0.310 OA
BRANCH   3   2
ATOM      1  C   UNL     1      48.591  11.587  22.501  0.00  0.00    +0.158 C 
ATOM      2  C   UNL     1      48.633  13.023  22.045  0.00  0.00    +0.465 C 
ATOM     47  O   UNL     1      49.455  13.779  22.504  0.00  0.00    -0.515 OA
ENDBRANCH   3   2
ENDBRANCH   4   3
BRANCH  20  21
ATOM     21  C   UNL     1      48.920  13.886  17.471  0.00  0.00    +0.115 C 
BRANCH  21  22
ATOM     22  C   UNL     1      48.526  13.242  16.167  0.00  0.00    +0.466 C 
ATOM     25  O   UNL     1      47.501  13.569  15.617  0.00  0.00    -0.510 OA
BRANCH  22  23
ATOM     23  O   UNL     1      49.314  12.306  15.615  0.00  0.00    -0.349 OA
ATOM     24  C   UNL     1      49.647  12.469  14.235  0.00  0.00    +0.247 C 
ENDBRANCH  22  23
ENDBRANCH  21  22
ENDBRANCH  20  21
BRANCH  32  33
ATOM     33  O   UNL     1      50.818  17.344  20.691  0.00  0.00    -0.367 OA
BRANCH  33  34
ATOM     34  C   UNL     1      51.497  18.592  20.838  0.00  0.00    +0.152 C 
BRANCH  34  35
ATOM     35  C   UNL     1      50.492  19.739  20.699  0.00  0.00    +0.013 C 
BRANCH  35  36
ATOM     36  C   UNL     1      51.079  20.825  19.795  0.00  0.00    +0.028 C 
BRANCH  36  37
ATOM     37  C   UNL     1      50.408  20.763  18.422  0.00  0.00    -0.070 C 
BRANCH  37  38
ATOM     38  C   UNL     1      51.464  20.689  17.350  0.00  0.00    +0.488 C 
ATOM     39  O   UNL     1      51.401  21.426  16.381  0.00  0.00    -0.708 OA
ATOM     40  O   UNL     1      52.381  19.892  17.451  0.00  0.00    -0.701 OA
ENDBRANCH  37  38
ENDBRANCH  36  37
ENDBRANCH  35  36
ENDBRANCH  34  35
ENDBRANCH  33  34
ENDBRANCH  32  33
TORSDOF 13
ENDMDL
MODEL 3
REMARK VINA RESULT:      -6.0      3.365      6.384
REMARK  Name = ZINC95486230
REMARK  19 active torsions:
REMARK  status: ('A' for Active; 'I' for Inactive)
REMARK    1  A    between atoms: C1_1  and  C2_2
REMARK    2  A    between atoms: C2_2  and  O2_4
REMARK    3  A    between atoms: O2_4  and  C3_5
REMARK    4  A    between atoms: C6_10  and  C32_49
REMARK    5  A    between atoms: C7_12  and  C31_48
REMARK    6  A    between atoms: C14_20  and  C30_47
REMARK    7  A    between atoms: C15_21  and  C27_42
REMARK    8  A    between atoms: C16_23  and  C25_40
REMARK    9  A    between atoms: C16_23  and  C26_41
REMARK   10  A    between atoms: C17_24  and  O8_39
REMARK   11  A    between atoms: C18_26  and  O5_31
REMARK   12  A    between atoms: O5_31  and  C20_32
REMARK   13  A    between atoms: C20_32  and  C21_33
REMARK   14  A    between atoms: C21_33  and  C22_34
REMARK   15  A    between atoms: C22_34  and  C23_35
REMARK   16  A    between atoms: C23_35  and  C24_36
REMARK   17  A    between atoms: C27_42  and  C28_43
REMARK   18  A    between atoms: C28_43  and  O10_45
REMARK   19  A    between atoms: O10_45  and  C29_46
REMARK                            x       y       z     vdW  Elec       q    Type
REMARK                         _______ _______ _______ _____ _____    ______ ____
ROOT
ATOM      4  C   UNL     1      50.090  19.057  18.071  0.00  0.00    +0.180 C 
ATOM      5  C   UNL     1      50.060  20.454  18.636  0.00  0.00    +0.360 C 
ATOM      6  C   UNL     1      48.728  20.967  19.131  0.00  0.00    +0.045 C 
ATOM      7  C   UNL     1      48.128  19.952  20.105  0.00  0.00    +0.089 C 
ATOM     13  C   UNL     1      48.068  18.545  19.509  0.00  0.00    -0.052 C 
ATOM     14  C   UNL     1      47.112  18.553  18.305  0.00  0.00    +0.046 C 
ATOM     15  C   UNL     1      47.500  17.590  20.561  0.00  0.00    +0.021 C 
ATOM     16  C   UNL     1      48.455  17.239  21.686  0.00  0.00    +0.016 C 
ATOM     17  C   UNL     1      49.830  16.770  21.197  0.00  0.00    +0.048 C 
ATOM     18  C   UNL     1      49.746  15.453  20.417  0.00  0.00    -0.044 C 
ATOM     19  C   UNL     1      48.856  14.497  21.265  0.00  0.00    +0.029 C 
ATOM     20  C   UNL     1      51.104  14.786  20.322  0.00  0.00    +0.034 C 
ATOM     26  C   UNL     1      51.282  13.723  19.251  0.00  0.00    -0.044 C 
ATOM     27  C   UNL     1      50.792  12.360  19.749  0.00  0.00    +0.038 C 
ATOM     28  C   UNL     1      52.795  13.589  18.968  0.00  0.00    +0.040 C 
ATOM     29  C   UNL     1      50.598  14.079  17.940  0.00  0.00    +0.156 C 
ATOM     32  C   UNL     1      49.137  14.428  18.181  0.00  0.00    +0.144 C 
ATOM     41  C   UNL     1      49.028  15.652  19.097  0.00  0.00    +0.182 C 
ATOM     42  O   UNL     1      49.377  16.816  18.390  0.00  0.00    -0.330 OA
ATOM     43  C   UNL     1      50.302  17.907  20.292  0.00  0.00    -0.144 C 
ATOM     44  C   UNL     1      51.309  18.682  20.616  0.00  0.00    +0.037 C 
ATOM     45  O   UNL     1      51.053  21.138  18.687  0.00  0.00    -0.431 OA
ATOM     46  C   UNL     1      49.451  18.075  19.051  0.00  0.00    +0.205 C 
ENDROOT
BRANCH   7   8
ATOM      8  C   UNL     1      46.738  20.429  20.440  0.00  0.00    -0.165 A 
ATOM      9  C   UNL     1      45.891  21.205  19.616  0.00  0.00    -0.053 A 
ATOM     10  C   UNL     1      44.750  21.400  20.301  0.00  0.00    +0.162 A 
ATOM     11  O   UNL     1      44.861  20.786  21.492  0.00  0.00    -0.176 OA
ATOM     12  C   UNL     1      46.062  20.192  21.579  0.00  0.00    +0.161 A 
ENDBRANCH   7   8
BRANCH  29  30
ATOM     30  O   UNL     1      51.269  15.170  17.308  0.00  0.00    -0.540 OA
ATOM     31  H   UNL     1      51.162  16.016  17.766  0.00  0.00    +0.381 HD
ENDBRANCH  29  30
BRANCH   4   3
ATOM      3  O   UNL     1      51.432  18.662  17.785  0.00  0.00    -0.310 OA
BRANCH   3   2
ATOM      1  C   UNL     1      52.195  19.819  15.742  0.00  0.00    +0.158 C 
ATOM      2  C   UNL     1      51.778  18.579  16.490  0.00  0.00    +0.465 C 
ATOM     47  O   UNL     1      51.756  17.511  15.926  0.00  0.00    -0.515 OA
ENDBRANCH   3   2
ENDBRANCH   4   3
BRANCH  20  21
ATOM     21  C   UNL     1      52.266  15.774  20.209  0.00  0.00    +0.115 C 
BRANCH  21  22
ATOM     22  C   UNL     1      53.136  15.669  21.434  0.00  0.00    +0.466 C 
ATOM     25  O   UNL     1      52.766  15.020  22.384  0.00  0.00    -0.510 OA
BRANCH  22  23
ATOM     23  O   UNL     1      54.324  16.295  21.471  0.00  0.00    -0.349 OA
ATOM     24  C   UNL     1      55.317  15.855  20.543  0.00  0.00    +0.247 C 
ENDBRANCH  22  23
ENDBRANCH  21  22
ENDBRANCH  20  21
BRANCH  32  33
ATOM     33  O   UNL     1      48.513  14.739  16.928  0.00  0.00    -0.367 OA
BRANCH  33  34
ATOM     34  C   UNL     1      47.107  14.487  16.901  0.00  0.00    +0.152 C 
BRANCH  34  35
ATOM     35  C   UNL     1      46.810  13.173  17.628  0.00  0.00    +0.013 C 
BRANCH  35  36
ATOM     36  C   UNL     1      45.559  13.341  18.494  0.00  0.00    +0.028 C 
BRANCH  36  37
ATOM     37  C   UNL     1      45.585  14.715  19.165  0.00  0.00    -0.070 C 
BRANCH  37  38
ATOM     38  C   UNL     1      45.184  14.576  20.611  0.00  0.00    +0.488 C 
ATOM     39  O   UNL     1      45.328  13.510  21.183  0.00  0.00    -0.708 OA
ATOM     40  O   UNL     1      44.717  15.531  21.208  0.00  0.00    -0.701 OA
ENDBRANCH  37  38
ENDBRANCH  36  37
ENDBRANCH  35  36
ENDBRANCH  34  35
ENDBRANCH  33  34
ENDBRANCH  32  33
TORSDOF 13
ENDMDL
MODEL 4
REMARK VINA RESULT:      -5.8      2.569      4.902
REMARK  Name = ZINC95486230
REMARK  19 active torsions:
REMARK  status: ('A' for Active; 'I' for Inactive)
REMARK    1  A    between atoms: C1_1  and  C2_2
REMARK    2  A    between atoms: C2_2  and  O2_4
REMARK    3  A    between atoms: O2_4  and  C3_5
REMARK    4  A    between atoms: C6_10  and  C32_49
REMARK    5  A    between atoms: C7_12  and  C31_48
REMARK    6  A    between atoms: C14_20  and  C30_47
REMARK    7  A    between atoms: C15_21  and  C27_42
REMARK    8  A    between atoms: C16_23  and  C25_40
REMARK    9  A    between atoms: C16_23  and  C26_41
REMARK   10  A    between atoms: C17_24  and  O8_39
REMARK   11  A    between atoms: C18_26  and  O5_31
REMARK   12  A    between atoms: O5_31  and  C20_32
REMARK   13  A    between atoms: C20_32  and  C21_33
REMARK   14  A    between atoms: C21_33  and  C22_34
REMARK   15  A    between atoms: C22_34  and  C23_35
REMARK   16  A    between atoms: C23_35  and  C24_36
REMARK   17  A    between atoms: C27_42  and  C28_43
REMARK   18  A    between atoms: C28_43  and  O10_45
REMARK   19  A    between atoms: O10_45  and  C29_46
REMARK                            x       y       z     vdW  Elec       q    Type
REMARK                         _______ _______ _______ _____ _____    ______ ____
ROOT
ATOM      4  C   UNL     1      49.992  18.870  18.048  0.00  0.00    +0.180 C 
ATOM      5  C   UNL     1      49.972  20.225  18.709  0.00  0.00    +0.360 C 
ATOM      6  C   UNL     1      48.634  20.736  19.190  0.00  0.00    +0.045 C 
ATOM      7  C   UNL     1      47.974  19.671  20.067  0.00  0.00    +0.089 C 
ATOM     13  C   UNL     1      47.906  18.310  19.371  0.00  0.00    -0.052 C 
ATOM     14  C   UNL     1      46.997  18.426  18.136  0.00  0.00    +0.046 C 
ATOM     15  C   UNL     1      47.277  17.299  20.332  0.00  0.00    +0.021 C 
ATOM     16  C   UNL     1      48.180  16.846  21.463  0.00  0.00    +0.016 C 
ATOM     17  C   UNL     1      49.561  16.379  20.993  0.00  0.00    +0.048 C 
ATOM     18  C   UNL     1      49.477  15.122  20.119  0.00  0.00    -0.044 C 
ATOM     19  C   UNL     1      48.535  14.132  20.865  0.00  0.00    +0.029 C 
ATOM     20  C   UNL     1      50.823  14.429  20.027  0.00  0.00    +0.034 C 
ATOM     26  C   UNL     1      51.017  13.439  18.891  0.00  0.00    -0.044 C 
ATOM     27  C   UNL     1      50.478  12.057  19.273  0.00  0.00    +0.038 C 
ATOM     28  C   UNL     1      52.537  13.287  18.655  0.00  0.00    +0.040 C 
ATOM     29  C   UNL     1      50.393  13.902  17.584  0.00  0.00    +0.156 C 
ATOM     32  C   UNL     1      48.932  14.271  17.795  0.00  0.00    +0.144 C 
ATOM     41  C   UNL     1      48.816  15.430  18.791  0.00  0.00    +0.182 C 
ATOM     42  O   UNL     1      49.217  16.631  18.182  0.00  0.00    -0.330 OA
ATOM     43  C   UNL     1      50.093  17.563  20.189  0.00  0.00    -0.144 C 
ATOM     44  C   UNL     1      51.105  18.289  20.603  0.00  0.00    +0.037 C 
ATOM     45  O   UNL     1      50.978  20.879  18.844  0.00  0.00    -0.431 OA
ATOM     46  C   UNL     1      49.295  17.839  18.932  0.00  0.00    +0.205 C 
ENDROOT
BRANCH   7   8
ATOM      8  C   UNL     1      46.583  20.157  20.384  0.00  0.00    -0.165 A 
ATOM      9  C   UNL     1      45.796  19.794  21.500  0.00  0.00    -0.053 A 
ATOM     10  C   UNL     1      44.632  20.458  21.390  0.00  0.00    +0.162 A 
ATOM     11  O   UNL     1      44.672  21.200  20.271  0.00  0.00    -0.176 OA
ATOM     12  C   UNL     1      45.854  21.026  19.660  0.00  0.00    +0.161 A 
ENDBRANCH   7   8
BRANCH  29  30
ATOM     30  O   UNL     1      51.111  15.018  17.056  0.00  0.00    -0.540 OA
ATOM     31  H   UNL     1      50.558  15.788  16.864  0.00  0.00    +0.381 HD
ENDBRANCH  29  30
BRANCH   4   3
ATOM      3  O   UNL     1      51.335  18.463  17.784  0.00  0.00    -0.310 OA
BRANCH   3   2
ATOM      1  C   UNL     1      52.039  19.717  15.778  0.00  0.00    +0.158 C 
ATOM      2  C   UNL     1      51.719  18.433  16.498  0.00  0.00    +0.465 C 
ATOM     47  O   UNL     1      51.809  17.377  15.919  0.00  0.00    -0.515 OA
ENDBRANCH   3   2
ENDBRANCH   4   3
BRANCH  20  21
ATOM     21  C   UNL     1      52.011  15.393  20.027  0.00  0.00    +0.115 C 
BRANCH  21  22
ATOM     22  C   UNL     1      52.860  15.145  21.246  0.00  0.00    +0.466 C 
ATOM     25  O   UNL     1      52.375  14.626  22.225  0.00  0.00    -0.510 OA
BRANCH  22  23
ATOM     23  O   UNL     1      54.155  15.497  21.246  0.00  0.00    -0.349 OA
ATOM     24  C   UNL     1      54.703  15.951  20.007  0.00  0.00    +0.247 C 
ENDBRANCH  22  23
ENDBRANCH  21  22
ENDBRANCH  20  21
BRANCH  32  33
ATOM     33  O   UNL     1      48.363  14.684  16.545  0.00  0.00    -0.367 OA
BRANCH  33  34
ATOM     34  C   UNL     1      47.196  13.951  16.167  0.00  0.00    +0.152 C 
BRANCH  34  35
ATOM     35  C   UNL     1      47.603  12.556  15.687  0.00  0.00    +0.013 C 
BRANCH  35  36
ATOM     36  C   UNL     1      48.070  12.634  14.231  0.00  0.00    +0.028 C 
BRANCH  36  37
ATOM     37  C   UNL     1      49.569  12.341  14.160  0.00  0.00    -0.070 C 
BRANCH  37  38
ATOM     38  C   UNL     1      50.157  13.017  12.949  0.00  0.00    +0.488 C 
ATOM     39  O   UNL     1      49.433  13.357  12.029  0.00  0.00    -0.708 OA
ATOM     40  O   UNL     1      51.357  13.225  12.889  0.00  0.00    -0.701 OA
ENDBRANCH  37  38
ENDBRANCH  36  37
ENDBRANCH  35  36
ENDBRANCH  34  35
ENDBRANCH  33  34
ENDBRANCH  32  33
TORSDOF 13
ENDMDL
MODEL 5
REMARK VINA RESULT:      -5.6      3.144      8.285
REMARK  Name = ZINC95486230
REMARK  19 active torsions:
REMARK  status: ('A' for Active; 'I' for Inactive)
REMARK    1  A    between atoms: C1_1  and  C2_2
REMARK    2  A    between atoms: C2_2  and  O2_4
REMARK    3  A    between atoms: O2_4  and  C3_5
REMARK    4  A    between atoms: C6_10  and  C32_49
REMARK    5  A    between atoms: C7_12  and  C31_48
REMARK    6  A    between atoms: C14_20  and  C30_47
REMARK    7  A    between atoms: C15_21  and  C27_42
REMARK    8  A    between atoms: C16_23  and  C25_40
REMARK    9  A    between atoms: C16_23  and  C26_41
REMARK   10  A    between atoms: C17_24  and  O8_39
REMARK   11  A    between atoms: C18_26  and  O5_31
REMARK   12  A    between atoms: O5_31  and  C20_32
REMARK   13  A    between atoms: C20_32  and  C21_33
REMARK   14  A    between atoms: C21_33  and  C22_34
REMARK   15  A    between atoms: C22_34  and  C23_35
REMARK   16  A    between atoms: C23_35  and  C24_36
REMARK   17  A    between atoms: C27_42  and  C28_43
REMARK   18  A    between atoms: C28_43  and  O10_45
REMARK   19  A    between atoms: O10_45  and  C29_46
REMARK                            x       y       z     vdW  Elec       q    Type
REMARK                         _______ _______ _______ _____ _____    ______ ____
ROOT
ATOM      4  C   UNL     1      50.529  14.814  19.884  0.00  0.00    +0.180 C 
ATOM      5  C   UNL     1      51.080  13.817  18.896  0.00  0.00    +0.360 C 
ATOM      6  C   UNL     1      50.091  12.896  18.223  0.00  0.00    +0.045 C 
ATOM      7  C   UNL     1      48.962  13.728  17.614  0.00  0.00    +0.089 C 
ATOM     13  C   UNL     1      48.331  14.680  18.632  0.00  0.00    -0.052 C 
ATOM     14  C   UNL     1      47.660  13.851  19.740  0.00  0.00    +0.046 C 
ATOM     15  C   UNL     1      47.248  15.501  17.930  0.00  0.00    +0.021 C 
ATOM     16  C   UNL     1      47.768  16.587  17.008  0.00  0.00    +0.016 C 
ATOM     17  C   UNL     1      48.815  17.495  17.662  0.00  0.00    +0.048 C 
ATOM     18  C   UNL     1      48.229  18.306  18.823  0.00  0.00    -0.044 C 
ATOM     19  C   UNL     1      46.892  18.912  18.305  0.00  0.00    +0.029 C 
ATOM     20  C   UNL     1      49.117  19.485  19.169  0.00  0.00    +0.034 C 
ATOM     26  C   UNL     1      48.917  20.129  20.531  0.00  0.00    -0.044 C 
ATOM     27  C   UNL     1      47.785  21.159  20.488  0.00  0.00    +0.038 C 
ATOM     28  C   UNL     1      50.215  20.890  20.886  0.00  0.00    +0.040 C 
ATOM     29  C   UNL     1      48.662  19.115  21.636  0.00  0.00    +0.156 C 
ATOM     32  C   UNL     1      47.516  18.189  21.253  0.00  0.00    +0.144 C 
ATOM     41  C   UNL     1      47.872  17.402  19.986  0.00  0.00    +0.182 C 
ATOM     42  O   UNL     1      48.815  16.405  20.288  0.00  0.00    -0.330 OA
ATOM     43  C   UNL     1      49.879  16.521  18.163  0.00  0.00    -0.144 C 
ATOM     44  C   UNL     1      51.080  16.469  17.634  0.00  0.00    +0.037 C 
ATOM     45  O   UNL     1      52.262  13.752  18.656  0.00  0.00    -0.431 OA
ATOM     46  C   UNL     1      49.381  15.601  19.257  0.00  0.00    +0.205 C 
ENDROOT
BRANCH   7   8
ATOM      8  C   UNL     1      47.925  12.760  17.103  0.00  0.00    -0.165 A 
ATOM      9  C   UNL     1      47.453  11.603  17.764  0.00  0.00    -0.053 A 
ATOM     10  C   UNL     1      46.539  11.038  16.956  0.00  0.00    +0.162 A 
ATOM     11  O   UNL     1      46.433  11.787  15.845  0.00  0.00    -0.176 OA
ATOM     12  C   UNL     1      47.268  12.836  15.931  0.00  0.00    +0.161 A 
ENDBRANCH   7   8
BRANCH  29  30
ATOM     30  O   UNL     1      49.842  18.355  21.899  0.00  0.00    -0.540 OA
ATOM     31  H   UNL     1      49.881  17.983  22.791  0.00  0.00    +0.381 HD
ENDBRANCH  29  30
BRANCH   4   3
ATOM      3  O   UNL     1      51.554  15.705  20.322  0.00  0.00    -0.310 OA
BRANCH   3   2
ATOM      1  C   UNL     1      53.392  15.124  21.865  0.00  0.00    +0.158 C 
ATOM      2  C   UNL     1      51.979  15.569  21.588  0.00  0.00    +0.465 C 
ATOM     47  O   UNL     1      51.229  15.803  22.505  0.00  0.00    -0.515 OA
ENDBRANCH   3   2
ENDBRANCH   4   3
BRANCH  20  21
ATOM     21  C   UNL     1      50.610  19.204  18.990  0.00  0.00    +0.115 C 
BRANCH  21  22
ATOM     22  C   UNL     1      51.157  20.075  17.889  0.00  0.00    +0.466 C 
ATOM     25  O   UNL     1      50.597  21.107  17.601  0.00  0.00    -0.510 OA
BRANCH  22  23
ATOM     23  O   UNL     1      52.267  19.706  17.229  0.00  0.00    -0.349 OA
ATOM     24  C   UNL     1      52.167  19.585  15.809  0.00  0.00    +0.247 C 
ENDBRANCH  22  23
ENDBRANCH  21  22
ENDBRANCH  20  21
BRANCH  32  33
ATOM     33  O   UNL     1      47.284  17.259  22.319  0.00  0.00    -0.367 OA
BRANCH  33  34
ATOM     34  C   UNL     1      45.939  16.781  22.390  0.00  0.00    +0.152 C 
BRANCH  34  35
ATOM     35  C   UNL     1      44.971  17.957  22.239  0.00  0.00    +0.013 C 
BRANCH  35  36
ATOM     36  C   UNL     1      44.057  17.715  21.036  0.00  0.00    +0.028 C 
BRANCH  36  37
ATOM     37  C   UNL     1      43.037  18.851  20.933  0.00  0.00    -0.070 C 
BRANCH  37  38
ATOM     38  C   UNL     1      43.571  19.924  20.020  0.00  0.00    +0.488 C 
ATOM     39  O   UNL     1      44.072  20.930  20.491  0.00  0.00    -0.708 OA
ATOM     40  O   UNL     1      43.502  19.785  18.811  0.00  0.00    -0.701 OA
ENDBRANCH  37  38
ENDBRANCH  36  37
ENDBRANCH  35  36
ENDBRANCH  34  35
ENDBRANCH  33  34
ENDBRANCH  32  33
TORSDOF 13
ENDMDL
MODEL 6
REMARK VINA RESULT:      -5.6      2.909      6.397
REMARK  Name = ZINC95486230
REMARK  19 active torsions:
REMARK  status: ('A' for Active; 'I' for Inactive)
REMARK    1  A    between atoms: C1_1  and  C2_2
REMARK    2  A    between atoms: C2_2  and  O2_4
REMARK    3  A    between atoms: O2_4  and  C3_5
REMARK    4  A    between atoms: C6_10  and  C32_49
REMARK    5  A    between atoms: C7_12  and  C31_48
REMARK    6  A    between atoms: C14_20  and  C30_47
REMARK    7  A    between atoms: C15_21  and  C27_42
REMARK    8  A    between atoms: C16_23  and  C25_40
REMARK    9  A    between atoms: C16_23  and  C26_41
REMARK   10  A    between atoms: C17_24  and  O8_39
REMARK   11  A    between atoms: C18_26  and  O5_31
REMARK   12  A    between atoms: O5_31  and  C20_32
REMARK   13  A    between atoms: C20_32  and  C21_33
REMARK   14  A    between atoms: C21_33  and  C22_34
REMARK   15  A    between atoms: C22_34  and  C23_35
REMARK   16  A    between atoms: C23_35  and  C24_36
REMARK   17  A    between atoms: C27_42  and  C28_43
REMARK   18  A    between atoms: C28_43  and  O10_45
REMARK   19  A    between atoms: O10_45  and  C29_46
REMARK                            x       y       z     vdW  Elec       q    Type
REMARK                         _______ _______ _______ _____ _____    ______ ____
ROOT
ATOM      4  C   UNL     1      51.769  14.005  18.595  0.00  0.00    +0.180 C 
ATOM      5  C   UNL     1      52.533  13.053  19.481  0.00  0.00    +0.360 C 
ATOM      6  C   UNL     1      53.783  13.582  20.143  0.00  0.00    +0.045 C 
ATOM      7  C   UNL     1      53.454  14.887  20.870  0.00  0.00    +0.089 C 
ATOM     13  C   UNL     1      52.759  15.898  19.955  0.00  0.00    -0.052 C 
ATOM     14  C   UNL     1      53.728  16.303  18.832  0.00  0.00    +0.046 C 
ATOM     15  C   UNL     1      52.427  17.149  20.771  0.00  0.00    +0.021 C 
ATOM     16  C   UNL     1      51.266  16.993  21.734  0.00  0.00    +0.016 C 
ATOM     17  C   UNL     1      50.009  16.404  21.086  0.00  0.00    +0.048 C 
ATOM     18  C   UNL     1      49.422  17.332  20.017  0.00  0.00    -0.044 C 
ATOM     19  C   UNL     1      49.376  18.755  20.649  0.00  0.00    +0.029 C 
ATOM     20  C   UNL     1      47.985  16.966  19.704  0.00  0.00    +0.034 C 
ATOM     26  C   UNL     1      47.402  17.491  18.402  0.00  0.00    -0.044 C 
ATOM     27  C   UNL     1      46.865  18.914  18.578  0.00  0.00    +0.038 C 
ATOM     28  C   UNL     1      46.201  16.593  18.028  0.00  0.00    +0.040 C 
ATOM     29  C   UNL     1      48.390  17.443  17.247  0.00  0.00    +0.156 C 
ATOM     32  C   UNL     1      49.689  18.137  17.629  0.00  0.00    +0.144 C 
ATOM     41  C   UNL     1      50.343  17.423  18.817  0.00  0.00    +0.182 C 
ATOM     42  O   UNL     1      50.908  16.207  18.396  0.00  0.00    -0.330 OA
ATOM     43  C   UNL     1      50.498  15.099  20.462  0.00  0.00    -0.144 C 
ATOM     44  C   UNL     1      50.126  13.926  20.918  0.00  0.00    +0.037 C 
ATOM     45  O   UNL     1      52.168  11.915  19.650  0.00  0.00    -0.431 OA
ATOM     46  C   UNL     1      51.489  15.309  19.337  0.00  0.00    +0.205 C 
ENDROOT
BRANCH   7   8
ATOM      8  C   UNL     1      54.756  15.456  21.371  0.00  0.00    -0.165 A 
ATOM      9  C   UNL     1      56.050  15.152  20.888  0.00  0.00    -0.053 A 
ATOM     10  C   UNL     1      56.918  15.880  21.613  0.00  0.00    +0.162 A 
ATOM     11  O   UNL     1      56.222  16.604  22.505  0.00  0.00    -0.176 OA
ATOM     12  C   UNL     1      54.910  16.356  22.360  0.00  0.00    +0.161 A 
ENDBRANCH   7   8
BRANCH  29  30
ATOM     30  O   UNL     1      48.648  16.090  16.868  0.00  0.00    -0.540 OA
ATOM     31  H   UNL     1      49.312  15.647  17.415  0.00  0.00    +0.381 HD
ENDBRANCH  29  30
BRANCH   4   3
ATOM      3  O   UNL     1      50.545  13.412  18.163  0.00  0.00    -0.310 OA
BRANCH   3   2
ATOM      1  C   UNL     1      50.410  11.597  16.495  0.00  0.00    +0.158 C 
ATOM      2  C   UNL     1      50.464  13.055  16.871  0.00  0.00    +0.465 C 
ATOM     47  O   UNL     1      50.435  13.903  16.011  0.00  0.00    -0.515 OA
ENDBRANCH   3   2
ENDBRANCH   4   3
BRANCH  20  21
ATOM     21  C   UNL     1      47.703  15.465  19.781  0.00  0.00    +0.115 C 
BRANCH  21  22
ATOM     22  C   UNL     1      46.778  15.186  20.937  0.00  0.00    +0.466 C 
ATOM     25  O   UNL     1      46.291  16.102  21.556  0.00  0.00    -0.510 OA
BRANCH  22  23
ATOM     23  O   UNL     1      46.493  13.919  21.279  0.00  0.00    -0.349 OA
ATOM     24  C   UNL     1      45.743  13.724  22.479  0.00  0.00    +0.247 C 
ENDBRANCH  22  23
ENDBRANCH  21  22
ENDBRANCH  20  21
BRANCH  32  33
ATOM     33  O   UNL     1      50.593  18.095  16.517  0.00  0.00    -0.367 OA
BRANCH  33  34
ATOM     34  C   UNL     1      51.767  18.890  16.692  0.00  0.00    +0.152 C 
BRANCH  34  35
ATOM     35  C   UNL     1      51.427  20.363  16.453  0.00  0.00    +0.013 C 
BRANCH  35  36
ATOM     36  C   UNL     1      51.531  21.131  17.772  0.00  0.00    +0.028 C 
BRANCH  36  37
ATOM     37  C   UNL     1      52.480  20.393  18.718  0.00  0.00    -0.070 C 
BRANCH  37  38
ATOM     38  C   UNL     1      52.524  21.107  20.044  0.00  0.00    +0.488 C 
ATOM     39  O   UNL     1      52.544  20.466  21.081  0.00  0.00    -0.708 OA
ATOM     40  O   UNL     1      52.542  22.326  20.080  0.00  0.00    -0.701 OA
ENDBRANCH  37  38
ENDBRANCH  36  37
ENDBRANCH  35  36
ENDBRANCH  34  35
ENDBRANCH  33  34
ENDBRANCH  32  33
TORSDOF 13
ENDMDL
MODEL 7
REMARK VINA RESULT:      -5.4      3.219      8.604
REMARK  Name = ZINC95486230
REMARK  19 active torsions:
REMARK  status: ('A' for Active; 'I' for Inactive)
REMARK    1  A    between atoms: C1_1  and  C2_2
REMARK    2  A    between atoms: C2_2  and  O2_4
REMARK    3  A    between atoms: O2_4  and  C3_5
REMARK    4  A    between atoms: C6_10  and  C32_49
REMARK    5  A    between atoms: C7_12  and  C31_48
REMARK    6  A    between atoms: C14_20  and  C30_47
REMARK    7  A    between atoms: C15_21  and  C27_42
REMARK    8  A    between atoms: C16_23  and  C25_40
REMARK    9  A    between atoms: C16_23  and  C26_41
REMARK   10  A    between atoms: C17_24  and  O8_39
REMARK   11  A    between atoms: C18_26  and  O5_31
REMARK   12  A    between atoms: O5_31  and  C20_32
REMARK   13  A    between atoms: C20_32  and  C21_33
REMARK   14  A    between atoms: C21_33  and  C22_34
REMARK   15  A    between atoms: C22_34  and  C23_35
REMARK   16  A    between atoms: C23_35  and  C24_36
REMARK   17  A    between atoms: C27_42  and  C28_43
REMARK   18  A    between atoms: C28_43  and  O10_45
REMARK   19  A    between atoms: O10_45  and  C29_46
REMARK                            x       y       z     vdW  Elec       q    Type
REMARK                         _______ _______ _______ _____ _____    ______ ____
ROOT
ATOM      4  C   UNL     1      47.246  14.317  20.337  0.00  0.00    +0.180 C 
ATOM      5  C   UNL     1      47.730  12.894  20.466  0.00  0.00    +0.360 C 
ATOM      6  C   UNL     1      47.793  12.072  19.200  0.00  0.00    +0.045 C 
ATOM      7  C   UNL     1      48.580  12.842  18.138  0.00  0.00    +0.089 C 
ATOM     13  C   UNL     1      48.040  14.259  17.933  0.00  0.00    -0.052 C 
ATOM     14  C   UNL     1      46.608  14.172  17.380  0.00  0.00    +0.046 C 
ATOM     15  C   UNL     1      48.910  14.968  16.893  0.00  0.00    +0.021 C 
ATOM     16  C   UNL     1      50.277  15.397  17.390  0.00  0.00    +0.016 C 
ATOM     17  C   UNL     1      50.231  16.184  18.704  0.00  0.00    +0.048 C 
ATOM     18  C   UNL     1      49.506  17.525  18.547  0.00  0.00    -0.044 C 
ATOM     19  C   UNL     1      50.086  18.190  17.264  0.00  0.00    +0.029 C 
ATOM     20  C   UNL     1      49.838  18.463  19.691  0.00  0.00    +0.034 C 
ATOM     26  C   UNL     1      48.904  19.640  19.917  0.00  0.00    -0.044 C 
ATOM     27  C   UNL     1      49.281  20.818  19.014  0.00  0.00    +0.038 C 
ATOM     28  C   UNL     1      49.084  20.110  21.379  0.00  0.00    +0.040 C 
ATOM     29  C   UNL     1      47.438  19.281  19.727  0.00  0.00    +0.156 C 
ATOM     32  C   UNL     1      47.226  18.616  18.375  0.00  0.00    +0.144 C 
ATOM     41  C   UNL     1      48.028  17.313  18.293  0.00  0.00    +0.182 C 
ATOM     42  O   UNL     1      47.416  16.320  19.078  0.00  0.00    -0.330 OA
ATOM     43  C   UNL     1      49.468  15.263  19.654  0.00  0.00    -0.144 C 
ATOM     44  C   UNL     1      50.049  14.683  20.678  0.00  0.00    +0.037 C 
ATOM     45  O   UNL     1      48.048  12.428  21.533  0.00  0.00    -0.431 OA
ATOM     46  C   UNL     1      48.027  15.045  19.246  0.00  0.00    +0.205 C 
ENDROOT
BRANCH   7   8
ATOM      8  C   UNL     1      48.474  12.059  16.855  0.00  0.00    -0.165 A 
ATOM      9  C   UNL     1      49.441  11.991  15.826  0.00  0.00    -0.053 A 
ATOM     10  C   UNL     1      48.941  11.185  14.873  0.00  0.00    +0.162 A 
ATOM     11  O   UNL     1      47.728  10.764  15.267  0.00  0.00    -0.176 OA
ATOM     12  C   UNL     1      47.441  11.287  16.470  0.00  0.00    +0.161 A 
ENDBRANCH   7   8
BRANCH  29  30
ATOM     30  O   UNL     1      46.996  18.418  20.775  0.00  0.00    -0.540 OA
ATOM     31  H   UNL     1      46.344  18.819  21.367  0.00  0.00    +0.381 HD
ENDBRANCH  29  30
BRANCH   4   3
ATOM      3  O   UNL     1      47.381  15.005  21.581  0.00  0.00    -0.310 OA
BRANCH   3   2
ATOM      1  C   UNL     1      45.177  14.366  22.490  0.00  0.00    +0.158 C 
ATOM      2  C   UNL     1      46.248  15.383  22.193  0.00  0.00    +0.465 C 
ATOM     47  O   UNL     1      46.087  16.539  22.505  0.00  0.00    -0.515 OA
ENDBRANCH   3   2
ENDBRANCH   4   3
BRANCH  20  21
ATOM     21  C   UNL     1      50.039  17.751  21.030  0.00  0.00    +0.115 C 
BRANCH  21  22
ATOM     22  C   UNL     1      51.476  17.891  21.462  0.00  0.00    +0.466 C 
ATOM     25  O   UNL     1      51.939  17.127  22.277  0.00  0.00    -0.510 OA
BRANCH  22  23
ATOM     23  O   UNL     1      52.243  18.862  20.942  0.00  0.00    -0.349 OA
ATOM     24  C   UNL     1      52.666  19.899  21.829  0.00  0.00    +0.247 C 
ENDBRANCH  22  23
ENDBRANCH  21  22
ENDBRANCH  20  21
BRANCH  32  33
ATOM     33  O   UNL     1      45.835  18.308  18.213  0.00  0.00    -0.367 OA
BRANCH  33  34
ATOM     34  C   UNL     1      44.968  19.433  18.376  0.00  0.00    +0.152 C 
BRANCH  34  35
ATOM     35  C   UNL     1      43.887  19.099  19.407  0.00  0.00    +0.013 C 
BRANCH  35  36
ATOM     36  C   UNL     1      43.350  20.394  20.021  0.00  0.00    +0.028 C 
BRANCH  36  37
ATOM     37  C   UNL     1      44.405  20.991  20.954  0.00  0.00    -0.070 C 
BRANCH  37  38
ATOM     38  C   UNL     1      44.509  22.474  20.710  0.00  0.00    +0.488 C 
ATOM     39  O   UNL     1      44.905  23.211  21.597  0.00  0.00    -0.708 OA
ATOM     40  O   UNL     1      44.199  22.937  19.626  0.00  0.00    -0.701 OA
ENDBRANCH  37  38
ENDBRANCH  36  37
ENDBRANCH  35  36
ENDBRANCH  34  35
ENDBRANCH  33  34
ENDBRANCH  32  33
TORSDOF 13
ENDMDL
MODEL 8
REMARK VINA RESULT:      -5.4      3.271      6.963
REMARK  Name = ZINC95486230
REMARK  19 active torsions:
REMARK  status: ('A' for Active; 'I' for Inactive)
REMARK    1  A    between atoms: C1_1  and  C2_2
REMARK    2  A    between atoms: C2_2  and  O2_4
REMARK    3  A    between atoms: O2_4  and  C3_5
REMARK    4  A    between atoms: C6_10  and  C32_49
REMARK    5  A    between atoms: C7_12  and  C31_48
REMARK    6  A    between atoms: C14_20  and  C30_47
REMARK    7  A    between atoms: C15_21  and  C27_42
REMARK    8  A    between atoms: C16_23  and  C25_40
REMARK    9  A    between atoms: C16_23  and  C26_41
REMARK   10  A    between atoms: C17_24  and  O8_39
REMARK   11  A    between atoms: C18_26  and  O5_31
REMARK   12  A    between atoms: O5_31  and  C20_32
REMARK   13  A    between atoms: C20_32  and  C21_33
REMARK   14  A    between atoms: C21_33  and  C22_34
REMARK   15  A    between atoms: C22_34  and  C23_35
REMARK   16  A    between atoms: C23_35  and  C24_36
REMARK   17  A    between atoms: C27_42  and  C28_43
REMARK   18  A    between atoms: C28_43  and  O10_45
REMARK   19  A    between atoms: O10_45  and  C29_46
REMARK                            x       y       z     vdW  Elec       q    Type
REMARK                         _______ _______ _______ _____ _____    ______ ____
ROOT
ATOM      4  C   UNL     1      49.047  13.357  18.112  0.00  0.00    +0.180 C 
ATOM      5  C   UNL     1      49.258  11.985  18.699  0.00  0.00    +0.360 C 
ATOM      6  C   UNL     1      50.658  11.633  19.142  0.00  0.00    +0.045 C 
ATOM      7  C   UNL     1      51.183  12.730  20.070  0.00  0.00    +0.089 C 
ATOM     13  C   UNL     1      51.059  14.122  19.448  0.00  0.00    -0.052 C 
ATOM     14  C   UNL     1      51.957  14.194  18.202  0.00  0.00    +0.046 C 
ATOM     15  C   UNL     1      51.561  15.157  20.457  0.00  0.00    +0.021 C 
ATOM     16  C   UNL     1      50.622  15.425  21.617  0.00  0.00    +0.016 C 
ATOM     17  C   UNL     1      49.184  15.727  21.183  0.00  0.00    +0.048 C 
ATOM     18  C   UNL     1      49.087  17.028  20.378  0.00  0.00    -0.044 C 
ATOM     19  C   UNL     1      49.899  18.095  21.168  0.00  0.00    +0.029 C 
ATOM     20  C   UNL     1      47.659  17.537  20.333  0.00  0.00    +0.034 C 
ATOM     26  C   UNL     1      47.318  18.551  19.253  0.00  0.00    -0.044 C 
ATOM     27  C   UNL     1      47.673  19.970  19.705  0.00  0.00    +0.038 C 
ATOM     28  C   UNL     1      45.788  18.510  19.037  0.00  0.00    +0.040 C 
ATOM     29  C   UNL     1      47.980  18.244  17.919  0.00  0.00    +0.156 C 
ATOM     32  C   UNL     1      49.480  18.064  18.099  0.00  0.00    +0.144 C 
ATOM     41  C   UNL     1      49.764  16.880  19.030  0.00  0.00    +0.182 C 
ATOM     42  O   UNL     1      49.518  15.670  18.360  0.00  0.00    -0.330 OA
ATOM     43  C   UNL     1      48.804  14.525  20.320  0.00  0.00    -0.144 C 
ATOM     44  C   UNL     1      47.904  13.650  20.703  0.00  0.00    +0.037 C 
ATOM     45  O   UNL     1      48.350  11.196  18.806  0.00  0.00    -0.431 OA
ATOM     46  C   UNL     1      49.613  14.425  19.045  0.00  0.00    +0.205 C 
ENDROOT
BRANCH   7   8
ATOM      8  C   UNL     1      52.630  12.419  20.350  0.00  0.00    -0.165 A 
ATOM      9  C   UNL     1      53.382  12.837  21.472  0.00  0.00    -0.053 A 
ATOM     10  C   UNL     1      54.621  12.337  21.320  0.00  0.00    +0.162 A 
ATOM     11  O   UNL     1      54.660  11.642  20.171  0.00  0.00    -0.176 OA
ATOM     12  C   UNL     1      53.455  11.684  19.581  0.00  0.00    +0.161 A 
ENDBRANCH   7   8
BRANCH  29  30
ATOM     30  O   UNL     1      47.409  17.071  17.337  0.00  0.00    -0.540 OA
ATOM     31  H   UNL     1      48.007  16.594  16.744  0.00  0.00    +0.381 HD
ENDBRANCH  29  30
BRANCH   4   3
ATOM      3  O   UNL     1      47.658  13.594  17.880  0.00  0.00    -0.310 OA
BRANCH   3   2
ATOM      1  C   UNL     1      47.343  12.447  15.717  0.00  0.00    +0.158 C 
ATOM      2  C   UNL     1      47.259  13.665  16.600  0.00  0.00    +0.465 C 
ATOM     47  O   UNL     1      46.833  14.705  16.157  0.00  0.00    -0.515 OA
ENDBRANCH   3   2
ENDBRANCH   4   3
BRANCH  20  21
ATOM     21  C   UNL     1      46.611  16.424  20.289  0.00  0.00    +0.115 C 
BRANCH  21  22
ATOM     22  C   UNL     1      45.785  16.463  21.549  0.00  0.00    +0.466 C 
ATOM     25  O   UNL     1      46.170  17.092  22.505  0.00  0.00    -0.510 OA
BRANCH  22  23
ATOM     23  O   UNL     1      44.619  15.800  21.607  0.00  0.00    -0.349 OA
ATOM     24  C   UNL     1      43.595  16.361  22.431  0.00  0.00    +0.247 C 
ENDBRANCH  22  23
ENDBRANCH  21  22
ENDBRANCH  20  21
BRANCH  32  33
ATOM     33  O   UNL     1      50.080  17.797  16.824  0.00  0.00    -0.367 OA
BRANCH  33  34
ATOM     34  C   UNL     1      51.452  18.187  16.735  0.00  0.00    +0.152 C 
BRANCH  34  35
ATOM     35  C   UNL     1      51.598  19.308  15.703  0.00  0.00    +0.013 C 
BRANCH  35  36
ATOM     36  C   UNL     1      52.191  20.547  16.377  0.00  0.00    +0.028 C 
BRANCH  36  37
ATOM     37  C   UNL     1      51.180  21.119  17.372  0.00  0.00    -0.070 C 
BRANCH  37  38
ATOM     38  C   UNL     1      51.737  21.018  18.768  0.00  0.00    +0.488 C 
ATOM     39  O   UNL     1      52.929  20.822  18.936  0.00  0.00    -0.708 OA
ATOM     40  O   UNL     1      50.997  21.135  19.730  0.00  0.00    -0.701 OA
ENDBRANCH  37  38
ENDBRANCH  36  37
ENDBRANCH  35  36
ENDBRANCH  34  35
ENDBRANCH  33  34
ENDBRANCH  32  33
TORSDOF 13
ENDMDL
MODEL 9
REMARK VINA RESULT:      -5.3      2.889      5.988
REMARK  Name = ZINC95486230
REMARK  19 active torsions:
REMARK  status: ('A' for Active; 'I' for Inactive)
REMARK    1  A    between atoms: C1_1  and  C2_2
REMARK    2  A    between atoms: C2_2  and  O2_4
REMARK    3  A    between atoms: O2_4  and  C3_5
REMARK    4  A    between atoms: C6_10  and  C32_49
REMARK    5  A    between atoms: C7_12  and  C31_48
REMARK    6  A    between atoms: C14_20  and  C30_47
REMARK    7  A    between atoms: C15_21  and  C27_42
REMARK    8  A    between atoms: C16_23  and  C25_40
REMARK    9  A    between atoms: C16_23  and  C26_41
REMARK   10  A    between atoms: C17_24  and  O8_39
REMARK   11  A    between atoms: C18_26  and  O5_31
REMARK   12  A    between atoms: O5_31  and  C20_32
REMARK   13  A    between atoms: C20_32  and  C21_33
REMARK   14  A    between atoms: C21_33  and  C22_34
REMARK   15  A    between atoms: C22_34  and  C23_35
REMARK   16  A    between atoms: C23_35  and  C24_36
REMARK   17  A    between atoms: C27_42  and  C28_43
REMARK   18  A    between atoms: C28_43  and  O10_45
REMARK   19  A    between atoms: O10_45  and  C29_46
REMARK                            x       y       z     vdW  Elec       q    Type
REMARK                         _______ _______ _______ _____ _____    ______ ____
ROOT
ATOM      4  C   UNL     1      48.036  16.381  19.482  0.00  0.00    +0.180 C 
ATOM      5  C   UNL     1      47.457  17.508  18.666  0.00  0.00    +0.360 C 
ATOM      6  C   UNL     1      48.392  18.629  18.279  0.00  0.00    +0.045 C 
ATOM      7  C   UNL     1      49.640  18.040  17.621  0.00  0.00    +0.089 C 
ATOM     13  C   UNL     1      50.291  16.957  18.483  0.00  0.00    -0.052 C 
ATOM     14  C   UNL     1      50.795  17.593  19.789  0.00  0.00    +0.046 C 
ATOM     15  C   UNL     1      51.499  16.393  17.732  0.00  0.00    +0.021 C 
ATOM     16  C   UNL     1      51.158  15.479  16.570  0.00  0.00    +0.016 C 
ATOM     17  C   UNL     1      50.165  14.370  16.935  0.00  0.00    +0.048 C 
ATOM     18  C   UNL     1      50.747  13.391  17.961  0.00  0.00    -0.044 C 
ATOM     19  C   UNL     1      52.172  13.021  17.455  0.00  0.00    +0.029 C 
ATOM     20  C   UNL     1      49.962  12.094  17.985  0.00  0.00    +0.034 C 
ATOM     26  C   UNL     1      50.129  11.204  19.205  0.00  0.00    -0.044 C 
ATOM     27  C   UNL     1      51.360  10.304  19.060  0.00  0.00    +0.038 C 
ATOM     28  C   UNL     1      48.894  10.278  19.285  0.00  0.00    +0.040 C 
ATOM     29  C   UNL     1      50.202  11.987  20.507  0.00  0.00    +0.156 C 
ATOM     32  C   UNL     1      51.272  13.065  20.419  0.00  0.00    +0.144 C 
ATOM     41  C   UNL     1      50.928  14.063  19.307  0.00  0.00    +0.182 C 
ATOM     42  O   UNL     1      49.870  14.893  19.714  0.00  0.00    -0.330 OA
ATOM     43  C   UNL     1      48.975  15.126  17.522  0.00  0.00    -0.144 C 
ATOM     44  C   UNL     1      47.816  15.183  16.909  0.00  0.00    +0.037 C 
ATOM     45  O   UNL     1      46.295  17.520  18.338  0.00  0.00    -0.431 OA
ATOM     46  C   UNL     1      49.299  15.840  18.817  0.00  0.00    +0.205 C 
ENDROOT
BRANCH   7   8
ATOM      8  C   UNL     1      50.606  19.177  17.406  0.00  0.00    -0.165 A 
ATOM      9  C   UNL     1      51.612  19.253  16.415  0.00  0.00    -0.053 A 
ATOM     10  C   UNL     1      52.236  20.432  16.583  0.00  0.00    +0.162 A 
ATOM     11  O   UNL     1      51.666  21.070  17.618  0.00  0.00    -0.176 OA
ATOM     12  C   UNL     1      50.674  20.316  18.118  0.00  0.00    +0.161 A 
ENDBRANCH   7   8
BRANCH  29  30
ATOM     30  O   UNL     1      48.935  12.572  20.809  0.00  0.00    -0.540 OA
ATOM     31  H   UNL     1      48.830  13.476  20.479  0.00  0.00    +0.381 HD
ENDBRANCH  29  30
BRANCH   4   3
ATOM      3  O   UNL     1      47.078  15.335  19.641  0.00  0.00    -0.310 OA
BRANCH   3   2
ATOM      1  C   UNL     1      45.063  15.549  21.051  0.00  0.00    +0.158 C 
ATOM      2  C   UNL     1      46.516  15.203  20.854  0.00  0.00    +0.465 C 
ATOM     47  O   UNL     1      47.176  14.808  21.785  0.00  0.00    -0.515 OA
ENDBRANCH   3   2
ENDBRANCH   4   3
BRANCH  20  21
ATOM     21  C   UNL     1      48.464  12.278  17.732  0.00  0.00    +0.115 C 
BRANCH  21  22
ATOM     22  C   UNL     1      48.103  11.679  16.398  0.00  0.00    +0.466 C 
ATOM     25  O   UNL     1      48.971  11.271  15.663  0.00  0.00    -0.510 OA
BRANCH  22  23
ATOM     23  O   UNL     1      46.815  11.595  16.026  0.00  0.00    -0.349 OA
ATOM     24  C   UNL     1      45.835  11.985  16.990  0.00  0.00    +0.247 C 
ENDBRANCH  22  23
ENDBRANCH  21  22
ENDBRANCH  20  21
BRANCH  32  33
ATOM     33  O   UNL     1      51.333  13.773  21.664  0.00  0.00    -0.367 OA
BRANCH  33  34
ATOM     34  C   UNL     1      52.647  14.207  22.022  0.00  0.00    +0.152 C 
BRANCH  34  35
ATOM     35  C   UNL     1      52.636  15.718  22.267  0.00  0.00    +0.013 C 
BRANCH  35  36
ATOM     36  C   UNL     1      53.745  16.376  21.442  0.00  0.00    +0.028 C 
BRANCH  36  37
ATOM     37  C   UNL     1      54.258  15.386  20.396  0.00  0.00    -0.070 C 
BRANCH  37  38
ATOM     38  C   UNL     1      55.737  15.590  20.193  0.00  0.00    +0.488 C 
ATOM     39  O   UNL     1      56.274  15.187  19.176  0.00  0.00    -0.708 OA
ATOM     40  O   UNL     1      56.396  16.160  21.046  0.00  0.00    -0.701 OA
ENDBRANCH  37  38
ENDBRANCH  36  37
ENDBRANCH  35  36
ENDBRANCH  34  35
ENDBRANCH  33  34
ENDBRANCH  32  33
TORSDOF 13
ENDMDL
