MODEL 1
REMARK VINA RESULT:      -6.2      0.000      0.000
REMARK  Name = ZINC95486163
REMARK  23 active torsions:
REMARK  status: ('A' for Active; 'I' for Inactive)
REMARK    1  A    between atoms: C1_1  and  C2_2
REMARK    2  A    between atoms: C2_2  and  C39_47
REMARK    3  A    between atoms: C3_3  and  C4_4
REMARK    4  A    between atoms: C4_4  and  C5_5
REMARK    5  A    between atoms: C7_8  and  C28_35
REMARK    6  A    between atoms: C9_10  and  C21_24
REMARK    7  A    between atoms: C11_13  and  C16_19
REMARK    8  A    between atoms: C13_16  and  C14_17
REMARK    9  A    between atoms: C13_16  and  C15_18
REMARK   10  A    between atoms: C16_19  and  C17_20
REMARK   11  A    between atoms: C18_21  and  C19_22
REMARK   12  A    between atoms: C18_21  and  C20_23
REMARK   13  A    between atoms: C21_24  and  C22_26
REMARK   14  A    between atoms: C25_29  and  O5_33
REMARK   15  A    between atoms: C26_30  and  O4_32
REMARK   16  A    between atoms: C28_35  and  C29_36
REMARK   17  A    between atoms: C29_36  and  C30_37
REMARK   18  A    between atoms: C30_37  and  C31_39
REMARK   19  A    between atoms: C30_37  and  C36_44
REMARK   20  A    between atoms: C31_39  and  C32_40
REMARK   21  A    between atoms: C32_40  and  C33_41
REMARK   22  A    between atoms: C33_41  and  C35_43
REMARK   23  A    between atoms: C36_44  and  C38_46
REMARK                            x       y       z     vdW  Elec       q    Type
REMARK                         _______ _______ _______ _____ _____    ______ ____
ROOT
ATOM      6  C   UNL     1      48.363  17.105  21.288  0.00  0.00    -0.010 C 
ATOM      7  C   UNL     1      48.369  16.205  20.063  0.00  0.00    +0.085 C 
ATOM      8  C   UNL     1      48.162  16.976  18.760  0.00  0.00    -0.139 C 
ATOM     20  C   UNL     1      46.791  17.618  18.748  0.00  0.00    +0.388 C 
ATOM     21  O   UNL     1      45.951  17.249  17.953  0.00  0.00    -0.398 OA
ATOM     22  C   UNL     1      46.473  18.721  19.730  0.00  0.00    -0.070 C 
ATOM     35  C   UNL     1      47.659  19.647  19.868  0.00  0.00    +0.384 C 
ATOM     36  C   UNL     1      49.065  19.090  19.885  0.00  0.00    -0.125 C 
ATOM     42  O   UNL     1      47.479  20.846  19.960  0.00  0.00    -0.385 OA
ATOM     43  C   UNL     1      49.176  18.110  18.727  0.00  0.00    +0.385 C 
ATOM     44  O   UNL     1      49.997  18.224  17.850  0.00  0.00    -0.394 OA
ATOM     45  C   UNL     1      49.299  18.300  21.176  0.00  0.00    -0.036 C 
ATOM     46  C   UNL     1      50.754  17.814  21.215  0.00  0.00    +0.049 C 
ATOM     47  C   UNL     1      49.069  19.228  22.379  0.00  0.00    +0.046 C 
ENDROOT
BRANCH  22  23
ATOM     23  C   UNL     1      45.295  19.516  19.203  0.00  0.00    +0.416 C 
ATOM     34  O   UNL     1      45.429  20.226  18.230  0.00  0.00    -0.408 OA
BRANCH  23  24
ATOM     24  C   UNL     1      43.991  19.426  19.873  0.00  0.00    -0.152 A 
ATOM     25  C   UNL     1      43.826  18.585  20.981  0.00  0.00    +0.068 A 
ATOM     26  C   UNL     1      42.603  18.504  21.606  0.00  0.00    +0.005 A 
ATOM     27  C   UNL     1      41.529  19.253  21.141  0.00  0.00    +0.119 A 
ATOM     30  C   UNL     1      41.685  20.093  20.039  0.00  0.00    +0.073 A 
ATOM     33  C   UNL     1      42.910  20.186  19.408  0.00  0.00    +0.080 A 
BRANCH  27  28
ATOM     28  O   UNL     1      40.325  19.168  21.762  0.00  0.00    -0.484 OA
ATOM     29  H   UNL     1      40.378  19.192  22.728  0.00  0.00    +0.395 HD
ENDBRANCH  27  28
BRANCH  30  31
ATOM     31  O   UNL     1      40.632  20.825  19.587  0.00  0.00    -0.482 OA
ATOM     32  H   UNL     1      40.325  21.499  20.208  0.00  0.00    +0.391 HD
ENDBRANCH  30  31
ENDBRANCH  23  24
ENDBRANCH  22  23
BRANCH   6   5
ATOM      5  C   UNL     1      48.800  16.267  22.505  0.00  0.00    +0.070 C 
BRANCH   5   4
ATOM      1  C   UNL     1      50.881  14.363  22.505  0.00  0.00    +0.072 C 
ATOM      2  C   UNL     1      49.468  13.939  22.193  0.00  0.00    -0.121 C 
ATOM      3  C   UNL     1      49.177  12.509  21.815  0.00  0.00    +0.072 C 
ATOM      4  C   UNL     1      48.494  14.813  22.251  0.00  0.00    -0.068 C 
ENDBRANCH   5   4
ENDBRANCH   6   5
BRANCH   8   9
ATOM      9  C   UNL     1      48.341  16.056  17.543  0.00  0.00    +0.076 C 
BRANCH   9  10
ATOM     10  C   UNL     1      48.168  14.599  17.976  0.00  0.00    +0.020 C 
BRANCH  10  11
ATOM     11  C   UNL     1      46.986  13.981  17.227  0.00  0.00    +0.028 C 
BRANCH  11  12
ATOM     12  C   UNL     1      47.401  12.661  16.632  0.00  0.00    -0.103 C 
ATOM     13  C   UNL     1      48.863  12.344  16.450  0.00  0.00    +0.071 C 
ATOM     14  C   UNL     1      46.492  11.788  16.274  0.00  0.00    -0.017 C 
ENDBRANCH  11  12
BRANCH  11  15
ATOM     15  C   UNL     1      45.826  13.761  18.200  0.00  0.00    +0.025 C 
BRANCH  15  16
ATOM     16  C   UNL     1      46.377  13.341  19.564  0.00  0.00    +0.053 C 
BRANCH  16  17
ATOM     17  C   UNL     1      45.502  13.903  20.655  0.00  0.00    -0.123 C 
ATOM     18  C   UNL     1      45.215  13.085  21.887  0.00  0.00    +0.070 C 
ATOM     19  C   UNL     1      44.993  15.104  20.532  0.00  0.00    -0.010 C 
ENDBRANCH  16  17
ENDBRANCH  15  16
ENDBRANCH  11  15
ENDBRANCH  10  11
ENDBRANCH   9  10
ENDBRANCH   8   9
BRANCH  36  37
ATOM     37  C   UNL     1      50.099  20.217  19.741  0.00  0.00    +0.117 C 
BRANCH  37  38
ATOM     38  C   UNL     1      50.171  20.650  18.299  0.00  0.00    -0.071 C 
ATOM     39  C   UNL     1      51.329  20.950  17.763  0.00  0.00    -0.106 C 
ATOM     40  C   UNL     1      51.419  21.268  16.294  0.00  0.00    +0.070 C 
ATOM     41  C   UNL     1      52.570  20.978  18.618  0.00  0.00    +0.075 C 
ENDBRANCH  37  38
ENDBRANCH  36  37
TORSDOF 15
ENDMDL
MODEL 2
REMARK VINA RESULT:      -5.9      2.977      8.256
REMARK  Name = ZINC95486163
REMARK  23 active torsions:
REMARK  status: ('A' for Active; 'I' for Inactive)
REMARK    1  A    between atoms: C1_1  and  C2_2
REMARK    2  A    between atoms: C2_2  and  C39_47
REMARK    3  A    between atoms: C3_3  and  C4_4
REMARK    4  A    between atoms: C4_4  and  C5_5
REMARK    5  A    between atoms: C7_8  and  C28_35
REMARK    6  A    between atoms: C9_10  and  C21_24
REMARK    7  A    between atoms: C11_13  and  C16_19
REMARK    8  A    between atoms: C13_16  and  C14_17
REMARK    9  A    between atoms: C13_16  and  C15_18
REMARK   10  A    between atoms: C16_19  and  C17_20
REMARK   11  A    between atoms: C18_21  and  C19_22
REMARK   12  A    between atoms: C18_21  and  C20_23
REMARK   13  A    between atoms: C21_24  and  C22_26
REMARK   14  A    between atoms: C25_29  and  O5_33
REMARK   15  A    between atoms: C26_30  and  O4_32
REMARK   16  A    between atoms: C28_35  and  C29_36
REMARK   17  A    between atoms: C29_36  and  C30_37
REMARK   18  A    between atoms: C30_37  and  C31_39
REMARK   19  A    between atoms: C30_37  and  C36_44
REMARK   20  A    between atoms: C31_39  and  C32_40
REMARK   21  A    between atoms: C32_40  and  C33_41
REMARK   22  A    between atoms: C33_41  and  C35_43
REMARK   23  A    between atoms: C36_44  and  C38_46
REMARK                            x       y       z     vdW  Elec       q    Type
REMARK                         _______ _______ _______ _____ _____    ______ ____
ROOT
ATOM      6  C   UNL     1      49.628  16.987  18.456  0.00  0.00    -0.010 C 
ATOM      7  C   UNL     1      48.109  17.052  18.470  0.00  0.00    +0.085 C 
ATOM      8  C   UNL     1      47.459  15.682  18.652  0.00  0.00    -0.139 C 
ATOM     20  C   UNL     1      47.786  14.790  17.473  0.00  0.00    +0.388 C 
ATOM     21  O   UNL     1      46.906  14.432  16.716  0.00  0.00    -0.398 OA
ATOM     22  C   UNL     1      49.211  14.348  17.241  0.00  0.00    -0.070 C 
ATOM     35  C   UNL     1      49.865  14.002  18.558  0.00  0.00    +0.384 C 
ATOM     36  C   UNL     1      49.591  14.838  19.790  0.00  0.00    -0.125 C 
ATOM     42  O   UNL     1      50.610  13.044  18.628  0.00  0.00    -0.385 OA
ATOM     43  C   UNL     1      48.084  15.031  19.877  0.00  0.00    +0.385 C 
ATOM     44  O   UNL     1      47.437  14.692  20.837  0.00  0.00    -0.394 OA
ATOM     45  C   UNL     1      50.221  16.224  19.631  0.00  0.00    -0.036 C 
ATOM     46  C   UNL     1      50.006  17.028  20.921  0.00  0.00    +0.049 C 
ATOM     47  C   UNL     1      51.733  16.065  19.410  0.00  0.00    +0.046 C 
ENDROOT
BRANCH  22  23
ATOM     23  C   UNL     1      49.201  13.112  16.365  0.00  0.00    +0.416 C 
ATOM     34  O   UNL     1      48.635  12.107  16.741  0.00  0.00    -0.408 OA
BRANCH  23  24
ATOM     24  C   UNL     1      49.875  13.130  15.061  0.00  0.00    -0.152 A 
ATOM     25  C   UNL     1      49.179  12.759  13.904  0.00  0.00    +0.068 A 
ATOM     26  C   UNL     1      49.814  12.778  12.683  0.00  0.00    +0.005 A 
ATOM     27  C   UNL     1      51.146  13.164  12.594  0.00  0.00    +0.119 A 
ATOM     30  C   UNL     1      51.846  13.536  13.741  0.00  0.00    +0.073 A 
ATOM     33  C   UNL     1      51.216  13.526  14.969  0.00  0.00    +0.080 A 
BRANCH  27  28
ATOM     28  O   UNL     1      51.767  13.179  11.387  0.00  0.00    -0.484 OA
ATOM     29  H   UNL     1      51.852  14.062  11.000  0.00  0.00    +0.395 HD
ENDBRANCH  27  28
BRANCH  30  31
ATOM     31  O   UNL     1      53.149  13.913  13.650  0.00  0.00    -0.482 OA
ATOM     32  H   UNL     1      53.764  13.178  13.517  0.00  0.00    +0.391 HD
ENDBRANCH  30  31
ENDBRANCH  23  24
ENDBRANCH  22  23
BRANCH   6   5
ATOM      5  C   UNL     1      50.174  18.428  18.495  0.00  0.00    +0.070 C 
BRANCH   5   4
ATOM      1  C   UNL     1      51.296  20.979  18.061  0.00  0.00    +0.072 C 
ATOM      2  C   UNL     1      51.382  19.922  16.989  0.00  0.00    -0.121 C 
ATOM      3  C   UNL     1      52.010  20.249  15.657  0.00  0.00    +0.072 C 
ATOM      4  C   UNL     1      50.911  18.720  17.213  0.00  0.00    -0.068 C 
ENDBRANCH   5   4
ENDBRANCH   6   5
BRANCH   8   9
ATOM      9  C   UNL     1      45.939  15.814  18.828  0.00  0.00    +0.076 C 
BRANCH   9  10
ATOM     10  C   UNL     1      45.545  17.290  18.764  0.00  0.00    +0.020 C 
BRANCH  10  11
ATOM     11  C   UNL     1      44.563  17.606  19.895  0.00  0.00    +0.028 C 
BRANCH  11  12
ATOM     12  C   UNL     1      45.251  17.424  21.223  0.00  0.00    -0.103 C 
ATOM     13  C   UNL     1      44.694  16.452  22.232  0.00  0.00    +0.071 C 
ATOM     14  C   UNL     1      46.331  18.109  21.502  0.00  0.00    -0.017 C 
ENDBRANCH  11  12
BRANCH  11  15
ATOM     15  C   UNL     1      44.081  19.051  19.762  0.00  0.00    +0.025 C 
BRANCH  15  16
ATOM     16  C   UNL     1      44.722  19.692  18.529  0.00  0.00    +0.053 C 
BRANCH  16  17
ATOM     17  C   UNL     1      45.630  20.814  18.960  0.00  0.00    -0.123 C 
ATOM     18  C   UNL     1      47.126  20.639  18.904  0.00  0.00    +0.070 C 
ATOM     19  C   UNL     1      45.118  21.944  19.383  0.00  0.00    -0.010 C 
ENDBRANCH  16  17
ENDBRANCH  15  16
ENDBRANCH  11  15
ENDBRANCH  10  11
ENDBRANCH   9  10
ENDBRANCH   8   9
BRANCH  36  37
ATOM     37  C   UNL     1      50.121  14.139  21.051  0.00  0.00    +0.117 C 
BRANCH  37  38
ATOM     38  C   UNL     1      49.482  12.780  21.177  0.00  0.00    -0.071 C 
ATOM     39  C   UNL     1      50.110  11.817  21.807  0.00  0.00    -0.106 C 
ATOM     40  C   UNL     1      49.426  10.495  22.037  0.00  0.00    +0.070 C 
ATOM     41  C   UNL     1      51.518  12.032  22.299  0.00  0.00    +0.075 C 
ENDBRANCH  37  38
ENDBRANCH  36  37
TORSDOF 15
ENDMDL
MODEL 3
REMARK VINA RESULT:      -5.8      1.297      2.360
REMARK  Name = ZINC95486163
REMARK  23 active torsions:
REMARK  status: ('A' for Active; 'I' for Inactive)
REMARK    1  A    between atoms: C1_1  and  C2_2
REMARK    2  A    between atoms: C2_2  and  C39_47
REMARK    3  A    between atoms: C3_3  and  C4_4
REMARK    4  A    between atoms: C4_4  and  C5_5
REMARK    5  A    between atoms: C7_8  and  C28_35
REMARK    6  A    between atoms: C9_10  and  C21_24
REMARK    7  A    between atoms: C11_13  and  C16_19
REMARK    8  A    between atoms: C13_16  and  C14_17
REMARK    9  A    between atoms: C13_16  and  C15_18
REMARK   10  A    between atoms: C16_19  and  C17_20
REMARK   11  A    between atoms: C18_21  and  C19_22
REMARK   12  A    between atoms: C18_21  and  C20_23
REMARK   13  A    between atoms: C21_24  and  C22_26
REMARK   14  A    between atoms: C25_29  and  O5_33
REMARK   15  A    between atoms: C26_30  and  O4_32
REMARK   16  A    between atoms: C28_35  and  C29_36
REMARK   17  A    between atoms: C29_36  and  C30_37
REMARK   18  A    between atoms: C30_37  and  C31_39
REMARK   19  A    between atoms: C30_37  and  C36_44
REMARK   20  A    between atoms: C31_39  and  C32_40
REMARK   21  A    between atoms: C32_40  and  C33_41
REMARK   22  A    between atoms: C33_41  and  C35_43
REMARK   23  A    between atoms: C36_44  and  C38_46
REMARK                            x       y       z     vdW  Elec       q    Type
REMARK                         _______ _______ _______ _____ _____    ______ ____
ROOT
ATOM      6  C   UNL     1      48.221  16.095  20.970  0.00  0.00    -0.010 C 
ATOM      7  C   UNL     1      48.221  15.294  19.678  0.00  0.00    +0.085 C 
ATOM      8  C   UNL     1      48.104  16.175  18.435  0.00  0.00    -0.139 C 
ATOM     20  C   UNL     1      46.772  16.894  18.431  0.00  0.00    +0.388 C 
ATOM     21  O   UNL     1      45.942  16.637  17.583  0.00  0.00    -0.398 OA
ATOM     22  C   UNL     1      46.479  17.934  19.487  0.00  0.00    -0.070 C 
ATOM     35  C   UNL     1      47.708  18.776  19.736  0.00  0.00    +0.384 C 
ATOM     36  C   UNL     1      49.081  18.140  19.752  0.00  0.00    -0.125 C 
ATOM     42  O   UNL     1      47.591  19.973  19.918  0.00  0.00    -0.385 OA
ATOM     43  C   UNL     1      49.179  17.248  18.524  0.00  0.00    +0.385 C 
ATOM     44  O   UNL     1      50.036  17.383  17.685  0.00  0.00    -0.394 OA
ATOM     45  C   UNL     1      49.224  17.240  20.983  0.00  0.00    -0.036 C 
ATOM     46  C   UNL     1      50.648  16.670  21.029  0.00  0.00    +0.049 C 
ATOM     47  C   UNL     1      49.002  18.083  22.248  0.00  0.00    +0.046 C 
ENDROOT
BRANCH  22  23
ATOM     23  C   UNL     1      45.366  18.833  18.989  0.00  0.00    +0.416 C 
ATOM     34  O   UNL     1      45.517  19.480  17.975  0.00  0.00    -0.408 OA
BRANCH  23  24
ATOM     24  C   UNL     1      44.105  18.921  19.735  0.00  0.00    -0.152 A 
ATOM     25  C   UNL     1      43.900  18.122  20.867  0.00  0.00    +0.068 A 
ATOM     26  C   UNL     1      42.716  18.209  21.564  0.00  0.00    +0.005 A 
ATOM     27  C   UNL     1      41.722  19.085  21.148  0.00  0.00    +0.119 A 
ATOM     30  C   UNL     1      41.918  19.885  20.022  0.00  0.00    +0.073 A 
ATOM     33  C   UNL     1      43.104  19.810  19.320  0.00  0.00    +0.080 A 
BRANCH  27  28
ATOM     28  O   UNL     1      40.557  19.164  21.840  0.00  0.00    -0.484 OA
ATOM     29  H   UNL     1      40.293  20.068  22.064  0.00  0.00    +0.395 HD
ENDBRANCH  27  28
BRANCH  30  31
ATOM     31  O   UNL     1      40.943  20.742  19.619  0.00  0.00    -0.482 OA
ATOM     32  H   UNL     1      40.634  20.589  18.715  0.00  0.00    +0.391 HD
ENDBRANCH  30  31
ENDBRANCH  23  24
ENDBRANCH  22  23
BRANCH   6   5
ATOM      5  C   UNL     1      48.568  15.141  22.130  0.00  0.00    +0.070 C 
BRANCH   5   4
ATOM      1  C   UNL     1      50.618  13.220  22.381  0.00  0.00    +0.072 C 
ATOM      2  C   UNL     1      49.297  12.840  21.762  0.00  0.00    -0.121 C 
ATOM      3  C   UNL     1      49.093  11.450  21.215  0.00  0.00    +0.072 C 
ATOM      4  C   UNL     1      48.326  13.717  21.699  0.00  0.00    -0.068 C 
ENDBRANCH   5   4
ENDBRANCH   6   5
BRANCH   8   9
ATOM      9  C   UNL     1      48.276  15.344  17.155  0.00  0.00    +0.076 C 
BRANCH   9  10
ATOM     10  C   UNL     1      47.841  13.902  17.421  0.00  0.00    +0.020 C 
BRANCH  10  11
ATOM     11  C   UNL     1      48.773  12.942  16.678  0.00  0.00    +0.028 C 
BRANCH  11  12
ATOM     12  C   UNL     1      48.043  12.340  15.505  0.00  0.00    -0.103 C 
ATOM     13  C   UNL     1      48.448  12.703  14.099  0.00  0.00    +0.071 C 
ATOM     14  C   UNL     1      47.058  11.501  15.707  0.00  0.00    -0.017 C 
ENDBRANCH  11  12
BRANCH  11  15
ATOM     15  C   UNL     1      49.999  13.708  16.178  0.00  0.00    +0.025 C 
BRANCH  15  16
ATOM     16  C   UNL     1      51.262  12.894  16.468  0.00  0.00    +0.053 C 
BRANCH  16  17
ATOM     17  C   UNL     1      51.518  12.875  17.953  0.00  0.00    -0.123 C 
ATOM     18  C   UNL     1      51.604  14.169  18.720  0.00  0.00    +0.070 C 
ATOM     19  C   UNL     1      51.664  11.732  18.577  0.00  0.00    -0.010 C 
ENDBRANCH  16  17
ENDBRANCH  15  16
ENDBRANCH  11  15
ENDBRANCH  10  11
ENDBRANCH   9  10
ENDBRANCH   8   9
BRANCH  36  37
ATOM     37  C   UNL     1      50.179  19.214  19.731  0.00  0.00    +0.117 C 
BRANCH  37  38
ATOM     38  C   UNL     1      50.237  19.845  18.364  0.00  0.00    -0.071 C 
ATOM     39  C   UNL     1      51.155  20.741  18.095  0.00  0.00    -0.106 C 
ATOM     40  C   UNL     1      51.289  21.285  16.697  0.00  0.00    +0.070 C 
ATOM     41  C   UNL     1      52.074  21.228  19.186  0.00  0.00    +0.075 C 
ENDBRANCH  37  38
ENDBRANCH  36  37
TORSDOF 15
ENDMDL
MODEL 4
REMARK VINA RESULT:      -5.4      2.675      8.078
REMARK  Name = ZINC95486163
REMARK  23 active torsions:
REMARK  status: ('A' for Active; 'I' for Inactive)
REMARK    1  A    between atoms: C1_1  and  C2_2
REMARK    2  A    between atoms: C2_2  and  C39_47
REMARK    3  A    between atoms: C3_3  and  C4_4
REMARK    4  A    between atoms: C4_4  and  C5_5
REMARK    5  A    between atoms: C7_8  and  C28_35
REMARK    6  A    between atoms: C9_10  and  C21_24
REMARK    7  A    between atoms: C11_13  and  C16_19
REMARK    8  A    between atoms: C13_16  and  C14_17
REMARK    9  A    between atoms: C13_16  and  C15_18
REMARK   10  A    between atoms: C16_19  and  C17_20
REMARK   11  A    between atoms: C18_21  and  C19_22
REMARK   12  A    between atoms: C18_21  and  C20_23
REMARK   13  A    between atoms: C21_24  and  C22_26
REMARK   14  A    between atoms: C25_29  and  O5_33
REMARK   15  A    between atoms: C26_30  and  O4_32
REMARK   16  A    between atoms: C28_35  and  C29_36
REMARK   17  A    between atoms: C29_36  and  C30_37
REMARK   18  A    between atoms: C30_37  and  C31_39
REMARK   19  A    between atoms: C30_37  and  C36_44
REMARK   20  A    between atoms: C31_39  and  C32_40
REMARK   21  A    between atoms: C32_40  and  C33_41
REMARK   22  A    between atoms: C33_41  and  C35_43
REMARK   23  A    between atoms: C36_44  and  C38_46
REMARK                            x       y       z     vdW  Elec       q    Type
REMARK                         _______ _______ _______ _____ _____    ______ ____
ROOT
ATOM      6  C   UNL     1      47.271  15.698  20.558  0.00  0.00    -0.010 C 
ATOM      7  C   UNL     1      46.962  16.972  19.788  0.00  0.00    +0.085 C 
ATOM      8  C   UNL     1      47.556  16.973  18.381  0.00  0.00    -0.139 C 
ATOM     20  C   UNL     1      49.068  16.935  18.454  0.00  0.00    +0.388 C 
ATOM     21  O   UNL     1      49.721  17.885  18.073  0.00  0.00    -0.398 OA
ATOM     22  C   UNL     1      49.761  15.710  19.003  0.00  0.00    -0.070 C 
ATOM     35  C   UNL     1      49.070  14.461  18.506  0.00  0.00    +0.384 C 
ATOM     36  C   UNL     1      47.562  14.413  18.397  0.00  0.00    -0.125 C 
ATOM     42  O   UNL     1      49.733  13.493  18.188  0.00  0.00    -0.385 OA
ATOM     43  C   UNL     1      47.120  15.687  17.693  0.00  0.00    +0.385 C 
ATOM     44  O   UNL     1      46.480  15.680  16.670  0.00  0.00    -0.394 OA
ATOM     45  C   UNL     1      46.937  14.424  19.795  0.00  0.00    -0.036 C 
ATOM     46  C   UNL     1      45.413  14.290  19.669  0.00  0.00    +0.049 C 
ATOM     47  C   UNL     1      47.462  13.216  20.587  0.00  0.00    +0.046 C 
ENDROOT
BRANCH  22  23
ATOM     23  C   UNL     1      51.194  15.701  18.513  0.00  0.00    +0.416 C 
ATOM     34  O   UNL     1      51.432  15.507  17.340  0.00  0.00    -0.408 OA
BRANCH  23  24
ATOM     24  C   UNL     1      52.294  15.927  19.457  0.00  0.00    -0.152 A 
ATOM     25  C   UNL     1      52.020  16.255  20.791  0.00  0.00    +0.068 A 
ATOM     26  C   UNL     1      53.054  16.465  21.675  0.00  0.00    +0.005 A 
ATOM     27  C   UNL     1      54.371  16.354  21.248  0.00  0.00    +0.119 A 
ATOM     30  C   UNL     1      54.653  16.027  19.922  0.00  0.00    +0.073 A 
ATOM     33  C   UNL     1      53.623  15.808  19.030  0.00  0.00    +0.080 A 
BRANCH  27  28
ATOM     28  O   UNL     1      55.387  16.564  22.124  0.00  0.00    -0.484 OA
ATOM     29  H   UNL     1      55.348  16.004  22.912  0.00  0.00    +0.395 HD
ENDBRANCH  27  28
BRANCH  30  31
ATOM     31  O   UNL     1      55.944  15.919  19.508  0.00  0.00    -0.482 OA
ATOM     32  H   UNL     1      56.596  16.126  20.192  0.00  0.00    +0.391 HD
ENDBRANCH  30  31
ENDBRANCH  23  24
ENDBRANCH  22  23
BRANCH   6   5
ATOM      5  C   UNL     1      46.446  15.708  21.860  0.00  0.00    +0.070 C 
BRANCH   5   4
ATOM      1  C   UNL     1      43.794  16.668  21.889  0.00  0.00    +0.072 C 
ATOM      2  C   UNL     1      44.937  17.592  22.221  0.00  0.00    -0.121 C 
ATOM      3  C   UNL     1      44.670  19.049  22.505  0.00  0.00    +0.072 C 
ATOM      4  C   UNL     1      46.163  17.132  22.264  0.00  0.00    -0.068 C 
ENDBRANCH   5   4
ENDBRANCH   6   5
BRANCH   8   9
ATOM      9  C   UNL     1      47.081  18.198  17.585  0.00  0.00    +0.076 C 
BRANCH   9  10
ATOM     10  C   UNL     1      45.897  18.845  18.305  0.00  0.00    +0.020 C 
BRANCH  10  11
ATOM     11  C   UNL     1      46.244  20.293  18.659  0.00  0.00    +0.028 C 
BRANCH  11  12
ATOM     12  C   UNL     1      44.988  21.033  19.039  0.00  0.00    -0.103 C 
ATOM     13  C   UNL     1      43.656  20.329  18.994  0.00  0.00    +0.071 C 
ATOM     14  C   UNL     1      45.053  22.288  19.408  0.00  0.00    -0.017 C 
ENDBRANCH  11  12
BRANCH  11  15
ATOM     15  C   UNL     1      47.222  20.308  19.836  0.00  0.00    +0.025 C 
BRANCH  15  16
ATOM     16  C   UNL     1      48.567  20.872  19.373  0.00  0.00    +0.053 C 
BRANCH  16  17
ATOM     17  C   UNL     1      49.664  20.350  20.263  0.00  0.00    -0.123 C 
ATOM     18  C   UNL     1      49.349  19.337  21.335  0.00  0.00    +0.070 C 
ATOM     19  C   UNL     1      50.894  20.775  20.105  0.00  0.00    -0.010 C 
ENDBRANCH  16  17
ENDBRANCH  15  16
ENDBRANCH  11  15
ENDBRANCH  10  11
ENDBRANCH   9  10
ENDBRANCH   8   9
BRANCH  36  37
ATOM     37  C   UNL     1      47.112  13.175  17.608  0.00  0.00    +0.117 C 
BRANCH  37  38
ATOM     38  C   UNL     1      47.364  13.397  16.139  0.00  0.00    -0.071 C 
ATOM     39  C   UNL     1      47.827  12.420  15.399  0.00  0.00    -0.106 C 
ATOM     40  C   UNL     1      47.967  12.604  13.911  0.00  0.00    +0.070 C 
ATOM     41  C   UNL     1      48.221  11.113  16.038  0.00  0.00    +0.075 C 
ENDBRANCH  37  38
ENDBRANCH  36  37
TORSDOF 15
ENDMDL
MODEL 5
REMARK VINA RESULT:      -5.3      2.873      8.155
REMARK  Name = ZINC95486163
REMARK  23 active torsions:
REMARK  status: ('A' for Active; 'I' for Inactive)
REMARK    1  A    between atoms: C1_1  and  C2_2
REMARK    2  A    between atoms: C2_2  and  C39_47
REMARK    3  A    between atoms: C3_3  and  C4_4
REMARK    4  A    between atoms: C4_4  and  C5_5
REMARK    5  A    between atoms: C7_8  and  C28_35
REMARK    6  A    between atoms: C9_10  and  C21_24
REMARK    7  A    between atoms: C11_13  and  C16_19
REMARK    8  A    between atoms: C13_16  and  C14_17
REMARK    9  A    between atoms: C13_16  and  C15_18
REMARK   10  A    between atoms: C16_19  and  C17_20
REMARK   11  A    between atoms: C18_21  and  C19_22
REMARK   12  A    between atoms: C18_21  and  C20_23
REMARK   13  A    between atoms: C21_24  and  C22_26
REMARK   14  A    between atoms: C25_29  and  O5_33
REMARK   15  A    between atoms: C26_30  and  O4_32
REMARK   16  A    between atoms: C28_35  and  C29_36
REMARK   17  A    between atoms: C29_36  and  C30_37
REMARK   18  A    between atoms: C30_37  and  C31_39
REMARK   19  A    between atoms: C30_37  and  C36_44
REMARK   20  A    between atoms: C31_39  and  C32_40
REMARK   21  A    between atoms: C32_40  and  C33_41
REMARK   22  A    between atoms: C33_41  and  C35_43
REMARK   23  A    between atoms: C36_44  and  C38_46
REMARK                            x       y       z     vdW  Elec       q    Type
REMARK                         _______ _______ _______ _____ _____    ______ ____
ROOT
ATOM      6  C   UNL     1      50.061  17.042  18.480  0.00  0.00    -0.010 C 
ATOM      7  C   UNL     1      48.585  17.358  18.294  0.00  0.00    +0.085 C 
ATOM      8  C   UNL     1      47.701  16.113  18.348  0.00  0.00    -0.139 C 
ATOM     20  C   UNL     1      48.035  15.188  17.197  0.00  0.00    +0.388 C 
ATOM     21  O   UNL     1      47.221  14.986  16.319  0.00  0.00    -0.398 OA
ATOM     22  C   UNL     1      49.388  14.517  17.143  0.00  0.00    -0.070 C 
ATOM     35  C   UNL     1      49.791  14.059  18.526  0.00  0.00    +0.384 C 
ATOM     36  C   UNL     1      49.491  14.919  19.734  0.00  0.00    -0.125 C 
ATOM     42  O   UNL     1      50.353  12.990  18.665  0.00  0.00    -0.385 OA
ATOM     43  C   UNL     1      48.039  15.359  19.626  0.00  0.00    +0.385 C 
ATOM     44  O   UNL     1      47.220  15.125  20.480  0.00  0.00    -0.394 OA
ATOM     45  C   UNL     1      50.356  16.183  19.702  0.00  0.00    -0.036 C 
ATOM     46  C   UNL     1      50.101  17.001  20.974  0.00  0.00    +0.049 C 
ATOM     47  C   UNL     1      51.837  15.776  19.679  0.00  0.00    +0.046 C 
ENDROOT
BRANCH  22  23
ATOM     23  C   UNL     1      49.295  13.306  16.238  0.00  0.00    +0.416 C 
ATOM     34  O   UNL     1      48.620  12.354  16.567  0.00  0.00    -0.408 OA
BRANCH  23  24
ATOM     24  C   UNL     1      50.022  13.286  14.963  0.00  0.00    -0.152 A 
ATOM     25  C   UNL     1      51.412  13.454  14.943  0.00  0.00    +0.068 A 
ATOM     26  C   UNL     1      52.091  13.433  13.746  0.00  0.00    +0.005 A 
ATOM     27  C   UNL     1      51.400  13.247  12.554  0.00  0.00    +0.119 A 
ATOM     30  C   UNL     1      50.016  13.079  12.565  0.00  0.00    +0.073 A 
ATOM     33  C   UNL     1      49.328  13.092  13.761  0.00  0.00    +0.080 A 
BRANCH  27  28
ATOM     28  O   UNL     1      52.075  13.230  11.377  0.00  0.00    -0.484 OA
ATOM     29  H   UNL     1      51.817  13.933  10.765  0.00  0.00    +0.395 HD
ENDBRANCH  27  28
BRANCH  30  31
ATOM     31  O   UNL     1      49.344  12.897  11.397  0.00  0.00    -0.482 OA
ATOM     32  H   UNL     1      48.659  13.558  11.230  0.00  0.00    +0.391 HD
ENDBRANCH  30  31
ENDBRANCH  23  24
ENDBRANCH  22  23
BRANCH   6   5
ATOM      5  C   UNL     1      50.824  18.372  18.634  0.00  0.00    +0.070 C 
BRANCH   5   4
ATOM      1  C   UNL     1      51.052  21.115  18.022  0.00  0.00    +0.072 C 
ATOM      2  C   UNL     1      51.405  20.078  16.987  0.00  0.00    -0.121 C 
ATOM      3  C   UNL     1      51.818  20.506  15.601  0.00  0.00    +0.072 C 
ATOM      4  C   UNL     1      51.355  18.805  17.291  0.00  0.00    -0.068 C 
ENDBRANCH   5   4
ENDBRANCH   6   5
BRANCH   8   9
ATOM      9  C   UNL     1      46.214  16.494  18.323  0.00  0.00    +0.076 C 
BRANCH   9  10
ATOM     10  C   UNL     1      46.077  17.994  18.057  0.00  0.00    +0.020 C 
BRANCH  10  11
ATOM     11  C   UNL     1      45.912  18.735  19.386  0.00  0.00    +0.028 C 
BRANCH  11  12
ATOM     12  C   UNL     1      46.452  20.135  19.252  0.00  0.00    -0.103 C 
ATOM     13  C   UNL     1      45.551  21.248  18.779  0.00  0.00    +0.071 C 
ATOM     14  C   UNL     1      47.703  20.387  19.546  0.00  0.00    -0.017 C 
ENDBRANCH  11  12
BRANCH  11  15
ATOM     15  C   UNL     1      44.428  18.792  19.756  0.00  0.00    +0.025 C 
BRANCH  15  16
ATOM     16  C   UNL     1      44.286  18.865  21.278  0.00  0.00    +0.053 C 
BRANCH  16  17
ATOM     17  C   UNL     1      43.062  18.097  21.705  0.00  0.00    -0.123 C 
ATOM     18  C   UNL     1      43.210  16.770  22.404  0.00  0.00    +0.070 C 
ATOM     19  C   UNL     1      41.868  18.584  21.471  0.00  0.00    -0.010 C 
ENDBRANCH  16  17
ENDBRANCH  15  16
ENDBRANCH  11  15
ENDBRANCH  10  11
ENDBRANCH   9  10
ENDBRANCH   8   9
BRANCH  36  37
ATOM     37  C   UNL     1      49.724  14.133  21.033  0.00  0.00    +0.117 C 
BRANCH  37  38
ATOM     38  C   UNL     1      49.282  12.705  20.840  0.00  0.00    -0.071 C 
ATOM     39  C   UNL     1      49.852  11.745  21.528  0.00  0.00    -0.106 C 
ATOM     40  C   UNL     1      49.334  10.335  21.425  0.00  0.00    +0.070 C 
ATOM     41  C   UNL     1      51.027  12.053  22.420  0.00  0.00    +0.075 C 
ENDBRANCH  37  38
ENDBRANCH  36  37
TORSDOF 15
ENDMDL
MODEL 6
REMARK VINA RESULT:      -5.3      2.231      7.666
REMARK  Name = ZINC95486163
REMARK  23 active torsions:
REMARK  status: ('A' for Active; 'I' for Inactive)
REMARK    1  A    between atoms: C1_1  and  C2_2
REMARK    2  A    between atoms: C2_2  and  C39_47
REMARK    3  A    between atoms: C3_3  and  C4_4
REMARK    4  A    between atoms: C4_4  and  C5_5
REMARK    5  A    between atoms: C7_8  and  C28_35
REMARK    6  A    between atoms: C9_10  and  C21_24
REMARK    7  A    between atoms: C11_13  and  C16_19
REMARK    8  A    between atoms: C13_16  and  C14_17
REMARK    9  A    between atoms: C13_16  and  C15_18
REMARK   10  A    between atoms: C16_19  and  C17_20
REMARK   11  A    between atoms: C18_21  and  C19_22
REMARK   12  A    between atoms: C18_21  and  C20_23
REMARK   13  A    between atoms: C21_24  and  C22_26
REMARK   14  A    between atoms: C25_29  and  O5_33
REMARK   15  A    between atoms: C26_30  and  O4_32
REMARK   16  A    between atoms: C28_35  and  C29_36
REMARK   17  A    between atoms: C29_36  and  C30_37
REMARK   18  A    between atoms: C30_37  and  C31_39
REMARK   19  A    between atoms: C30_37  and  C36_44
REMARK   20  A    between atoms: C31_39  and  C32_40
REMARK   21  A    between atoms: C32_40  and  C33_41
REMARK   22  A    between atoms: C33_41  and  C35_43
REMARK   23  A    between atoms: C36_44  and  C38_46
REMARK                            x       y       z     vdW  Elec       q    Type
REMARK                         _______ _______ _______ _____ _____    ______ ____
ROOT
ATOM      6  C   UNL     1      48.998  15.959  20.697  0.00  0.00    -0.010 C 
ATOM      7  C   UNL     1      49.473  17.277  20.107  0.00  0.00    +0.085 C 
ATOM      8  C   UNL     1      48.487  17.864  19.098  0.00  0.00    -0.139 C 
ATOM     20  C   UNL     1      48.355  16.944  17.904  0.00  0.00    +0.388 C 
ATOM     21  O   UNL     1      48.747  17.301  16.812  0.00  0.00    -0.398 OA
ATOM     22  C   UNL     1      47.733  15.578  18.076  0.00  0.00    -0.070 C 
ATOM     35  C   UNL     1      46.544  15.667  19.004  0.00  0.00    +0.384 C 
ATOM     36  C   UNL     1      46.588  16.566  20.220  0.00  0.00    -0.125 C 
ATOM     42  O   UNL     1      45.545  15.015  18.767  0.00  0.00    -0.385 OA
ATOM     43  C   UNL     1      47.120  17.916  19.763  0.00  0.00    +0.385 C 
ATOM     44  O   UNL     1      46.506  18.944  19.911  0.00  0.00    -0.394 OA
ATOM     45  C   UNL     1      47.579  16.008  21.246  0.00  0.00    -0.036 C 
ATOM     46  C   UNL     1      47.550  16.884  22.505  0.00  0.00    +0.049 C 
ATOM     47  C   UNL     1      47.147  14.587  21.639  0.00  0.00    +0.046 C 
ENDROOT
BRANCH  22  23
ATOM     23  C   UNL     1      47.258  15.085  16.724  0.00  0.00    +0.416 C 
ATOM     34  O   UNL     1      46.384  15.683  16.134  0.00  0.00    -0.408 OA
BRANCH  23  24
ATOM     24  C   UNL     1      47.856  13.884  16.130  0.00  0.00    -0.152 A 
ATOM     25  C   UNL     1      47.038  12.892  15.574  0.00  0.00    +0.068 A 
ATOM     26  C   UNL     1      47.602  11.767  15.017  0.00  0.00    +0.005 A 
ATOM     27  C   UNL     1      48.982  11.611  15.004  0.00  0.00    +0.119 A 
ATOM     30  C   UNL     1      49.805  12.593  15.555  0.00  0.00    +0.073 A 
ATOM     33  C   UNL     1      49.248  13.728  16.111  0.00  0.00    +0.080 A 
BRANCH  27  28
ATOM     28  O   UNL     1      49.532  10.498  14.454  0.00  0.00    -0.484 OA
ATOM     29  H   UNL     1      50.208  10.682  13.786  0.00  0.00    +0.395 HD
ENDBRANCH  27  28
BRANCH  30  31
ATOM     31  O   UNL     1      51.155  12.436  15.541  0.00  0.00    -0.482 OA
ATOM     32  H   UNL     1      51.623  12.993  16.178  0.00  0.00    +0.391 HD
ENDBRANCH  30  31
ENDBRANCH  23  24
ENDBRANCH  22  23
BRANCH   6   5
ATOM      5  C   UNL     1      49.946  15.576  21.851  0.00  0.00    +0.070 C 
BRANCH   5   4
ATOM      1  C   UNL     1      52.574  14.825  21.155  0.00  0.00    +0.072 C 
ATOM      2  C   UNL     1      52.295  16.215  21.667  0.00  0.00    -0.121 C 
ATOM      3  C   UNL     1      53.431  17.185  21.872  0.00  0.00    +0.072 C 
ATOM      4  C   UNL     1      51.066  16.581  21.935  0.00  0.00    -0.068 C 
ENDBRANCH   5   4
ENDBRANCH   6   5
BRANCH   8   9
ATOM      9  C   UNL     1      48.926  19.268  18.656  0.00  0.00    +0.076 C 
BRANCH   9  10
ATOM     10  C   UNL     1      49.426  20.052  19.870  0.00  0.00    +0.020 C 
BRANCH  10  11
ATOM     11  C   UNL     1      50.845  20.559  19.600  0.00  0.00    +0.028 C 
BRANCH  11  12
ATOM     12  C   UNL     1      51.503  20.929  20.904  0.00  0.00    -0.103 C 
ATOM     13  C   UNL     1      52.672  21.881  20.914  0.00  0.00    +0.071 C 
ATOM     14  C   UNL     1      51.059  20.425  22.029  0.00  0.00    -0.017 C 
ENDBRANCH  11  12
BRANCH  11  15
ATOM     15  C   UNL     1      51.656  19.459  18.913  0.00  0.00    +0.025 C 
BRANCH  15  16
ATOM     16  C   UNL     1      52.613  20.090  17.899  0.00  0.00    +0.053 C 
BRANCH  16  17
ATOM     17  C   UNL     1      51.945  20.155  16.550  0.00  0.00    -0.123 C 
ATOM     18  C   UNL     1      51.794  18.904  15.722  0.00  0.00    +0.070 C 
ATOM     19  C   UNL     1      51.495  21.299  16.097  0.00  0.00    -0.010 C 
ENDBRANCH  16  17
ENDBRANCH  15  16
ENDBRANCH  11  15
ENDBRANCH  10  11
ENDBRANCH   9  10
ENDBRANCH   8   9
BRANCH  36  37
ATOM     37  C   UNL     1      45.191  16.715  20.839  0.00  0.00    +0.117 C 
BRANCH  37  38
ATOM     38  C   UNL     1      44.386  17.698  20.027  0.00  0.00    -0.071 C 
ATOM     39  C   UNL     1      43.339  18.283  20.557  0.00  0.00    -0.106 C 
ATOM     40  C   UNL     1      42.605  19.351  19.791  0.00  0.00    +0.070 C 
ATOM     41  C   UNL     1      42.870  17.884  21.933  0.00  0.00    +0.075 C 
ENDBRANCH  37  38
ENDBRANCH  36  37
TORSDOF 15
ENDMDL
MODEL 7
REMARK VINA RESULT:      -5.2      3.257      8.349
REMARK  Name = ZINC95486163
REMARK  23 active torsions:
REMARK  status: ('A' for Active; 'I' for Inactive)
REMARK    1  A    between atoms: C1_1  and  C2_2
REMARK    2  A    between atoms: C2_2  and  C39_47
REMARK    3  A    between atoms: C3_3  and  C4_4
REMARK    4  A    between atoms: C4_4  and  C5_5
REMARK    5  A    between atoms: C7_8  and  C28_35
REMARK    6  A    between atoms: C9_10  and  C21_24
REMARK    7  A    between atoms: C11_13  and  C16_19
REMARK    8  A    between atoms: C13_16  and  C14_17
REMARK    9  A    between atoms: C13_16  and  C15_18
REMARK   10  A    between atoms: C16_19  and  C17_20
REMARK   11  A    between atoms: C18_21  and  C19_22
REMARK   12  A    between atoms: C18_21  and  C20_23
REMARK   13  A    between atoms: C21_24  and  C22_26
REMARK   14  A    between atoms: C25_29  and  O5_33
REMARK   15  A    between atoms: C26_30  and  O4_32
REMARK   16  A    between atoms: C28_35  and  C29_36
REMARK   17  A    between atoms: C29_36  and  C30_37
REMARK   18  A    between atoms: C30_37  and  C31_39
REMARK   19  A    between atoms: C30_37  and  C36_44
REMARK   20  A    between atoms: C31_39  and  C32_40
REMARK   21  A    between atoms: C32_40  and  C33_41
REMARK   22  A    between atoms: C33_41  and  C35_43
REMARK   23  A    between atoms: C36_44  and  C38_46
REMARK                            x       y       z     vdW  Elec       q    Type
REMARK                         _______ _______ _______ _____ _____    ______ ____
ROOT
ATOM      6  C   UNL     1      51.982  14.709  20.178  0.00  0.00    -0.010 C 
ATOM      7  C   UNL     1      52.108  16.153  19.721  0.00  0.00    +0.085 C 
ATOM      8  C   UNL     1      50.812  16.703  19.129  0.00  0.00    -0.139 C 
ATOM     20  C   UNL     1      50.452  15.942  17.870  0.00  0.00    +0.388 C 
ATOM     21  O   UNL     1      50.469  16.501  16.793  0.00  0.00    -0.398 OA
ATOM     22  C   UNL     1      50.072  14.482  17.961  0.00  0.00    -0.070 C 
ATOM     35  C   UNL     1      49.198  14.252  19.172  0.00  0.00    +0.384 C 
ATOM     36  C   UNL     1      49.483  14.975  20.470  0.00  0.00    -0.125 C 
ATOM     42  O   UNL     1      48.257  13.485  19.098  0.00  0.00    -0.385 OA
ATOM     43  C   UNL     1      49.697  16.443  20.130  0.00  0.00    +0.385 C 
ATOM     44  O   UNL     1      49.034  17.328  20.612  0.00  0.00    -0.394 OA
ATOM     45  C   UNL     1      50.785  14.453  21.083  0.00  0.00    -0.036 C 
ATOM     46  C   UNL     1      51.015  15.136  22.438  0.00  0.00    +0.049 C 
ATOM     47  C   UNL     1      50.655  12.941  21.323  0.00  0.00    +0.046 C 
ENDROOT
BRANCH  22  23
ATOM     23  C   UNL     1      49.291  14.105  16.719  0.00  0.00    +0.416 C 
ATOM     34  O   UNL     1      48.151  14.494  16.578  0.00  0.00    -0.408 OA
BRANCH  23  24
ATOM     24  C   UNL     1      49.914  13.268  15.687  0.00  0.00    -0.152 A 
ATOM     25  C   UNL     1      49.614  11.902  15.613  0.00  0.00    +0.068 A 
ATOM     26  C   UNL     1      50.200  11.120  14.643  0.00  0.00    +0.005 A 
ATOM     27  C   UNL     1      51.090  11.682  13.736  0.00  0.00    +0.119 A 
ATOM     30  C   UNL     1      51.393  13.042  13.802  0.00  0.00    +0.073 A 
ATOM     33  C   UNL     1      50.806  13.835  14.767  0.00  0.00    +0.080 A 
BRANCH  27  28
ATOM     28  O   UNL     1      51.665  10.906  12.783  0.00  0.00    -0.484 OA
ATOM     29  H   UNL     1      51.142  10.128  12.541  0.00  0.00    +0.395 HD
ENDBRANCH  27  28
BRANCH  30  31
ATOM     31  O   UNL     1      52.265  13.588  12.912  0.00  0.00    -0.482 OA
ATOM     32  H   UNL     1      52.547  12.981  12.214  0.00  0.00    +0.391 HD
ENDBRANCH  30  31
ENDBRANCH  23  24
ENDBRANCH  22  23
BRANCH   6   5
ATOM      5  C   UNL     1      53.259  14.334  20.955  0.00  0.00    +0.070 C 
BRANCH   5   4
ATOM      1  C   UNL     1      55.254  12.865  19.606  0.00  0.00    +0.072 C 
ATOM      2  C   UNL     1      55.397  14.356  19.775  0.00  0.00    -0.121 C 
ATOM      3  C   UNL     1      56.638  15.055  19.281  0.00  0.00    +0.072 C 
ATOM      4  C   UNL     1      54.442  15.046  20.350  0.00  0.00    -0.068 C 
ENDBRANCH   5   4
ENDBRANCH   6   5
BRANCH   8   9
ATOM      9  C   UNL     1      50.936  18.206  18.837  0.00  0.00    +0.076 C 
BRANCH   9  10
ATOM     10  C   UNL     1      52.383  18.536  18.469  0.00  0.00    +0.020 C 
BRANCH  10  11
ATOM     11  C   UNL     1      52.493  20.020  18.112  0.00  0.00    +0.028 C 
BRANCH  11  12
ATOM     12  C   UNL     1      52.001  20.238  16.705  0.00  0.00    -0.103 C 
ATOM     13  C   UNL     1      52.212  19.172  15.661  0.00  0.00    +0.071 C 
ATOM     14  C   UNL     1      51.389  21.352  16.389  0.00  0.00    -0.017 C 
ENDBRANCH  11  12
BRANCH  11  15
ATOM     15  C   UNL     1      51.642  20.841  19.084  0.00  0.00    +0.025 C 
BRANCH  15  16
ATOM     16  C   UNL     1      52.490  21.236  20.295  0.00  0.00    +0.053 C 
BRANCH  16  17
ATOM     17  C   UNL     1      51.957  20.551  21.527  0.00  0.00    -0.123 C 
ATOM     18  C   UNL     1      52.685  19.364  22.104  0.00  0.00    +0.070 C 
ATOM     19  C   UNL     1      50.862  20.988  22.097  0.00  0.00    -0.010 C 
ENDBRANCH  16  17
ENDBRANCH  15  16
ENDBRANCH  11  15
ENDBRANCH  10  11
ENDBRANCH   9  10
ENDBRANCH   8   9
BRANCH  36  37
ATOM     37  C   UNL     1      48.314  14.812  21.452  0.00  0.00    +0.117 C 
BRANCH  37  38
ATOM     38  C   UNL     1      47.137  15.622  20.971  0.00  0.00    -0.071 C 
ATOM     39  C   UNL     1      45.919  15.163  21.128  0.00  0.00    -0.106 C 
ATOM     40  C   UNL     1      44.738  16.021  20.756  0.00  0.00    +0.070 C 
ATOM     41  C   UNL     1      45.701  13.777  21.678  0.00  0.00    +0.075 C 
ENDBRANCH  37  38
ENDBRANCH  36  37
TORSDOF 15
ENDMDL
MODEL 8
REMARK VINA RESULT:      -5.2      3.609      7.973
REMARK  Name = ZINC95486163
REMARK  23 active torsions:
REMARK  status: ('A' for Active; 'I' for Inactive)
REMARK    1  A    between atoms: C1_1  and  C2_2
REMARK    2  A    between atoms: C2_2  and  C39_47
REMARK    3  A    between atoms: C3_3  and  C4_4
REMARK    4  A    between atoms: C4_4  and  C5_5
REMARK    5  A    between atoms: C7_8  and  C28_35
REMARK    6  A    between atoms: C9_10  and  C21_24
REMARK    7  A    between atoms: C11_13  and  C16_19
REMARK    8  A    between atoms: C13_16  and  C14_17
REMARK    9  A    between atoms: C13_16  and  C15_18
REMARK   10  A    between atoms: C16_19  and  C17_20
REMARK   11  A    between atoms: C18_21  and  C19_22
REMARK   12  A    between atoms: C18_21  and  C20_23
REMARK   13  A    between atoms: C21_24  and  C22_26
REMARK   14  A    between atoms: C25_29  and  O5_33
REMARK   15  A    between atoms: C26_30  and  O4_32
REMARK   16  A    between atoms: C28_35  and  C29_36
REMARK   17  A    between atoms: C29_36  and  C30_37
REMARK   18  A    between atoms: C30_37  and  C31_39
REMARK   19  A    between atoms: C30_37  and  C36_44
REMARK   20  A    between atoms: C31_39  and  C32_40
REMARK   21  A    between atoms: C32_40  and  C33_41
REMARK   22  A    between atoms: C33_41  and  C35_43
REMARK   23  A    between atoms: C36_44  and  C38_46
REMARK                            x       y       z     vdW  Elec       q    Type
REMARK                         _______ _______ _______ _____ _____    ______ ____
ROOT
ATOM      6  C   UNL     1      50.755  16.775  19.124  0.00  0.00    -0.010 C 
ATOM      7  C   UNL     1      49.458  16.368  19.805  0.00  0.00    +0.085 C 
ATOM      8  C   UNL     1      49.433  14.892  20.199  0.00  0.00    -0.139 C 
ATOM     20  C   UNL     1      49.496  14.023  18.961  0.00  0.00    +0.388 C 
ATOM     21  O   UNL     1      48.548  13.330  18.653  0.00  0.00    -0.398 OA
ATOM     22  C   UNL     1      50.744  14.021  18.110  0.00  0.00    -0.070 C 
ATOM     35  C   UNL     1      51.970  14.040  18.994  0.00  0.00    +0.384 C 
ATOM     36  C   UNL     1      51.992  14.878  20.253  0.00  0.00    -0.125 C 
ATOM     42  O   UNL     1      52.940  13.373  18.691  0.00  0.00    -0.385 OA
ATOM     43  C   UNL     1      50.695  14.604  20.999  0.00  0.00    +0.385 C 
ATOM     44  O   UNL     1      50.667  14.189  22.131  0.00  0.00    -0.394 OA
ATOM     45  C   UNL     1      52.005  16.366  19.889  0.00  0.00    -0.036 C 
ATOM     46  C   UNL     1      52.112  17.199  21.174  0.00  0.00    +0.049 C 
ATOM     47  C   UNL     1      53.239  16.658  19.022  0.00  0.00    +0.046 C 
ENDROOT
BRANCH  22  23
ATOM     23  C   UNL     1      50.764  12.754  17.279  0.00  0.00    +0.416 C 
ATOM     34  O   UNL     1      50.973  11.684  17.810  0.00  0.00    -0.408 OA
BRANCH  23  24
ATOM     24  C   UNL     1      50.531  12.822  15.832  0.00  0.00    -0.152 A 
ATOM     25  C   UNL     1      49.288  12.452  15.302  0.00  0.00    +0.068 A 
ATOM     26  C   UNL     1      49.072  12.518  13.943  0.00  0.00    +0.005 A 
ATOM     27  C   UNL     1      50.084  12.951  13.096  0.00  0.00    +0.119 A 
ATOM     30  C   UNL     1      51.324  13.321  13.615  0.00  0.00    +0.073 A 
ATOM     33  C   UNL     1      51.548  13.264  14.976  0.00  0.00    +0.080 A 
BRANCH  27  28
ATOM     28  O   UNL     1      49.866  13.012  11.757  0.00  0.00    -0.484 OA
ATOM     29  H   UNL     1      49.118  13.573  11.506  0.00  0.00    +0.395 HD
ENDBRANCH  27  28
BRANCH  30  31
ATOM     31  O   UNL     1      52.312  13.743  12.781  0.00  0.00    -0.482 OA
ATOM     32  H   UNL     1      52.120  14.579  12.335  0.00  0.00    +0.391 HD
ENDBRANCH  30  31
ENDBRANCH  23  24
ENDBRANCH  22  23
BRANCH   6   5
ATOM      5  C   UNL     1      50.763  18.309  18.977  0.00  0.00    +0.070 C 
BRANCH   5   4
ATOM      1  C   UNL     1      50.154  21.006  18.421  0.00  0.00    +0.072 C 
ATOM      2  C   UNL     1      49.125  20.117  19.072  0.00  0.00    -0.121 C 
ATOM      3  C   UNL     1      47.792  20.686  19.487  0.00  0.00    +0.072 C 
ATOM      4  C   UNL     1      49.389  18.850  19.277  0.00  0.00    -0.068 C 
ENDBRANCH   5   4
ENDBRANCH   6   5
BRANCH   8   9
ATOM      9  C   UNL     1      48.182  14.567  21.028  0.00  0.00    +0.076 C 
BRANCH   9  10
ATOM     10  C   UNL     1      47.391  15.851  21.284  0.00  0.00    +0.020 C 
BRANCH  10  11
ATOM     11  C   UNL     1      45.893  15.560  21.164  0.00  0.00    +0.028 C 
BRANCH  11  12
ATOM     12  C   UNL     1      45.109  16.722  21.718  0.00  0.00    -0.103 C 
ATOM     13  C   UNL     1      45.800  18.032  21.994  0.00  0.00    +0.071 C 
ATOM     14  C   UNL     1      43.828  16.593  21.958  0.00  0.00    -0.017 C 
ENDBRANCH  11  12
BRANCH  11  15
ATOM     15  C   UNL     1      45.531  15.354  19.692  0.00  0.00    +0.025 C 
BRANCH  15  16
ATOM     16  C   UNL     1      45.840  16.630  18.907  0.00  0.00    +0.053 C 
BRANCH  16  17
ATOM     17  C   UNL     1      46.520  16.272  17.612  0.00  0.00    -0.123 C 
ATOM     18  C   UNL     1      47.326  17.308  16.871  0.00  0.00    +0.070 C 
ATOM     19  C   UNL     1      46.412  15.058  17.129  0.00  0.00    -0.010 C 
ENDBRANCH  16  17
ENDBRANCH  15  16
ENDBRANCH  11  15
ENDBRANCH  10  11
ENDBRANCH   9  10
ENDBRANCH   8   9
BRANCH  36  37
ATOM     37  C   UNL     1      53.204  14.519  21.125  0.00  0.00    +0.117 C 
BRANCH  37  38
ATOM     38  C   UNL     1      53.149  13.056  21.482  0.00  0.00    -0.071 C 
ATOM     39  C   UNL     1      54.232  12.441  21.891  0.00  0.00    -0.106 C 
ATOM     40  C   UNL     1      54.155  11.012  22.360  0.00  0.00    +0.070 C 
ATOM     41  C   UNL     1      55.555  13.164  21.890  0.00  0.00    +0.075 C 
ENDBRANCH  37  38
ENDBRANCH  36  37
TORSDOF 15
ENDMDL
MODEL 9
REMARK VINA RESULT:      -5.2      3.381      8.650
REMARK  Name = ZINC95486163
REMARK  23 active torsions:
REMARK  status: ('A' for Active; 'I' for Inactive)
REMARK    1  A    between atoms: C1_1  and  C2_2
REMARK    2  A    between atoms: C2_2  and  C39_47
REMARK    3  A    between atoms: C3_3  and  C4_4
REMARK    4  A    between atoms: C4_4  and  C5_5
REMARK    5  A    between atoms: C7_8  and  C28_35
REMARK    6  A    between atoms: C9_10  and  C21_24
REMARK    7  A    between atoms: C11_13  and  C16_19
REMARK    8  A    between atoms: C13_16  and  C14_17
REMARK    9  A    between atoms: C13_16  and  C15_18
REMARK   10  A    between atoms: C16_19  and  C17_20
REMARK   11  A    between atoms: C18_21  and  C19_22
REMARK   12  A    between atoms: C18_21  and  C20_23
REMARK   13  A    between atoms: C21_24  and  C22_26
REMARK   14  A    between atoms: C25_29  and  O5_33
REMARK   15  A    between atoms: C26_30  and  O4_32
REMARK   16  A    between atoms: C28_35  and  C29_36
REMARK   17  A    between atoms: C29_36  and  C30_37
REMARK   18  A    between atoms: C30_37  and  C31_39
REMARK   19  A    between atoms: C30_37  and  C36_44
REMARK   20  A    between atoms: C31_39  and  C32_40
REMARK   21  A    between atoms: C32_40  and  C33_41
REMARK   22  A    between atoms: C33_41  and  C35_43
REMARK   23  A    between atoms: C36_44  and  C38_46
REMARK                            x       y       z     vdW  Elec       q    Type
REMARK                         _______ _______ _______ _____ _____    ______ ____
ROOT
ATOM      6  C   UNL     1      50.774  14.069  20.300  0.00  0.00    -0.010 C 
ATOM      7  C   UNL     1      50.630  15.387  19.555  0.00  0.00    +0.085 C 
ATOM      8  C   UNL     1      50.041  15.216  18.156  0.00  0.00    -0.139 C 
ATOM     20  C   UNL     1      50.979  14.397  17.293  0.00  0.00    +0.388 C 
ATOM     21  O   UNL     1      51.530  14.906  16.339  0.00  0.00    -0.398 OA
ATOM     22  C   UNL     1      51.226  12.945  17.626  0.00  0.00    -0.070 C 
ATOM     35  C   UNL     1      49.933  12.284  18.045  0.00  0.00    +0.384 C 
ATOM     36  C   UNL     1      48.936  13.032  18.903  0.00  0.00    -0.125 C 
ATOM     42  O   UNL     1      49.693  11.149  17.683  0.00  0.00    -0.385 OA
ATOM     43  C   UNL     1      48.757  14.411  18.288  0.00  0.00    +0.385 C 
ATOM     44  O   UNL     1      47.684  14.833  17.930  0.00  0.00    -0.394 OA
ATOM     45  C   UNL     1      49.504  13.229  20.311  0.00  0.00    -0.036 C 
ATOM     46  C   UNL     1      48.449  13.913  21.191  0.00  0.00    +0.049 C 
ATOM     47  C   UNL     1      49.822  11.854  20.921  0.00  0.00    +0.046 C 
ENDROOT
BRANCH  22  23
ATOM     23  C   UNL     1      51.751  12.245  16.389  0.00  0.00    +0.416 C 
ATOM     34  O   UNL     1      52.668  11.457  16.482  0.00  0.00    -0.408 OA
BRANCH  23  24
ATOM     24  C   UNL     1      51.150  12.521  15.079  0.00  0.00    -0.152 A 
ATOM     25  C   UNL     1      49.771  12.360  14.890  0.00  0.00    +0.068 A 
ATOM     26  C   UNL     1      49.210  12.621  13.661  0.00  0.00    +0.005 A 
ATOM     27  C   UNL     1      50.008  13.043  12.604  0.00  0.00    +0.119 A 
ATOM     30  C   UNL     1      51.381  13.206  12.784  0.00  0.00    +0.073 A 
ATOM     33  C   UNL     1      51.952  12.953  14.015  0.00  0.00    +0.080 A 
BRANCH  27  28
ATOM     28  O   UNL     1      49.449  13.297  11.394  0.00  0.00    -0.484 OA
ATOM     29  H   UNL     1      48.756  12.670  11.141  0.00  0.00    +0.395 HD
ENDBRANCH  27  28
BRANCH  30  31
ATOM     31  O   UNL     1      52.158  13.619  11.747  0.00  0.00    -0.482 OA
ATOM     32  H   UNL     1      53.031  13.204  11.719  0.00  0.00    +0.391 HD
ENDBRANCH  30  31
ENDBRANCH  23  24
ENDBRANCH  22  23
BRANCH   6   5
ATOM      5  C   UNL     1      51.158  14.378  21.760  0.00  0.00    +0.070 C 
BRANCH   5   4
ATOM      1  C   UNL     1      53.941  14.151  22.151  0.00  0.00    +0.072 C 
ATOM      2  C   UNL     1      53.301  15.512  22.042  0.00  0.00    -0.121 C 
ATOM      3  C   UNL     1      54.139  16.754  22.208  0.00  0.00    +0.072 C 
ATOM      4  C   UNL     1      52.018  15.615  21.802  0.00  0.00    -0.068 C 
ENDBRANCH   5   4
ENDBRANCH   6   5
BRANCH   8   9
ATOM      9  C   UNL     1      49.760  16.580  17.508  0.00  0.00    +0.076 C 
BRANCH   9  10
ATOM     10  C   UNL     1      50.226  17.695  18.446  0.00  0.00    +0.020 C 
BRANCH  10  11
ATOM     11  C   UNL     1      49.172  18.804  18.483  0.00  0.00    +0.028 C 
BRANCH  11  12
ATOM     12  C   UNL     1      47.904  18.272  19.100  0.00  0.00    -0.103 C 
ATOM     13  C   UNL     1      46.619  18.289  18.313  0.00  0.00    +0.071 C 
ATOM     14  C   UNL     1      47.919  17.796  20.320  0.00  0.00    -0.017 C 
ENDBRANCH  11  12
BRANCH  11  15
ATOM     15  C   UNL     1      49.694  19.976  19.316  0.00  0.00    +0.025 C 
BRANCH  15  16
ATOM     16  C   UNL     1      50.014  21.154  18.394  0.00  0.00    +0.053 C 
BRANCH  16  17
ATOM     17  C   UNL     1      51.387  20.971  17.801  0.00  0.00    -0.123 C 
ATOM     18  C   UNL     1      52.565  20.696  18.699  0.00  0.00    +0.070 C 
ATOM     19  C   UNL     1      51.557  21.050  16.504  0.00  0.00    -0.010 C 
ENDBRANCH  16  17
ENDBRANCH  15  16
ENDBRANCH  11  15
ENDBRANCH  10  11
ENDBRANCH   9  10
ENDBRANCH   8   9
BRANCH  36  37
ATOM     37  C   UNL     1      47.596  12.284  18.956  0.00  0.00    +0.117 C 
BRANCH  37  38
ATOM     38  C   UNL     1      47.380  11.548  17.658  0.00  0.00    -0.071 C 
ATOM     39  C   UNL     1      46.260  11.705  16.995  0.00  0.00    -0.106 C 
ATOM     40  C   UNL     1      46.091  11.065  15.642  0.00  0.00    +0.070 C 
ATOM     41  C   UNL     1      45.143  12.524  17.588  0.00  0.00    +0.075 C 
ENDBRANCH  37  38
ENDBRANCH  36  37
TORSDOF 15
ENDMDL
