MODEL 1
REMARK VINA RESULT:      -6.7      0.000      0.000
REMARK  Name = ZINC05158952
REMARK  9 active torsions:
REMARK  status: ('A' for Active; 'I' for Inactive)
REMARK    1  A    between atoms: C1_1  and  C2_2
REMARK    2  A    between atoms: C2_2  and  C20_27
REMARK    3  A    between atoms: C3_3  and  C4_4
REMARK    4  A    between atoms: C4_4  and  C5_5
REMARK    5  A    between atoms: C6_6  and  O6_26
REMARK    6  A    between atoms: C10_10  and  O1_11
REMARK    7  A    between atoms: C12_14  and  C14_18
REMARK    8  A    between atoms: C17_21  and  O5_25
REMARK    9  A    between atoms: C19_23  and  O4_24
REMARK                            x       y       z     vdW  Elec       q    Type
REMARK                         _______ _______ _______ _____ _____    ______ ____
ROOT
ATOM      6  C   UNL     1      45.441  16.133  19.427  0.00  0.00    -0.171 A 
ATOM      7  C   UNL     1      45.937  16.600  18.216  0.00  0.00    +0.196 A 
ATOM     10  C   UNL     1      45.947  17.959  17.932  0.00  0.00    -0.048 A 
ATOM     11  C   UNL     1      45.463  18.868  18.856  0.00  0.00    +0.199 A 
ATOM     12  C   UNL     1      44.967  18.399  20.087  0.00  0.00    -0.285 A 
ATOM     13  C   UNL     1      44.471  19.368  21.071  0.00  0.00    +0.411 C 
ATOM     14  C   UNL     1      44.262  20.789  20.580  0.00  0.00    +0.003 C 
ATOM     25  C   UNL     1      45.437  21.125  19.649  0.00  0.00    +0.281 C 
ATOM     26  O   UNL     1      44.240  19.049  22.219  0.00  0.00    -0.421 OA
ATOM     27  O   UNL     1      45.466  20.191  18.570  0.00  0.00    -0.299 OA
ATOM     28  C   UNL     1      44.954  17.024  20.367  0.00  0.00    +0.225 A 
ENDROOT
BRANCH  14  15
ATOM     15  C   UNL     1      42.963  20.884  19.821  0.00  0.00    -0.122 A 
ATOM     16  C   UNL     1      42.262  19.736  19.506  0.00  0.00    +0.066 A 
ATOM     17  C   UNL     1      41.068  19.820  18.815  0.00  0.00    -0.016 A 
ATOM     18  C   UNL     1      40.577  21.059  18.426  0.00  0.00    +0.132 A 
ATOM     21  C   UNL     1      41.282  22.212  18.736  0.00  0.00    -0.033 A 
ATOM     22  C   UNL     1      42.476  22.125  19.434  0.00  0.00    +0.140 A 
BRANCH  18  19
ATOM     19  O   UNL     1      39.406  21.141  17.742  0.00  0.00    -0.495 OA
ATOM     20  H   UNL     1      38.967  20.289  17.608  0.00  0.00    +0.395 HD
ENDBRANCH  18  19
BRANCH  22  23
ATOM     23  O   UNL     1      43.169  23.253  19.740  0.00  0.00    -0.490 OA
ATOM     24  H   UNL     1      42.892  23.673  20.565  0.00  0.00    +0.393 HD
ENDBRANCH  22  23
ENDBRANCH  14  15
BRANCH   7   8
ATOM      8  O   UNL     1      46.415  15.719  17.301  0.00  0.00    -0.485 OA
ATOM      9  H   UNL     1      46.904  16.132  16.577  0.00  0.00    +0.400 HD
ENDBRANCH   7   8
BRANCH  28  29
ATOM     29  O   UNL     1      44.467  16.571  21.549  0.00  0.00    -0.473 OA
ATOM     30  H   UNL     1      44.434  17.242  22.244  0.00  0.00    +0.400 HD
ENDBRANCH  28  29
BRANCH   6   5
ATOM      5  C   UNL     1      45.433  14.654  19.716  0.00  0.00    +0.134 C 
BRANCH   5   4
ATOM      1  C   UNL     1      45.202  13.198  22.122  0.00  0.00    +0.076 C 
ATOM      2  C   UNL     1      46.562  13.559  21.584  0.00  0.00    -0.123 C 
ATOM      3  C   UNL     1      47.804  13.080  22.292  0.00  0.00    +0.074 C 
ATOM      4  C   UNL     1      46.667  14.289  20.501  0.00  0.00    -0.063 C 
ENDBRANCH   5   4
ENDBRANCH   6   5
TORSDOF 7
ENDMDL
MODEL 2
REMARK VINA RESULT:      -6.3      3.000      5.009
REMARK  Name = ZINC05158952
REMARK  9 active torsions:
REMARK  status: ('A' for Active; 'I' for Inactive)
REMARK    1  A    between atoms: C1_1  and  C2_2
REMARK    2  A    between atoms: C2_2  and  C20_27
REMARK    3  A    between atoms: C3_3  and  C4_4
REMARK    4  A    between atoms: C4_4  and  C5_5
REMARK    5  A    between atoms: C6_6  and  O6_26
REMARK    6  A    between atoms: C10_10  and  O1_11
REMARK    7  A    between atoms: C12_14  and  C14_18
REMARK    8  A    between atoms: C17_21  and  O5_25
REMARK    9  A    between atoms: C19_23  and  O4_24
REMARK                            x       y       z     vdW  Elec       q    Type
REMARK                         _______ _______ _______ _____ _____    ______ ____
ROOT
ATOM      6  C   UNL     1      47.475  20.592  20.182  0.00  0.00    -0.171 A 
ATOM      7  C   UNL     1      47.173  21.384  21.284  0.00  0.00    +0.196 A 
ATOM     10  C   UNL     1      46.015  21.165  22.017  0.00  0.00    -0.048 A 
ATOM     11  C   UNL     1      45.145  20.150  21.659  0.00  0.00    +0.199 A 
ATOM     12  C   UNL     1      45.451  19.342  20.549  0.00  0.00    -0.285 A 
ATOM     13  C   UNL     1      44.534  18.256  20.184  0.00  0.00    +0.411 C 
ATOM     14  C   UNL     1      43.173  18.261  20.856  0.00  0.00    +0.003 C 
ATOM     25  C   UNL     1      43.392  18.663  22.322  0.00  0.00    +0.281 C 
ATOM     26  O   UNL     1      44.848  17.398  19.386  0.00  0.00    -0.421 OA
ATOM     27  O   UNL     1      44.012  19.948  22.371  0.00  0.00    -0.299 OA
ATOM     28  C   UNL     1      46.621  19.570  19.808  0.00  0.00    +0.225 A 
ENDROOT
BRANCH  14  15
ATOM     15  C   UNL     1      42.271  19.260  20.179  0.00  0.00    -0.122 A 
ATOM     16  C   UNL     1      42.752  20.032  19.139  0.00  0.00    +0.066 A 
ATOM     17  C   UNL     1      41.925  20.946  18.514  0.00  0.00    -0.016 A 
ATOM     18  C   UNL     1      40.611  21.098  18.936  0.00  0.00    +0.132 A 
ATOM     21  C   UNL     1      40.128  20.328  19.983  0.00  0.00    -0.033 A 
ATOM     22  C   UNL     1      40.958  19.408  20.606  0.00  0.00    +0.140 A 
BRANCH  18  19
ATOM     19  O   UNL     1      39.800  22.000  18.324  0.00  0.00    -0.495 OA
ATOM     20  H   UNL     1      39.433  22.668  18.921  0.00  0.00    +0.395 HD
ENDBRANCH  18  19
BRANCH  22  23
ATOM     23  O   UNL     1      40.487  18.652  21.632  0.00  0.00    -0.490 OA
ATOM     24  H   UNL     1      39.524  18.666  21.720  0.00  0.00    +0.393 HD
ENDBRANCH  22  23
ENDBRANCH  14  15
BRANCH   7   8
ATOM      8  O   UNL     1      48.019  22.381  21.646  0.00  0.00    -0.485 OA
ATOM      9  H   UNL     1      48.932  22.246  21.357  0.00  0.00    +0.400 HD
ENDBRANCH   7   8
BRANCH  28  29
ATOM     29  O   UNL     1      46.912  18.797  18.733  0.00  0.00    -0.473 OA
ATOM     30  H   UNL     1      46.728  19.219  17.883  0.00  0.00    +0.400 HD
ENDBRANCH  28  29
BRANCH   6   5
ATOM      5  C   UNL     1      48.735  20.847  19.396  0.00  0.00    +0.134 C 
BRANCH   5   4
ATOM      1  C   UNL     1      51.351  21.181  18.393  0.00  0.00    +0.076 C 
ATOM      2  C   UNL     1      51.118  20.380  19.648  0.00  0.00    -0.123 C 
ATOM      3  C   UNL     1      52.291  19.817  20.411  0.00  0.00    +0.074 C 
ATOM      4  C   UNL     1      49.898  20.173  20.077  0.00  0.00    -0.063 C 
ENDBRANCH   5   4
ENDBRANCH   6   5
TORSDOF 7
ENDMDL
MODEL 3
REMARK VINA RESULT:      -6.2      4.070      7.882
REMARK  Name = ZINC05158952
REMARK  9 active torsions:
REMARK  status: ('A' for Active; 'I' for Inactive)
REMARK    1  A    between atoms: C1_1  and  C2_2
REMARK    2  A    between atoms: C2_2  and  C20_27
REMARK    3  A    between atoms: C3_3  and  C4_4
REMARK    4  A    between atoms: C4_4  and  C5_5
REMARK    5  A    between atoms: C6_6  and  O6_26
REMARK    6  A    between atoms: C10_10  and  O1_11
REMARK    7  A    between atoms: C12_14  and  C14_18
REMARK    8  A    between atoms: C17_21  and  O5_25
REMARK    9  A    between atoms: C19_23  and  O4_24
REMARK                            x       y       z     vdW  Elec       q    Type
REMARK                         _______ _______ _______ _____ _____    ______ ____
ROOT
ATOM      6  C   UNL     1      45.732  20.047  19.764  0.00  0.00    -0.171 A 
ATOM      7  C   UNL     1      45.383  19.392  18.589  0.00  0.00    +0.196 A 
ATOM     10  C   UNL     1      46.273  18.523  17.971  0.00  0.00    -0.048 A 
ATOM     11  C   UNL     1      47.523  18.299  18.521  0.00  0.00    +0.199 A 
ATOM     12  C   UNL     1      47.877  18.954  19.714  0.00  0.00    -0.285 A 
ATOM     13  C   UNL     1      49.197  18.700  20.303  0.00  0.00    +0.411 C 
ATOM     14  C   UNL     1      50.200  17.965  19.431  0.00  0.00    +0.003 C 
ATOM     25  C   UNL     1      49.431  16.865  18.684  0.00  0.00    +0.281 C 
ATOM     26  O   UNL     1      49.472  19.058  21.429  0.00  0.00    -0.421 OA
ATOM     27  O   UNL     1      48.390  17.459  17.909  0.00  0.00    -0.299 OA
ATOM     28  C   UNL     1      46.975  19.835  20.332  0.00  0.00    +0.225 A 
ENDROOT
BRANCH  14  15
ATOM     15  C   UNL     1      50.817  18.921  18.443  0.00  0.00    -0.122 A 
ATOM     16  C   UNL     1      50.444  20.252  18.443  0.00  0.00    +0.066 A 
ATOM     17  C   UNL     1      51.012  21.130  17.541  0.00  0.00    -0.016 A 
ATOM     18  C   UNL     1      51.952  20.676  16.625  0.00  0.00    +0.132 A 
ATOM     21  C   UNL     1      52.324  19.341  16.620  0.00  0.00    -0.033 A 
ATOM     22  C   UNL     1      51.756  18.462  17.529  0.00  0.00    +0.140 A 
BRANCH  18  19
ATOM     19  O   UNL     1      52.507  21.540  15.736  0.00  0.00    -0.495 OA
ATOM     20  H   UNL     1      51.921  22.264  15.472  0.00  0.00    +0.395 HD
ENDBRANCH  18  19
BRANCH  22  23
ATOM     23  O   UNL     1      52.118  17.152  17.527  0.00  0.00    -0.490 OA
ATOM     24  H   UNL     1      52.956  16.975  17.976  0.00  0.00    +0.393 HD
ENDBRANCH  22  23
ENDBRANCH  14  15
BRANCH   7   8
ATOM      8  O   UNL     1      44.160  19.603  18.040  0.00  0.00    -0.485 OA
ATOM      9  H   UNL     1      44.189  19.969  17.146  0.00  0.00    +0.400 HD
ENDBRANCH   7   8
BRANCH  28  29
ATOM     29  O   UNL     1      47.320  20.475  21.477  0.00  0.00    -0.473 OA
ATOM     30  H   UNL     1      47.501  19.883  22.220  0.00  0.00    +0.400 HD
ENDBRANCH  28  29
BRANCH   6   5
ATOM      5  C   UNL     1      44.755  20.989  20.418  0.00  0.00    +0.134 C 
BRANCH   5   4
ATOM      1  C   UNL     1      42.660  22.489  19.268  0.00  0.00    +0.076 C 
ATOM      2  C   UNL     1      44.020  23.110  19.455  0.00  0.00    -0.123 C 
ATOM      3  C   UNL     1      44.243  24.556  19.096  0.00  0.00    +0.074 C 
ATOM      4  C   UNL     1      45.009  22.393  19.931  0.00  0.00    -0.063 C 
ENDBRANCH   5   4
ENDBRANCH   6   5
TORSDOF 7
ENDMDL
MODEL 4
REMARK VINA RESULT:      -6.1      1.943      4.093
REMARK  Name = ZINC05158952
REMARK  9 active torsions:
REMARK  status: ('A' for Active; 'I' for Inactive)
REMARK    1  A    between atoms: C1_1  and  C2_2
REMARK    2  A    between atoms: C2_2  and  C20_27
REMARK    3  A    between atoms: C3_3  and  C4_4
REMARK    4  A    between atoms: C4_4  and  C5_5
REMARK    5  A    between atoms: C6_6  and  O6_26
REMARK    6  A    between atoms: C10_10  and  O1_11
REMARK    7  A    between atoms: C12_14  and  C14_18
REMARK    8  A    between atoms: C17_21  and  O5_25
REMARK    9  A    between atoms: C19_23  and  O4_24
REMARK                            x       y       z     vdW  Elec       q    Type
REMARK                         _______ _______ _______ _____ _____    ______ ____
ROOT
ATOM      6  C   UNL     1      45.376  15.999  20.482  0.00  0.00    -0.171 A 
ATOM      7  C   UNL     1      44.541  16.103  21.588  0.00  0.00    +0.196 A 
ATOM     10  C   UNL     1      43.741  17.222  21.770  0.00  0.00    -0.048 A 
ATOM     11  C   UNL     1      43.764  18.252  20.845  0.00  0.00    +0.199 A 
ATOM     12  C   UNL     1      44.602  18.148  19.720  0.00  0.00    -0.285 A 
ATOM     13  C   UNL     1      44.611  19.234  18.734  0.00  0.00    +0.411 C 
ATOM     14  C   UNL     1      43.928  20.527  19.141  0.00  0.00    +0.003 C 
ATOM     25  C   UNL     1      42.647  20.144  19.899  0.00  0.00    +0.281 C 
ATOM     26  O   UNL     1      45.137  19.105  17.648  0.00  0.00    -0.421 OA
ATOM     27  O   UNL     1      42.989  19.346  21.032  0.00  0.00    -0.299 OA
ATOM     28  C   UNL     1      45.413  17.015  19.545  0.00  0.00    +0.225 A 
ENDROOT
BRANCH  14  15
ATOM     15  C   UNL     1      44.836  21.326  20.040  0.00  0.00    -0.122 A 
ATOM     16  C   UNL     1      46.068  20.818  20.404  0.00  0.00    +0.066 A 
ATOM     17  C   UNL     1      46.904  21.552  21.224  0.00  0.00    -0.016 A 
ATOM     18  C   UNL     1      46.504  22.795  21.693  0.00  0.00    +0.132 A 
ATOM     21  C   UNL     1      45.265  23.304  21.333  0.00  0.00    -0.033 A 
ATOM     22  C   UNL     1      44.430  22.569  20.506  0.00  0.00    +0.140 A 
BRANCH  18  19
ATOM     19  O   UNL     1      47.325  23.513  22.503  0.00  0.00    -0.495 OA
ATOM     20  H   UNL     1      47.127  24.460  22.524  0.00  0.00    +0.395 HD
ENDBRANCH  18  19
BRANCH  22  23
ATOM     23  O   UNL     1      43.216  23.065  20.152  0.00  0.00    -0.490 OA
ATOM     24  H   UNL     1      42.496  22.800  20.740  0.00  0.00    +0.393 HD
ENDBRANCH  22  23
ENDBRANCH  14  15
BRANCH   7   8
ATOM      8  O   UNL     1      44.508  15.099  22.502  0.00  0.00    -0.485 OA
ATOM      9  H   UNL     1      43.944  15.282  23.265  0.00  0.00    +0.400 HD
ENDBRANCH   7   8
BRANCH  28  29
ATOM     29  O   UNL     1      46.228  16.918  18.466  0.00  0.00    -0.473 OA
ATOM     30  H   UNL     1      46.979  16.322  18.591  0.00  0.00    +0.400 HD
ENDBRANCH  28  29
BRANCH   6   5
ATOM      5  C   UNL     1      46.241  14.778  20.305  0.00  0.00    +0.134 C 
BRANCH   5   4
ATOM      1  C   UNL     1      47.782  13.721  18.191  0.00  0.00    +0.076 C 
ATOM      2  C   UNL     1      46.340  13.317  18.351  0.00  0.00    -0.123 C 
ATOM      3  C   UNL     1      45.738  12.291  17.425  0.00  0.00    +0.074 C 
ATOM      4  C   UNL     1      45.608  13.856  19.295  0.00  0.00    -0.063 C 
ENDBRANCH   5   4
ENDBRANCH   6   5
TORSDOF 7
ENDMDL
MODEL 5
REMARK VINA RESULT:      -5.9      2.023      2.846
REMARK  Name = ZINC05158952
REMARK  9 active torsions:
REMARK  status: ('A' for Active; 'I' for Inactive)
REMARK    1  A    between atoms: C1_1  and  C2_2
REMARK    2  A    between atoms: C2_2  and  C20_27
REMARK    3  A    between atoms: C3_3  and  C4_4
REMARK    4  A    between atoms: C4_4  and  C5_5
REMARK    5  A    between atoms: C6_6  and  O6_26
REMARK    6  A    between atoms: C10_10  and  O1_11
REMARK    7  A    between atoms: C12_14  and  C14_18
REMARK    8  A    between atoms: C17_21  and  O5_25
REMARK    9  A    between atoms: C19_23  and  O4_24
REMARK                            x       y       z     vdW  Elec       q    Type
REMARK                         _______ _______ _______ _____ _____    ______ ____
ROOT
ATOM      6  C   UNL     1      46.254  16.107  18.108  0.00  0.00    -0.171 A 
ATOM      7  C   UNL     1      46.852  17.216  17.522  0.00  0.00    +0.196 A 
ATOM     10  C   UNL     1      46.713  18.477  18.084  0.00  0.00    -0.048 A 
ATOM     11  C   UNL     1      45.974  18.645  19.242  0.00  0.00    +0.199 A 
ATOM     12  C   UNL     1      45.372  17.525  19.843  0.00  0.00    -0.285 A 
ATOM     13  C   UNL     1      44.604  17.705  21.080  0.00  0.00    +0.411 C 
ATOM     14  C   UNL     1      44.271  19.134  21.471  0.00  0.00    +0.003 C 
ATOM     25  C   UNL     1      45.511  19.988  21.168  0.00  0.00    +0.281 C 
ATOM     26  O   UNL     1      44.253  16.761  21.756  0.00  0.00    -0.421 OA
ATOM     27  O   UNL     1      45.832  19.879  19.781  0.00  0.00    -0.299 OA
ATOM     28  C   UNL     1      45.513  16.252  19.267  0.00  0.00    +0.225 A 
ENDROOT
BRANCH  14  15
ATOM     15  C   UNL     1      43.099  19.627  20.662  0.00  0.00    -0.122 A 
ATOM     16  C   UNL     1      43.273  20.639  19.738  0.00  0.00    +0.066 A 
ATOM     17  C   UNL     1      42.201  21.088  18.992  0.00  0.00    -0.016 A 
ATOM     18  C   UNL     1      40.943  20.531  19.176  0.00  0.00    +0.132 A 
ATOM     21  C   UNL     1      40.764  19.519  20.107  0.00  0.00    -0.033 A 
ATOM     22  C   UNL     1      41.842  19.066  20.851  0.00  0.00    +0.140 A 
BRANCH  18  19
ATOM     19  O   UNL     1      39.888  20.978  18.446  0.00  0.00    -0.495 OA
ATOM     20  H   UNL     1      39.064  20.498  18.610  0.00  0.00    +0.395 HD
ENDBRANCH  18  19
BRANCH  22  23
ATOM     23  O   UNL     1      41.670  18.074  21.763  0.00  0.00    -0.490 OA
ATOM     24  H   UNL     1      41.731  17.184  21.392  0.00  0.00    +0.393 HD
ENDBRANCH  22  23
ENDBRANCH  14  15
BRANCH   7   8
ATOM      8  O   UNL     1      47.581  17.064  16.387  0.00  0.00    -0.485 OA
ATOM      9  H   UNL     1      48.434  16.630  16.523  0.00  0.00    +0.400 HD
ENDBRANCH   7   8
BRANCH  28  29
ATOM     29  O   UNL     1      44.925  15.173  19.841  0.00  0.00    -0.473 OA
ATOM     30  H   UNL     1      44.834  14.414  19.250  0.00  0.00    +0.400 HD
ENDBRANCH  28  29
BRANCH   6   5
ATOM      5  C   UNL     1      46.413  14.746  17.481  0.00  0.00    +0.134 C 
BRANCH   5   4
ATOM      1  C   UNL     1      48.041  13.292  15.694  0.00  0.00    +0.076 C 
ATOM      2  C   UNL     1      48.478  13.495  17.122  0.00  0.00    -0.123 C 
ATOM      3  C   UNL     1      49.821  12.983  17.578  0.00  0.00    +0.074 C 
ATOM      4  C   UNL     1      47.692  14.116  17.966  0.00  0.00    -0.063 C 
ENDBRANCH   5   4
ENDBRANCH   6   5
TORSDOF 7
ENDMDL
MODEL 6
REMARK VINA RESULT:      -5.7      3.670      5.649
REMARK  Name = ZINC05158952
REMARK  9 active torsions:
REMARK  status: ('A' for Active; 'I' for Inactive)
REMARK    1  A    between atoms: C1_1  and  C2_2
REMARK    2  A    between atoms: C2_2  and  C20_27
REMARK    3  A    between atoms: C3_3  and  C4_4
REMARK    4  A    between atoms: C4_4  and  C5_5
REMARK    5  A    between atoms: C6_6  and  O6_26
REMARK    6  A    between atoms: C10_10  and  O1_11
REMARK    7  A    between atoms: C12_14  and  C14_18
REMARK    8  A    between atoms: C17_21  and  O5_25
REMARK    9  A    between atoms: C19_23  and  O4_24
REMARK                            x       y       z     vdW  Elec       q    Type
REMARK                         _______ _______ _______ _____ _____    ______ ____
ROOT
ATOM      6  C   UNL     1      50.064  17.992  19.146  0.00  0.00    -0.171 A 
ATOM      7  C   UNL     1      50.039  18.175  20.524  0.00  0.00    +0.196 A 
ATOM     10  C   UNL     1      48.839  18.141  21.221  0.00  0.00    -0.048 A 
ATOM     11  C   UNL     1      47.649  17.921  20.550  0.00  0.00    +0.199 A 
ATOM     12  C   UNL     1      47.671  17.728  19.156  0.00  0.00    -0.285 A 
ATOM     13  C   UNL     1      46.409  17.479  18.451  0.00  0.00    +0.411 C 
ATOM     14  C   UNL     1      45.132  17.731  19.233  0.00  0.00    +0.003 C 
ATOM     25  C   UNL     1      45.366  17.216  20.661  0.00  0.00    +0.281 C 
ATOM     26  O   UNL     1      46.387  17.091  17.301  0.00  0.00    -0.421 OA
ATOM     27  O   UNL     1      46.481  17.899  21.233  0.00  0.00    -0.299 OA
ATOM     28  C   UNL     1      48.887  17.769  18.455  0.00  0.00    +0.225 A 
ENDROOT
BRANCH  14  15
ATOM     15  C   UNL     1      44.832  19.207  19.263  0.00  0.00    -0.122 A 
ATOM     16  C   UNL     1      45.773  20.113  18.812  0.00  0.00    +0.066 A 
ATOM     17  C   UNL     1      45.498  21.467  18.834  0.00  0.00    -0.016 A 
ATOM     18  C   UNL     1      44.279  21.921  19.319  0.00  0.00    +0.132 A 
ATOM     21  C   UNL     1      43.335  21.014  19.777  0.00  0.00    -0.033 A 
ATOM     22  C   UNL     1      43.612  19.656  19.749  0.00  0.00    +0.140 A 
BRANCH  18  19
ATOM     19  O   UNL     1      44.011  23.253  19.345  0.00  0.00    -0.495 OA
ATOM     20  H   UNL     1      43.479  23.533  20.104  0.00  0.00    +0.395 HD
ENDBRANCH  18  19
BRANCH  22  23
ATOM     23  O   UNL     1      42.689  18.765  20.197  0.00  0.00    -0.490 OA
ATOM     24  H   UNL     1      42.550  18.790  21.154  0.00  0.00    +0.393 HD
ENDBRANCH  22  23
ENDBRANCH  14  15
BRANCH   7   8
ATOM      8  O   UNL     1      51.199  18.390  21.194  0.00  0.00    -0.485 OA
ATOM      9  H   UNL     1      51.931  17.831  20.900  0.00  0.00    +0.400 HD
ENDBRANCH   7   8
BRANCH  28  29
ATOM     29  O   UNL     1      48.907  17.593  17.111  0.00  0.00    -0.473 OA
ATOM     30  H   UNL     1      48.182  17.050  16.774  0.00  0.00    +0.400 HD
ENDBRANCH  28  29
BRANCH   6   5
ATOM      5  C   UNL     1      51.375  18.038  18.405  0.00  0.00    +0.134 C 
BRANCH   5   4
ATOM      1  C   UNL     1      51.934  18.509  15.680  0.00  0.00    +0.076 C 
ATOM      2  C   UNL     1      51.825  19.664  16.641  0.00  0.00    -0.123 C 
ATOM      3  C   UNL     1      51.941  21.079  16.133  0.00  0.00    +0.074 C 
ATOM      4  C   UNL     1      51.628  19.441  17.917  0.00  0.00    -0.063 C 
ENDBRANCH   5   4
ENDBRANCH   6   5
TORSDOF 7
ENDMDL
MODEL 7
REMARK VINA RESULT:      -5.6      5.895     10.028
REMARK  Name = ZINC05158952
REMARK  9 active torsions:
REMARK  status: ('A' for Active; 'I' for Inactive)
REMARK    1  A    between atoms: C1_1  and  C2_2
REMARK    2  A    between atoms: C2_2  and  C20_27
REMARK    3  A    between atoms: C3_3  and  C4_4
REMARK    4  A    between atoms: C4_4  and  C5_5
REMARK    5  A    between atoms: C6_6  and  O6_26
REMARK    6  A    between atoms: C10_10  and  O1_11
REMARK    7  A    between atoms: C12_14  and  C14_18
REMARK    8  A    between atoms: C17_21  and  O5_25
REMARK    9  A    between atoms: C19_23  and  O4_24
REMARK                            x       y       z     vdW  Elec       q    Type
REMARK                         _______ _______ _______ _____ _____    ______ ____
ROOT
ATOM      6  C   UNL     1      49.501  16.726  17.754  0.00  0.00    -0.171 A 
ATOM      7  C   UNL     1      48.146  16.636  17.462  0.00  0.00    +0.196 A 
ATOM     10  C   UNL     1      47.614  15.476  16.915  0.00  0.00    -0.048 A 
ATOM     11  C   UNL     1      48.432  14.390  16.655  0.00  0.00    +0.199 A 
ATOM     12  C   UNL     1      49.803  14.474  16.956  0.00  0.00    -0.285 A 
ATOM     13  C   UNL     1      50.663  13.315  16.694  0.00  0.00    +0.411 C 
ATOM     14  C   UNL     1      50.067  12.203  15.850  0.00  0.00    +0.003 C 
ATOM     25  C   UNL     1      48.606  12.032  16.292  0.00  0.00    +0.281 C 
ATOM     26  O   UNL     1      51.793  13.247  17.131  0.00  0.00    -0.421 OA
ATOM     27  O   UNL     1      47.910  13.265  16.112  0.00  0.00    -0.299 OA
ATOM     28  C   UNL     1      50.336  15.652  17.505  0.00  0.00    +0.225 A 
ENDROOT
BRANCH  14  15
ATOM     15  C   UNL     1      50.121  12.581  14.392  0.00  0.00    -0.122 A 
ATOM     16  C   UNL     1      48.949  12.770  13.683  0.00  0.00    +0.066 A 
ATOM     17  C   UNL     1      48.997  13.121  12.348  0.00  0.00    -0.016 A 
ATOM     18  C   UNL     1      50.221  13.276  11.712  0.00  0.00    +0.132 A 
ATOM     21  C   UNL     1      51.398  13.082  12.420  0.00  0.00    -0.033 A 
ATOM     22  C   UNL     1      51.348  12.734  13.761  0.00  0.00    +0.140 A 
BRANCH  18  19
ATOM     19  O   UNL     1      50.266  13.617  10.398  0.00  0.00    -0.495 OA
ATOM     20  H   UNL     1      49.396  13.707   9.985  0.00  0.00    +0.395 HD
ENDBRANCH  18  19
BRANCH  22  23
ATOM     23  O   UNL     1      52.499  12.544  14.458  0.00  0.00    -0.490 OA
ATOM     24  H   UNL     1      53.087  13.311  14.462  0.00  0.00    +0.393 HD
ENDBRANCH  22  23
ENDBRANCH  14  15
BRANCH   7   8
ATOM      8  O   UNL     1      47.333  17.693  17.714  0.00  0.00    -0.485 OA
ATOM      9  H   UNL     1      46.651  17.515  18.376  0.00  0.00    +0.400 HD
ENDBRANCH   7   8
BRANCH  28  29
ATOM     29  O   UNL     1      51.660  15.736  17.786  0.00  0.00    -0.473 OA
ATOM     30  H   UNL     1      51.986  16.642  17.878  0.00  0.00    +0.400 HD
ENDBRANCH  28  29
BRANCH   6   5
ATOM      5  C   UNL     1      50.061  17.994  18.344  0.00  0.00    +0.134 C 
BRANCH   5   4
ATOM      1  C   UNL     1      52.661  19.091  18.335  0.00  0.00    +0.076 C 
ATOM      2  C   UNL     1      51.716  19.376  17.196  0.00  0.00    -0.123 C 
ATOM      3  C   UNL     1      52.182  20.188  16.015  0.00  0.00    +0.074 C 
ATOM      4  C   UNL     1      50.488  18.918  17.233  0.00  0.00    -0.063 C 
ENDBRANCH   5   4
ENDBRANCH   6   5
TORSDOF 7
ENDMDL
MODEL 8
REMARK VINA RESULT:      -5.6      4.760      9.263
REMARK  Name = ZINC05158952
REMARK  9 active torsions:
REMARK  status: ('A' for Active; 'I' for Inactive)
REMARK    1  A    between atoms: C1_1  and  C2_2
REMARK    2  A    between atoms: C2_2  and  C20_27
REMARK    3  A    between atoms: C3_3  and  C4_4
REMARK    4  A    between atoms: C4_4  and  C5_5
REMARK    5  A    between atoms: C6_6  and  O6_26
REMARK    6  A    between atoms: C10_10  and  O1_11
REMARK    7  A    between atoms: C12_14  and  C14_18
REMARK    8  A    between atoms: C17_21  and  O5_25
REMARK    9  A    between atoms: C19_23  and  O4_24
REMARK                            x       y       z     vdW  Elec       q    Type
REMARK                         _______ _______ _______ _____ _____    ______ ____
ROOT
ATOM      6  C   UNL     1      47.807  16.811  18.519  0.00  0.00    -0.171 A 
ATOM      7  C   UNL     1      46.893  16.971  17.484  0.00  0.00    +0.196 A 
ATOM     10  C   UNL     1      46.631  15.931  16.603  0.00  0.00    -0.048 A 
ATOM     11  C   UNL     1      47.278  14.716  16.748  0.00  0.00    +0.199 A 
ATOM     12  C   UNL     1      48.198  14.547  17.799  0.00  0.00    -0.285 A 
ATOM     13  C   UNL     1      48.869  13.252  17.958  0.00  0.00    +0.411 C 
ATOM     14  C   UNL     1      48.739  12.273  16.806  0.00  0.00    +0.003 C 
ATOM     25  C   UNL     1      47.295  12.367  16.291  0.00  0.00    +0.281 C 
ATOM     26  O   UNL     1      49.495  12.978  18.961  0.00  0.00    -0.421 OA
ATOM     27  O   UNL     1      47.027  13.708  15.880  0.00  0.00    -0.299 OA
ATOM     28  C   UNL     1      48.463  15.605  18.683  0.00  0.00    +0.225 A 
ENDROOT
BRANCH  14  15
ATOM     15  C   UNL     1      49.700  12.644  15.707  0.00  0.00    -0.122 A 
ATOM     16  C   UNL     1      50.621  13.655  15.906  0.00  0.00    +0.066 A 
ATOM     17  C   UNL     1      51.506  13.994  14.901  0.00  0.00    -0.016 A 
ATOM     18  C   UNL     1      51.467  13.325  13.685  0.00  0.00    +0.132 A 
ATOM     21  C   UNL     1      50.542  12.313  13.481  0.00  0.00    -0.033 A 
ATOM     22  C   UNL     1      49.657  11.972  14.493  0.00  0.00    +0.140 A 
BRANCH  18  19
ATOM     19  O   UNL     1      52.336  13.661  12.696  0.00  0.00    -0.495 OA
ATOM     20  H   UNL     1      52.166  13.216  11.854  0.00  0.00    +0.395 HD
ENDBRANCH  18  19
BRANCH  22  23
ATOM     23  O   UNL     1      48.749  10.980  14.296  0.00  0.00    -0.490 OA
ATOM     24  H   UNL     1      48.349  10.983  13.416  0.00  0.00    +0.393 HD
ENDBRANCH  22  23
ENDBRANCH  14  15
BRANCH   7   8
ATOM      8  O   UNL     1      46.251  18.157  17.332  0.00  0.00    -0.485 OA
ATOM      9  H   UNL     1      46.002  18.354  16.419  0.00  0.00    +0.400 HD
ENDBRANCH   7   8
BRANCH  28  29
ATOM     29  O   UNL     1      49.356  15.446  19.691  0.00  0.00    -0.473 OA
ATOM     30  H   UNL     1      48.964  15.140  20.520  0.00  0.00    +0.400 HD
ENDBRANCH  28  29
BRANCH   6   5
ATOM      5  C   UNL     1      48.082  17.953  19.463  0.00  0.00    +0.134 C 
BRANCH   5   4
ATOM      1  C   UNL     1      47.802  20.758  19.329  0.00  0.00    +0.076 C 
ATOM      2  C   UNL     1      49.095  20.106  18.911  0.00  0.00    -0.123 C 
ATOM      3  C   UNL     1      50.266  20.956  18.490  0.00  0.00    +0.074 C 
ATOM      4  C   UNL     1      49.201  18.799  18.914  0.00  0.00    -0.063 C 
ENDBRANCH   5   4
ENDBRANCH   6   5
TORSDOF 7
ENDMDL
MODEL 9
REMARK VINA RESULT:      -5.5      5.943      7.941
REMARK  Name = ZINC05158952
REMARK  9 active torsions:
REMARK  status: ('A' for Active; 'I' for Inactive)
REMARK    1  A    between atoms: C1_1  and  C2_2
REMARK    2  A    between atoms: C2_2  and  C20_27
REMARK    3  A    between atoms: C3_3  and  C4_4
REMARK    4  A    between atoms: C4_4  and  C5_5
REMARK    5  A    between atoms: C6_6  and  O6_26
REMARK    6  A    between atoms: C10_10  and  O1_11
REMARK    7  A    between atoms: C12_14  and  C14_18
REMARK    8  A    between atoms: C17_21  and  O5_25
REMARK    9  A    between atoms: C19_23  and  O4_24
REMARK                            x       y       z     vdW  Elec       q    Type
REMARK                         _______ _______ _______ _____ _____    ______ ____
ROOT
ATOM      6  C   UNL     1      50.591  13.751  17.300  0.00  0.00    -0.171 A 
ATOM      7  C   UNL     1      51.683  13.824  18.157  0.00  0.00    +0.196 A 
ATOM     10  C   UNL     1      51.847  14.909  19.007  0.00  0.00    -0.048 A 
ATOM     11  C   UNL     1      50.919  15.936  19.011  0.00  0.00    +0.199 A 
ATOM     12  C   UNL     1      49.808  15.863  18.150  0.00  0.00    -0.285 A 
ATOM     13  C   UNL     1      48.819  16.946  18.170  0.00  0.00    +0.411 C 
ATOM     14  C   UNL     1      49.209  18.211  18.914  0.00  0.00    +0.003 C 
ATOM     25  C   UNL     1      49.947  17.777  20.190  0.00  0.00    +0.281 C 
ATOM     26  O   UNL     1      47.742  16.837  17.621  0.00  0.00    -0.421 OA
ATOM     27  O   UNL     1      51.088  16.998  19.834  0.00  0.00    -0.299 OA
ATOM     28  C   UNL     1      49.651  14.766  17.289  0.00  0.00    +0.225 A 
ENDROOT
BRANCH  14  15
ATOM     15  C   UNL     1      50.120  19.050  18.056  0.00  0.00    -0.122 A 
ATOM     16  C   UNL     1      50.685  18.511  16.915  0.00  0.00    +0.066 A 
ATOM     17  C   UNL     1      51.516  19.280  16.124  0.00  0.00    -0.016 A 
ATOM     18  C   UNL     1      51.795  20.593  16.479  0.00  0.00    +0.132 A 
ATOM     21  C   UNL     1      51.234  21.134  17.625  0.00  0.00    -0.033 A 
ATOM     22  C   UNL     1      50.396  20.362  18.415  0.00  0.00    +0.140 A 
BRANCH  18  19
ATOM     19  O   UNL     1      52.617  21.347  15.703  0.00  0.00    -0.495 OA
ATOM     20  H   UNL     1      52.239  22.198  15.440  0.00  0.00    +0.395 HD
ENDBRANCH  18  19
BRANCH  22  23
ATOM     23  O   UNL     1      49.845  20.889  19.540  0.00  0.00    -0.490 OA
ATOM     24  H   UNL     1      49.664  21.837  19.481  0.00  0.00    +0.393 HD
ENDBRANCH  22  23
ENDBRANCH  14  15
BRANCH   7   8
ATOM      8  O   UNL     1      52.599  12.822  18.163  0.00  0.00    -0.485 OA
ATOM      9  H   UNL     1      52.551  12.251  18.942  0.00  0.00    +0.400 HD
ENDBRANCH   7   8
BRANCH  28  29
ATOM     29  O   UNL     1      48.586  14.700  16.453  0.00  0.00    -0.473 OA
ATOM     30  H   UNL     1      48.380  15.534  16.011  0.00  0.00    +0.400 HD
ENDBRANCH  28  29
BRANCH   6   5
ATOM      5  C   UNL     1      50.433  12.567  16.382  0.00  0.00    +0.134 C 
BRANCH   5   4
ATOM      1  C   UNL     1      49.054  12.478  13.922  0.00  0.00    +0.076 C 
ATOM      2  C   UNL     1      50.513  12.850  13.958  0.00  0.00    -0.123 C 
ATOM      3  C   UNL     1      51.220  13.247  12.687  0.00  0.00    +0.074 C 
ATOM      4  C   UNL     1      51.168  12.830  15.093  0.00  0.00    -0.063 C 
ENDBRANCH   5   4
ENDBRANCH   6   5
TORSDOF 7
ENDMDL
