MODEL 1
REMARK VINA RESULT:      -7.5      0.000      0.000
REMARK  Name = ZINC95485880
REMARK  5 active torsions:
REMARK  status: ('A' for Active; 'I' for Inactive)
REMARK    1  A    between atoms: C1_1  and  C2_2
REMARK    2  A    between atoms: C3_3  and  O3_34
REMARK    3  A    between atoms: C16_18  and  C28_33
REMARK    4  A    between atoms: C23_25  and  C27_31
REMARK    5  A    between atoms: C27_31  and  O2_32
REMARK                            x       y       z     vdW  Elec       q    Type
REMARK                         _______ _______ _______ _____ _____    ______ ____
ROOT
ATOM      1  C   UNL     1      43.226  17.879  22.210  0.00  0.00    +0.108 C 
ATOM      2  C   UNL     1      44.012  18.161  20.955  0.00  0.00    -0.070 C 
ATOM      3  C   UNL     1      44.042  19.434  20.472  0.00  0.00    +0.012 C 
ATOM      6  C   UNL     1      44.769  19.732  19.297  0.00  0.00    +0.381 C 
ATOM      7  C   UNL     1      45.482  18.713  18.637  0.00  0.00    -0.122 C 
ATOM      8  C   UNL     1      45.456  17.446  19.117  0.00  0.00    +0.056 C 
ATOM      9  C   UNL     1      46.244  16.368  18.413  0.00  0.00    -0.090 C 
ATOM     10  C   UNL     1      47.617  16.794  17.892  0.00  0.00    +0.094 C 
ATOM     11  C   UNL     1      46.477  16.509  16.908  0.00  0.00    +0.028 C 
ATOM     12  C   UNL     1      46.594  15.209  16.097  0.00  0.00    +0.106 C 
ATOM     13  C   UNL     1      47.343  14.182  16.941  0.00  0.00    -0.083 C 
ATOM     14  C   UNL     1      46.684  13.782  18.267  0.00  0.00    +0.013 C 
ATOM     15  C   UNL     1      45.570  12.762  17.978  0.00  0.00    +0.052 C 
ATOM     16  C   UNL     1      47.750  13.136  19.150  0.00  0.00    +0.037 C 
ATOM     17  C   UNL     1      48.227  11.814  18.572  0.00  0.00    +0.055 C 
ATOM     18  C   UNL     1      48.493  11.823  17.072  0.00  0.00    -0.066 C 
ATOM     19  C   UNL     1      48.097  10.517  16.357  0.00  0.00    -0.000 C 
ATOM     20  C   UNL     1      49.577  10.931  16.479  0.00  0.00    -0.025 C 
ATOM     21  C   UNL     1      50.241  11.257  15.148  0.00  0.00    +0.055 C 
ATOM     22  C   UNL     1      49.948  12.647  14.623  0.00  0.00    +0.000 C 
ATOM     26  C   UNL     1      48.478  13.033  14.811  0.00  0.00    +0.066 C 
ATOM     27  C   UNL     1      48.871  14.377  16.975  0.00  0.00    +0.006 C 
ATOM     28  C   UNL     1      48.235  13.135  16.318  0.00  0.00    -0.055 C 
ATOM     29  C   UNL     1      46.059  14.972  18.945  0.00  0.00    +0.021 C 
ATOM     30  C   UNL     1      45.326  14.777  20.055  0.00  0.00    -0.046 C 
ATOM     31  C   UNL     1      44.674  15.814  20.731  0.00  0.00    +0.148 C 
ATOM     32  O   UNL     1      44.783  20.874  18.856  0.00  0.00    -0.491 OA
ATOM     33  C   UNL     1      44.708  17.132  20.278  0.00  0.00    -0.101 C 
ENDROOT
BRANCH   3   4
ATOM      4  O   UNL     1      43.370  20.420  21.125  0.00  0.00    -0.464 OA
ATOM      5  H   UNL     1      42.623  20.105  21.652  0.00  0.00    +0.402 HD
ENDBRANCH   3   4
BRANCH  22  23
ATOM     23  C   UNL     1      50.289  12.698  13.132  0.00  0.00    +0.168 C 
BRANCH  23  24
ATOM     24  O   UNL     1      49.179  13.232  12.407  0.00  0.00    -0.573 OA
ATOM     25  H   UNL     1      49.085  12.875  11.513  0.00  0.00    +0.380 HD
ENDBRANCH  23  24
ENDBRANCH  22  23
TORSDOF 3
ENDMDL
MODEL 2
REMARK VINA RESULT:      -7.2      4.775      8.397
REMARK  Name = ZINC95485880
REMARK  5 active torsions:
REMARK  status: ('A' for Active; 'I' for Inactive)
REMARK    1  A    between atoms: C1_1  and  C2_2
REMARK    2  A    between atoms: C3_3  and  O3_34
REMARK    3  A    between atoms: C16_18  and  C28_33
REMARK    4  A    between atoms: C23_25  and  C27_31
REMARK    5  A    between atoms: C27_31  and  O2_32
REMARK                            x       y       z     vdW  Elec       q    Type
REMARK                         _______ _______ _______ _____ _____    ______ ____
ROOT
ATOM      1  C   UNL     1      52.207  15.896  20.761  0.00  0.00    +0.108 C 
ATOM      2  C   UNL     1      51.541  16.941  19.903  0.00  0.00    -0.070 C 
ATOM      3  C   UNL     1      52.277  17.571  18.946  0.00  0.00    +0.012 C 
ATOM      6  C   UNL     1      51.683  18.556  18.125  0.00  0.00    +0.381 C 
ATOM      7  C   UNL     1      50.319  18.871  18.284  0.00  0.00    -0.122 C 
ATOM      8  C   UNL     1      49.584  18.243  19.233  0.00  0.00    +0.056 C 
ATOM      9  C   UNL     1      48.117  18.572  19.377  0.00  0.00    -0.090 C 
ATOM     10  C   UNL     1      47.363  18.787  18.064  0.00  0.00    +0.094 C 
ATOM     11  C   UNL     1      47.652  19.976  18.987  0.00  0.00    +0.028 C 
ATOM     12  C   UNL     1      46.446  20.546  19.752  0.00  0.00    +0.106 C 
ATOM     13  C   UNL     1      45.463  19.408  20.015  0.00  0.00    -0.083 C 
ATOM     14  C   UNL     1      45.982  18.247  20.872  0.00  0.00    +0.013 C 
ATOM     15  C   UNL     1      45.931  18.662  22.352  0.00  0.00    +0.052 C 
ATOM     16  C   UNL     1      45.066  17.046  20.647  0.00  0.00    +0.037 C 
ATOM     17  C   UNL     1      43.671  17.299  21.192  0.00  0.00    +0.055 C 
ATOM     18  C   UNL     1      43.092  18.671  20.874  0.00  0.00    -0.066 C 
ATOM     19  C   UNL     1      42.248  19.276  22.011  0.00  0.00    -0.000 C 
ATOM     20  C   UNL     1      41.590  18.846  20.686  0.00  0.00    -0.025 C 
ATOM     21  C   UNL     1      41.014  20.001  19.877  0.00  0.00    +0.055 C 
ATOM     22  C   UNL     1      42.034  20.769  19.063  0.00  0.00    +0.000 C 
ATOM     26  C   UNL     1      43.329  21.008  19.845  0.00  0.00    +0.066 C 
ATOM     27  C   UNL     1      44.596  19.021  18.802  0.00  0.00    +0.006 C 
ATOM     28  C   UNL     1      43.972  19.638  20.070  0.00  0.00    -0.055 C 
ATOM     29  C   UNL     1      47.412  17.917  20.533  0.00  0.00    +0.021 C 
ATOM     30  C   UNL     1      48.064  17.010  21.280  0.00  0.00    -0.046 C 
ATOM     31  C   UNL     1      49.404  16.667  21.067  0.00  0.00    +0.148 C 
ATOM     32  O   UNL     1      52.350  19.132  17.276  0.00  0.00    -0.491 OA
ATOM     33  C   UNL     1      50.178  17.274  20.079  0.00  0.00    -0.101 C 
ENDROOT
BRANCH   3   4
ATOM      4  O   UNL     1      53.589  17.248  18.782  0.00  0.00    -0.464 OA
ATOM      5  H   UNL     1      53.940  17.463  17.908  0.00  0.00    +0.402 HD
ENDBRANCH   3   4
BRANCH  22  23
ATOM     23  C   UNL     1      41.437  22.120  18.662  0.00  0.00    +0.168 C 
BRANCH  23  24
ATOM     24  O   UNL     1      40.064  21.947  18.309  0.00  0.00    -0.573 OA
ATOM     25  H   UNL     1      39.457  21.978  19.062  0.00  0.00    +0.380 HD
ENDBRANCH  23  24
ENDBRANCH  22  23
TORSDOF 3
ENDMDL
MODEL 3
REMARK VINA RESULT:      -7.1      2.443      8.361
REMARK  Name = ZINC95485880
REMARK  5 active torsions:
REMARK  status: ('A' for Active; 'I' for Inactive)
REMARK    1  A    between atoms: C1_1  and  C2_2
REMARK    2  A    between atoms: C3_3  and  O3_34
REMARK    3  A    between atoms: C16_18  and  C28_33
REMARK    4  A    between atoms: C23_25  and  C27_31
REMARK    5  A    between atoms: C27_31  and  O2_32
REMARK                            x       y       z     vdW  Elec       q    Type
REMARK                         _______ _______ _______ _____ _____    ______ ____
ROOT
ATOM      1  C   UNL     1      51.485  11.687  14.924  0.00  0.00    +0.108 C 
ATOM      2  C   UNL     1      50.110  12.205  15.256  0.00  0.00    -0.070 C 
ATOM      3  C   UNL     1      49.025  11.463  14.901  0.00  0.00    +0.012 C 
ATOM      6  C   UNL     1      47.721  11.922  15.198  0.00  0.00    +0.381 C 
ATOM      7  C   UNL     1      47.546  13.140  15.882  0.00  0.00    -0.122 C 
ATOM      8  C   UNL     1      48.624  13.879  16.241  0.00  0.00    +0.056 C 
ATOM      9  C   UNL     1      48.423  15.171  16.996  0.00  0.00    -0.090 C 
ATOM     10  C   UNL     1      47.323  15.144  18.057  0.00  0.00    +0.094 C 
ATOM     11  C   UNL     1      47.126  15.946  16.766  0.00  0.00    +0.028 C 
ATOM     12  C   UNL     1      47.196  17.476  16.903  0.00  0.00    +0.106 C 
ATOM     13  C   UNL     1      48.152  17.812  18.045  0.00  0.00    -0.083 C 
ATOM     14  C   UNL     1      49.603  17.347  17.874  0.00  0.00    +0.013 C 
ATOM     15  C   UNL     1      50.333  18.332  16.945  0.00  0.00    +0.052 C 
ATOM     16  C   UNL     1      50.268  17.355  19.250  0.00  0.00    +0.037 C 
ATOM     17  C   UNL     1      50.405  18.766  19.794  0.00  0.00    +0.055 C 
ATOM     18  C   UNL     1      49.173  19.647  19.624  0.00  0.00    -0.066 C 
ATOM     19  C   UNL     1      49.494  21.120  19.307  0.00  0.00    -0.000 C 
ATOM     20  C   UNL     1      48.851  20.725  20.651  0.00  0.00    -0.025 C 
ATOM     21  C   UNL     1      47.435  21.253  20.839  0.00  0.00    +0.055 C 
ATOM     22  C   UNL     1      46.363  20.440  20.145  0.00  0.00    +0.000 C 
ATOM     26  C   UNL     1      46.792  20.005  18.740  0.00  0.00    +0.066 C 
ATOM     27  C   UNL     1      47.547  17.646  19.452  0.00  0.00    +0.006 C 
ATOM     28  C   UNL     1      47.959  19.031  18.914  0.00  0.00    -0.055 C 
ATOM     29  C   UNL     1      49.667  15.982  17.243  0.00  0.00    +0.021 C 
ATOM     30  C   UNL     1      50.865  15.478  16.903  0.00  0.00    -0.046 C 
ATOM     31  C   UNL     1      51.022  14.237  16.276  0.00  0.00    +0.148 C 
ATOM     32  O   UNL     1      46.747  11.261  14.864  0.00  0.00    -0.491 OA
ATOM     33  C   UNL     1      49.933  13.441  15.923  0.00  0.00    -0.101 C 
ENDROOT
BRANCH   3   4
ATOM      4  O   UNL     1      49.200  10.277  14.259  0.00  0.00    -0.464 OA
ATOM      5  H   UNL     1      48.394   9.922  13.861  0.00  0.00    +0.402 HD
ENDBRANCH   3   4
BRANCH  22  23
ATOM     23  C   UNL     1      45.090  21.282  20.039  0.00  0.00    +0.168 C 
BRANCH  23  24
ATOM     24  O   UNL     1      45.038  21.908  18.756  0.00  0.00    -0.573 OA
ATOM     25  H   UNL     1      44.141  22.063  18.430  0.00  0.00    +0.380 HD
ENDBRANCH  23  24
ENDBRANCH  22  23
TORSDOF 3
ENDMDL
MODEL 4
REMARK VINA RESULT:      -6.7      2.349      3.998
REMARK  Name = ZINC95485880
REMARK  5 active torsions:
REMARK  status: ('A' for Active; 'I' for Inactive)
REMARK    1  A    between atoms: C1_1  and  C2_2
REMARK    2  A    between atoms: C3_3  and  O3_34
REMARK    3  A    between atoms: C16_18  and  C28_33
REMARK    4  A    between atoms: C23_25  and  C27_31
REMARK    5  A    between atoms: C27_31  and  O2_32
REMARK                            x       y       z     vdW  Elec       q    Type
REMARK                         _______ _______ _______ _____ _____    ______ ____
ROOT
ATOM      1  C   UNL     1      46.304  23.379  21.365  0.00  0.00    +0.108 C 
ATOM      2  C   UNL     1      45.662  22.248  20.604  0.00  0.00    -0.070 C 
ATOM      3  C   UNL     1      44.328  22.311  20.337  0.00  0.00    +0.012 C 
ATOM      6  C   UNL     1      43.695  21.266  19.625  0.00  0.00    +0.381 C 
ATOM      7  C   UNL     1      44.452  20.167  19.174  0.00  0.00    -0.122 C 
ATOM      8  C   UNL     1      45.780  20.104  19.436  0.00  0.00    +0.056 C 
ATOM      9  C   UNL     1      46.584  18.933  18.925  0.00  0.00    -0.090 C 
ATOM     10  C   UNL     1      46.216  18.448  17.522  0.00  0.00    +0.094 C 
ATOM     11  C   UNL     1      45.871  17.591  18.746  0.00  0.00    +0.028 C 
ATOM     12  C   UNL     1      46.717  16.323  18.942  0.00  0.00    +0.106 C 
ATOM     13  C   UNL     1      48.111  16.583  18.379  0.00  0.00    -0.083 C 
ATOM     14  C   UNL     1      48.909  17.716  19.037  0.00  0.00    +0.013 C 
ATOM     15  C   UNL     1      49.515  17.196  20.351  0.00  0.00    +0.052 C 
ATOM     16  C   UNL     1      50.032  18.121  18.083  0.00  0.00    +0.037 C 
ATOM     17  C   UNL     1      51.054  17.009  17.920  0.00  0.00    +0.055 C 
ATOM     18  C   UNL     1      50.468  15.614  17.736  0.00  0.00    -0.066 C 
ATOM     19  C   UNL     1      51.272  14.499  18.429  0.00  0.00    -0.000 C 
ATOM     20  C   UNL     1      51.200  14.579  16.891  0.00  0.00    -0.025 C 
ATOM     21  C   UNL     1      50.467  13.411  16.244  0.00  0.00    +0.055 C 
ATOM     22  C   UNL     1      48.957  13.524  16.270  0.00  0.00    +0.000 C 
ATOM     26  C   UNL     1      48.444  14.043  17.617  0.00  0.00    +0.066 C 
ATOM     27  C   UNL     1      48.206  16.490  16.843  0.00  0.00    +0.006 C 
ATOM     28  C   UNL     1      48.938  15.484  17.755  0.00  0.00    -0.055 C 
ATOM     29  C   UNL     1      48.022  18.886  19.367  0.00  0.00    +0.021 C 
ATOM     30  C   UNL     1      48.534  19.913  20.065  0.00  0.00    -0.046 C 
ATOM     31  C   UNL     1      47.779  21.025  20.454  0.00  0.00    +0.148 C 
ATOM     32  O   UNL     1      42.493  21.317  19.399  0.00  0.00    -0.491 OA
ATOM     33  C   UNL     1      46.417  21.133  20.172  0.00  0.00    -0.101 C 
ENDROOT
BRANCH   3   4
ATOM      4  O   UNL     1      43.606  23.384  20.756  0.00  0.00    -0.464 OA
ATOM      5  H   UNL     1      44.065  23.942  21.398  0.00  0.00    +0.402 HD
ENDBRANCH   3   4
BRANCH  22  23
ATOM     23  C   UNL     1      48.350  12.145  16.004  0.00  0.00    +0.168 C 
BRANCH  23  24
ATOM     24  O   UNL     1      47.105  12.297  15.319  0.00  0.00    -0.573 OA
ATOM     25  H   UNL     1      47.146  12.894  14.558  0.00  0.00    +0.380 HD
ENDBRANCH  23  24
ENDBRANCH  22  23
TORSDOF 3
ENDMDL
MODEL 5
REMARK VINA RESULT:      -6.7      5.200      6.711
REMARK  Name = ZINC95485880
REMARK  5 active torsions:
REMARK  status: ('A' for Active; 'I' for Inactive)
REMARK    1  A    between atoms: C1_1  and  C2_2
REMARK    2  A    between atoms: C3_3  and  O3_34
REMARK    3  A    between atoms: C16_18  and  C28_33
REMARK    4  A    between atoms: C23_25  and  C27_31
REMARK    5  A    between atoms: C27_31  and  O2_32
REMARK                            x       y       z     vdW  Elec       q    Type
REMARK                         _______ _______ _______ _____ _____    ______ ____
ROOT
ATOM      1  C   UNL     1      40.534  18.575  20.676  0.00  0.00    +0.108 C 
ATOM      2  C   UNL     1      41.488  19.622  20.162  0.00  0.00    -0.070 C 
ATOM      3  C   UNL     1      40.984  20.712  19.521  0.00  0.00    +0.012 C 
ATOM      6  C   UNL     1      41.852  21.712  19.027  0.00  0.00    +0.381 C 
ATOM      7  C   UNL     1      43.242  21.590  19.218  0.00  0.00    -0.122 C 
ATOM      8  C   UNL     1      43.747  20.508  19.859  0.00  0.00    +0.056 C 
ATOM      9  C   UNL     1      45.236  20.401  20.078  0.00  0.00    -0.090 C 
ATOM     10  C   UNL     1      45.940  21.709  20.444  0.00  0.00    +0.094 C 
ATOM     11  C   UNL     1      46.165  21.075  19.067  0.00  0.00    +0.028 C 
ATOM     12  C   UNL     1      47.538  20.421  18.841  0.00  0.00    +0.106 C 
ATOM     13  C   UNL     1      48.043  19.890  20.180  0.00  0.00    -0.083 C 
ATOM     14  C   UNL     1      47.182  18.815  20.853  0.00  0.00    +0.013 C 
ATOM     15  C   UNL     1      47.469  17.460  20.184  0.00  0.00    +0.052 C 
ATOM     16  C   UNL     1      47.574  18.749  22.328  0.00  0.00    +0.037 C 
ATOM     17  C   UNL     1      48.993  18.235  22.505  0.00  0.00    +0.055 C 
ATOM     18  C   UNL     1      50.020  18.830  21.549  0.00  0.00    -0.066 C 
ATOM     19  C   UNL     1      51.091  17.829  21.077  0.00  0.00    -0.000 C 
ATOM     20  C   UNL     1      51.466  19.011  21.992  0.00  0.00    -0.025 C 
ATOM     21  C   UNL     1      52.380  20.038  21.335  0.00  0.00    +0.055 C 
ATOM     22  C   UNL     1      51.672  21.026  20.433  0.00  0.00    +0.000 C 
ATOM     26  C   UNL     1      50.604  20.349  19.567  0.00  0.00    +0.066 C 
ATOM     27  C   UNL     1      48.634  20.967  21.110  0.00  0.00    +0.006 C 
ATOM     28  C   UNL     1      49.514  19.848  20.517  0.00  0.00    -0.055 C 
ATOM     29  C   UNL     1      45.715  19.111  20.689  0.00  0.00    +0.021 C 
ATOM     30  C   UNL     1      44.818  18.203  21.107  0.00  0.00    -0.046 C 
ATOM     31  C   UNL     1      43.436  18.370  20.960  0.00  0.00    +0.148 C 
ATOM     32  O   UNL     1      41.397  22.684  18.437  0.00  0.00    -0.491 OA
ATOM     33  C   UNL     1      42.886  19.487  20.333  0.00  0.00    -0.101 C 
ENDROOT
BRANCH   3   4
ATOM      4  O   UNL     1      39.639  20.837  19.357  0.00  0.00    -0.464 OA
ATOM      5  H   UNL     1      39.209  21.381  20.030  0.00  0.00    +0.402 HD
ENDBRANCH   3   4
BRANCH  22  23
ATOM     23  C   UNL     1      52.702  21.695  19.521  0.00  0.00    +0.168 C 
BRANCH  23  24
ATOM     24  O   UNL     1      52.576  21.174  18.197  0.00  0.00    -0.573 OA
ATOM     25  H   UNL     1      53.264  21.477  17.588  0.00  0.00    +0.380 HD
ENDBRANCH  23  24
ENDBRANCH  22  23
TORSDOF 3
ENDMDL
MODEL 6
REMARK VINA RESULT:      -6.6      3.793      4.737
REMARK  Name = ZINC95485880
REMARK  5 active torsions:
REMARK  status: ('A' for Active; 'I' for Inactive)
REMARK    1  A    between atoms: C1_1  and  C2_2
REMARK    2  A    between atoms: C3_3  and  O3_34
REMARK    3  A    between atoms: C16_18  and  C28_33
REMARK    4  A    between atoms: C23_25  and  C27_31
REMARK    5  A    between atoms: C27_31  and  O2_32
REMARK                            x       y       z     vdW  Elec       q    Type
REMARK                         _______ _______ _______ _____ _____    ______ ____
ROOT
ATOM      1  C   UNL     1      40.903  18.380  21.756  0.00  0.00    +0.108 C 
ATOM      2  C   UNL     1      41.721  19.115  20.725  0.00  0.00    -0.070 C 
ATOM      3  C   UNL     1      41.133  20.111  20.009  0.00  0.00    +0.012 C 
ATOM      6  C   UNL     1      41.873  20.820  19.035  0.00  0.00    +0.381 C 
ATOM      7  C   UNL     1      43.229  20.508  18.821  0.00  0.00    -0.122 C 
ATOM      8  C   UNL     1      43.819  19.519  19.536  0.00  0.00    +0.056 C 
ATOM      9  C   UNL     1      45.280  19.210  19.315  0.00  0.00    -0.090 C 
ATOM     10  C   UNL     1      46.181  20.427  19.100  0.00  0.00    +0.094 C 
ATOM     11  C   UNL     1      45.874  19.483  17.932  0.00  0.00    +0.028 C 
ATOM     12  C   UNL     1      47.026  18.573  17.478  0.00  0.00    +0.106 C 
ATOM     13  C   UNL     1      47.900  18.264  18.691  0.00  0.00    -0.083 C 
ATOM     14  C   UNL     1      47.220  17.520  19.847  0.00  0.00    +0.013 C 
ATOM     15  C   UNL     1      47.142  16.026  19.495  0.00  0.00    +0.052 C 
ATOM     16  C   UNL     1      48.075  17.707  21.099  0.00  0.00    +0.037 C 
ATOM     17  C   UNL     1      49.418  17.010  20.965  0.00  0.00    +0.055 C 
ATOM     18  C   UNL     1      50.116  17.203  19.624  0.00  0.00    -0.066 C 
ATOM     19  C   UNL     1      50.872  15.957  19.125  0.00  0.00    -0.000 C 
ATOM     20  C   UNL     1      51.637  17.227  19.546  0.00  0.00    -0.025 C 
ATOM     21  C   UNL     1      52.368  17.918  18.402  0.00  0.00    +0.055 C 
ATOM     22  C   UNL     1      51.492  18.795  17.534  0.00  0.00    +0.000 C 
ATOM     26  C   UNL     1      50.139  18.140  17.237  0.00  0.00    +0.066 C 
ATOM     27  C   UNL     1      48.864  19.399  19.088  0.00  0.00    +0.006 C 
ATOM     28  C   UNL     1      49.389  18.046  18.567  0.00  0.00    -0.055 C 
ATOM     29  C   UNL     1      45.816  18.019  20.063  0.00  0.00    +0.021 C 
ATOM     30  C   UNL     1      45.031  17.387  20.952  0.00  0.00    -0.046 C 
ATOM     31  C   UNL     1      43.702  17.752  21.192  0.00  0.00    +0.148 C 
ATOM     32  O   UNL     1      41.337  21.705  18.380  0.00  0.00    -0.491 OA
ATOM     33  C   UNL     1      43.077  18.785  20.495  0.00  0.00    -0.101 C 
ENDROOT
BRANCH   3   4
ATOM      4  O   UNL     1      39.828  20.424  20.233  0.00  0.00    -0.464 OA
ATOM      5  H   UNL     1      39.690  21.027  20.976  0.00  0.00    +0.402 HD
ENDBRANCH   3   4
BRANCH  22  23
ATOM     23  C   UNL     1      52.213  19.068  16.213  0.00  0.00    +0.168 C 
BRANCH  23  24
ATOM     24  O   UNL     1      52.214  17.882  15.416  0.00  0.00    -0.573 OA
ATOM     25  H   UNL     1      53.082  17.650  15.058  0.00  0.00    +0.380 HD
ENDBRANCH  23  24
ENDBRANCH  22  23
TORSDOF 3
ENDMDL
MODEL 7
REMARK VINA RESULT:      -6.6      3.281      4.648
REMARK  Name = ZINC95485880
REMARK  5 active torsions:
REMARK  status: ('A' for Active; 'I' for Inactive)
REMARK    1  A    between atoms: C1_1  and  C2_2
REMARK    2  A    between atoms: C3_3  and  O3_34
REMARK    3  A    between atoms: C16_18  and  C28_33
REMARK    4  A    between atoms: C23_25  and  C27_31
REMARK    5  A    between atoms: C27_31  and  O2_32
REMARK                            x       y       z     vdW  Elec       q    Type
REMARK                         _______ _______ _______ _____ _____    ______ ____
ROOT
ATOM      1  C   UNL     1      42.445  21.032  19.082  0.00  0.00    +0.108 C 
ATOM      2  C   UNL     1      43.861  21.271  19.539  0.00  0.00    -0.070 C 
ATOM      3  C   UNL     1      44.156  22.437  20.176  0.00  0.00    +0.012 C 
ATOM      6  C   UNL     1      45.475  22.693  20.618  0.00  0.00    +0.381 C 
ATOM      7  C   UNL     1      46.481  21.728  20.416  0.00  0.00    -0.122 C 
ATOM      8  C   UNL     1      46.188  20.564  19.785  0.00  0.00    +0.056 C 
ATOM      9  C   UNL     1      47.270  19.528  19.597  0.00  0.00    -0.090 C 
ATOM     10  C   UNL     1      48.226  19.357  20.779  0.00  0.00    +0.094 C 
ATOM     11  C   UNL     1      48.717  20.008  19.481  0.00  0.00    +0.028 C 
ATOM     12  C   UNL     1      49.664  19.160  18.617  0.00  0.00    +0.106 C 
ATOM     13  C   UNL     1      49.310  17.689  18.818  0.00  0.00    -0.083 C 
ATOM     14  C   UNL     1      47.893  17.270  18.409  0.00  0.00    +0.013 C 
ATOM     15  C   UNL     1      47.851  17.093  16.882  0.00  0.00    +0.052 C 
ATOM     16  C   UNL     1      47.579  15.937  19.086  0.00  0.00    +0.037 C 
ATOM     17  C   UNL     1      48.455  14.818  18.547  0.00  0.00    +0.055 C 
ATOM     18  C   UNL     1      49.928  15.173  18.381  0.00  0.00    -0.066 C 
ATOM     19  C   UNL     1      50.588  14.544  17.141  0.00  0.00    -0.000 C 
ATOM     20  C   UNL     1      51.000  14.105  18.559  0.00  0.00    -0.025 C 
ATOM     21  C   UNL     1      52.433  14.464  18.929  0.00  0.00    +0.055 C 
ATOM     22  C   UNL     1      52.628  15.899  19.371  0.00  0.00    +0.000 C 
ATOM     26  C   UNL     1      51.838  16.881  18.500  0.00  0.00    +0.066 C 
ATOM     27  C   UNL     1      49.848  17.078  20.126  0.00  0.00    +0.006 C 
ATOM     28  C   UNL     1      50.354  16.601  18.750  0.00  0.00    -0.055 C 
ATOM     29  C   UNL     1      46.885  18.323  18.781  0.00  0.00    +0.021 C 
ATOM     30  C   UNL     1      45.611  18.175  18.379  0.00  0.00    -0.046 C 
ATOM     31  C   UNL     1      44.612  19.120  18.642  0.00  0.00    +0.148 C 
ATOM     32  O   UNL     1      45.742  23.749  21.177  0.00  0.00    -0.491 OA
ATOM     33  C   UNL     1      44.876  20.312  19.315  0.00  0.00    -0.101 C 
ENDROOT
BRANCH   3   4
ATOM      4  O   UNL     1      43.177  23.358  20.388  0.00  0.00    -0.464 OA
ATOM      5  H   UNL     1      43.340  24.210  19.962  0.00  0.00    +0.402 HD
ENDBRANCH   3   4
BRANCH  22  23
ATOM     23  C   UNL     1      54.116  16.248  19.290  0.00  0.00    +0.168 C 
BRANCH  23  24
ATOM     24  O   UNL     1      54.893  15.112  19.673  0.00  0.00    -0.573 OA
ATOM     25  H   UNL     1      55.543  14.839  19.011  0.00  0.00    +0.380 HD
ENDBRANCH  23  24
ENDBRANCH  22  23
TORSDOF 3
ENDMDL
MODEL 8
REMARK VINA RESULT:      -6.3      2.017      8.367
REMARK  Name = ZINC95485880
REMARK  5 active torsions:
REMARK  status: ('A' for Active; 'I' for Inactive)
REMARK    1  A    between atoms: C1_1  and  C2_2
REMARK    2  A    between atoms: C3_3  and  O3_34
REMARK    3  A    between atoms: C16_18  and  C28_33
REMARK    4  A    between atoms: C23_25  and  C27_31
REMARK    5  A    between atoms: C27_31  and  O2_32
REMARK                            x       y       z     vdW  Elec       q    Type
REMARK                         _______ _______ _______ _____ _____    ______ ____
ROOT
ATOM      1  C   UNL     1      51.798  12.608  16.953  0.00  0.00    +0.108 C 
ATOM      2  C   UNL     1      50.376  12.994  16.638  0.00  0.00    -0.070 C 
ATOM      3  C   UNL     1      49.668  12.232  15.760  0.00  0.00    +0.012 C 
ATOM      6  C   UNL     1      48.332  12.567  15.443  0.00  0.00    +0.381 C 
ATOM      7  C   UNL     1      47.725  13.682  16.054  0.00  0.00    -0.122 C 
ATOM      8  C   UNL     1      48.427  14.440  16.931  0.00  0.00    +0.056 C 
ATOM      9  C   UNL     1      47.757  15.617  17.598  0.00  0.00    -0.090 C 
ATOM     10  C   UNL     1      46.302  15.395  18.013  0.00  0.00    +0.094 C 
ATOM     11  C   UNL     1      46.633  16.330  16.844  0.00  0.00    +0.028 C 
ATOM     12  C   UNL     1      46.460  17.834  17.113  0.00  0.00    +0.106 C 
ATOM     13  C   UNL     1      46.738  18.092  18.591  0.00  0.00    -0.083 C 
ATOM     14  C   UNL     1      48.147  17.745  19.088  0.00  0.00    +0.013 C 
ATOM     15  C   UNL     1      49.106  18.879  18.688  0.00  0.00    +0.052 C 
ATOM     16  C   UNL     1      48.098  17.632  20.611  0.00  0.00    +0.037 C 
ATOM     17  C   UNL     1      47.808  18.975  21.260  0.00  0.00    +0.055 C 
ATOM     18  C   UNL     1      46.704  19.789  20.598  0.00  0.00    -0.066 C 
ATOM     19  C   UNL     1      46.966  21.306  20.581  0.00  0.00    -0.000 C 
ATOM     20  C   UNL     1      45.826  20.714  21.431  0.00  0.00    -0.025 C 
ATOM     21  C   UNL     1      44.433  21.124  20.971  0.00  0.00    +0.055 C 
ATOM     22  C   UNL     1      43.900  20.331  19.796  0.00  0.00    +0.000 C 
ATOM     26  C   UNL     1      44.974  20.095  18.729  0.00  0.00    +0.066 C 
ATOM     27  C   UNL     1      45.575  17.722  19.533  0.00  0.00    +0.006 C 
ATOM     28  C   UNL     1      46.031  19.185  19.357  0.00  0.00    -0.055 C 
ATOM     29  C   UNL     1      48.647  16.472  18.461  0.00  0.00    +0.021 C 
ATOM     30  C   UNL     1      49.915  16.090  18.686  0.00  0.00    -0.046 C 
ATOM     31  C   UNL     1      50.481  14.945  18.115  0.00  0.00    +0.148 C 
ATOM     32  O   UNL     1      47.702  11.889  14.642  0.00  0.00    -0.491 OA
ATOM     33  C   UNL     1      49.775  14.128  17.234  0.00  0.00    -0.101 C 
ENDROOT
BRANCH   3   4
ATOM      4  O   UNL     1      50.251  11.144  15.188  0.00  0.00    -0.464 OA
ATOM      5  H   UNL     1      50.484  11.266  14.258  0.00  0.00    +0.402 HD
ENDBRANCH   3   4
BRANCH  22  23
ATOM     23  C   UNL     1      42.733  21.096  19.167  0.00  0.00    +0.168 C 
BRANCH  23  24
ATOM     24  O   UNL     1      42.861  22.488  19.465  0.00  0.00    -0.573 OA
ATOM     25  H   UNL     1      42.321  23.061  18.902  0.00  0.00    +0.380 HD
ENDBRANCH  23  24
ENDBRANCH  22  23
TORSDOF 3
ENDMDL
MODEL 9
REMARK VINA RESULT:      -6.0      2.304      3.403
REMARK  Name = ZINC95485880
REMARK  5 active torsions:
REMARK  status: ('A' for Active; 'I' for Inactive)
REMARK    1  A    between atoms: C1_1  and  C2_2
REMARK    2  A    between atoms: C3_3  and  O3_34
REMARK    3  A    between atoms: C16_18  and  C28_33
REMARK    4  A    between atoms: C23_25  and  C27_31
REMARK    5  A    between atoms: C27_31  and  O2_32
REMARK                            x       y       z     vdW  Elec       q    Type
REMARK                         _______ _______ _______ _____ _____    ______ ____
ROOT
ATOM      1  C   UNL     1      49.144  21.152  21.159  0.00  0.00    +0.108 C 
ATOM      2  C   UNL     1      47.945  20.462  20.559  0.00  0.00    -0.070 C 
ATOM      3  C   UNL     1      46.746  21.106  20.567  0.00  0.00    +0.012 C 
ATOM      6  C   UNL     1      45.602  20.487  20.012  0.00  0.00    +0.381 C 
ATOM      7  C   UNL     1      45.711  19.208  19.430  0.00  0.00    -0.122 C 
ATOM      8  C   UNL     1      46.905  18.567  19.417  0.00  0.00    +0.056 C 
ATOM      9  C   UNL     1      47.012  17.208  18.769  0.00  0.00    -0.090 C 
ATOM     10  C   UNL     1      46.214  17.034  17.477  0.00  0.00    +0.094 C 
ATOM     11  C   UNL     1      45.771  16.314  18.756  0.00  0.00    +0.028 C 
ATOM     12  C   UNL     1      46.007  14.796  18.793  0.00  0.00    +0.106 C 
ATOM     13  C   UNL     1      47.243  14.482  17.954  0.00  0.00    -0.083 C 
ATOM     14  C   UNL     1      48.560  15.114  18.422  0.00  0.00    +0.013 C 
ATOM     15  C   UNL     1      49.117  14.287  19.593  0.00  0.00    +0.052 C 
ATOM     16  C   UNL     1      49.545  15.075  17.255  0.00  0.00    +0.037 C 
ATOM     17  C   UNL     1      49.936  13.650  16.903  0.00  0.00    +0.055 C 
ATOM     18  C   UNL     1      48.783  12.655  16.859  0.00  0.00    -0.066 C 
ATOM     19  C   UNL     1      49.142  11.255  17.389  0.00  0.00    -0.000 C 
ATOM     20  C   UNL     1      48.823  11.474  15.897  0.00  0.00    -0.025 C 
ATOM     21  C   UNL     1      47.550  10.783  15.427  0.00  0.00    +0.055 C 
ATOM     22  C   UNL     1      46.272  11.524  15.758  0.00  0.00    +0.000 C 
ATOM     26  C   UNL     1      46.297  12.107  17.174  0.00  0.00    +0.066 C 
ATOM     27  C   UNL     1      46.996  14.474  16.433  0.00  0.00    +0.006 C 
ATOM     28  C   UNL     1      47.381  13.187  17.191  0.00  0.00    -0.055 C 
ATOM     29  C   UNL     1      48.344  16.521  18.911  0.00  0.00    +0.021 C 
ATOM     30  C   UNL     1      49.371  17.177  19.477  0.00  0.00    -0.046 C 
ATOM     31  C   UNL     1      49.257  18.472  19.997  0.00  0.00    +0.148 C 
ATOM     32  O   UNL     1      44.521  21.060  20.034  0.00  0.00    -0.491 OA
ATOM     33  C   UNL     1      48.050  19.168  19.996  0.00  0.00    -0.101 C 
ENDROOT
BRANCH   3   4
ATOM      4  O   UNL     1      46.650  22.349  21.110  0.00  0.00    -0.464 OA
ATOM      5  H   UNL     1      46.083  22.394  21.892  0.00  0.00    +0.402 HD
ENDBRANCH   3   4
BRANCH  22  23
ATOM     23  C   UNL     1      45.091  10.558  15.638  0.00  0.00    +0.168 C 
BRANCH  23  24
ATOM     24  O   UNL     1      43.867  11.286  15.755  0.00  0.00    -0.573 OA
ATOM     25  H   UNL     1      43.323  11.020  16.510  0.00  0.00    +0.380 HD
ENDBRANCH  23  24
ENDBRANCH  22  23
TORSDOF 3
ENDMDL
