MODEL 1
REMARK VINA RESULT:      -6.9      0.000      0.000
REMARK  Name = ZINC06119190
REMARK  0 active torsions:
REMARK  status: ('A' for Active; 'I' for Inactive)
REMARK                            x       y       z     vdW  Elec       q    Type
REMARK                         _______ _______ _______ _____ _____    ______ ____
ROOT
ATOM      1  C   UNL     1      51.725  21.147  18.748  0.00  0.00    -0.035 A 
ATOM      2  C   UNL     1      52.588  20.426  18.014  0.00  0.00    +0.209 A 
ATOM      3  O   UNL     1      51.995  19.299  17.568  0.00  0.00    -0.188 OA
ATOM      4  C   UNL     1      50.729  19.234  17.986  0.00  0.00    +0.095 A 
ATOM      5  C   UNL     1      49.725  18.295  17.792  0.00  0.00    +0.015 A 
ATOM      6  C   UNL     1      48.490  18.548  18.382  0.00  0.00    +0.163 A 
ATOM      7  O   UNL     1      47.494  17.638  18.180  0.00  0.00    -0.303 OA
ATOM      8  C   UNL     1      46.168  18.175  18.159  0.00  0.00    +0.263 C 
ATOM      9  C   UNL     1      45.884  18.838  19.506  0.00  0.00    +0.017 C 
ATOM     10  C   UNL     1      46.917  19.942  19.791  0.00  0.00    +0.245 C 
ATOM     11  O   UNL     1      46.310  21.121  19.230  0.00  0.00    -0.285 OA
ATOM     12  C   UNL     1      44.966  20.973  19.248  0.00  0.00    +0.124 A 
ATOM     13  C   UNL     1      44.002  21.983  19.131  0.00  0.00    +0.041 A 
ATOM     14  C   UNL     1      42.680  21.545  19.178  0.00  0.00    +0.072 A 
ATOM     15  O   UNL     1      41.543  22.276  19.090  0.00  0.00    -0.303 OA
ATOM     16  C   UNL     1      40.495  21.331  18.794  0.00  0.00    +0.435 C 
ATOM     17  O   UNL     1      40.983  20.088  19.340  0.00  0.00    -0.305 OA
ATOM     18  C   UNL     1      42.333  20.196  19.333  0.00  0.00    -0.003 A 
ATOM     19  C   UNL     1      43.292  19.189  19.452  0.00  0.00    +0.123 A 
ATOM     20  C   UNL     1      44.605  19.632  19.406  0.00  0.00    -0.177 A 
ATOM     21  C   UNL     1      48.245  19.684  19.143  0.00  0.00    -0.178 A 
ATOM     22  C   UNL     1      49.235  20.628  19.341  0.00  0.00    +0.140 A 
ATOM     23  C   UNL     1      50.477  20.394  18.756  0.00  0.00    -0.165 A 
ENDROOT
TORSDOF 0
ENDMDL
MODEL 2
REMARK VINA RESULT:      -6.5      1.624      1.942
REMARK  Name = ZINC06119190
REMARK  0 active torsions:
REMARK  status: ('A' for Active; 'I' for Inactive)
REMARK                            x       y       z     vdW  Elec       q    Type
REMARK                         _______ _______ _______ _____ _____    ______ ____
ROOT
ATOM      1  C   UNL     1      51.444  21.151  17.034  0.00  0.00    -0.035 A 
ATOM      2  C   UNL     1      52.482  20.333  16.794  0.00  0.00    +0.209 A 
ATOM      3  O   UNL     1      52.369  19.208  17.531  0.00  0.00    -0.188 OA
ATOM      4  C   UNL     1      51.263  19.240  18.277  0.00  0.00    +0.095 A 
ATOM      5  C   UNL     1      50.714  18.338  19.179  0.00  0.00    +0.015 A 
ATOM      6  C   UNL     1      49.516  18.697  19.793  0.00  0.00    +0.163 A 
ATOM      7  O   UNL     1      48.963  17.807  20.666  0.00  0.00    -0.303 OA
ATOM      8  C   UNL     1      47.534  17.828  20.738  0.00  0.00    +0.263 C 
ATOM      9  C   UNL     1      47.084  19.217  21.189  0.00  0.00    +0.017 C 
ATOM     10  C   UNL     1      47.598  20.291  20.215  0.00  0.00    +0.245 C 
ATOM     11  O   UNL     1      46.537  20.404  19.249  0.00  0.00    -0.285 OA
ATOM     12  C   UNL     1      45.370  20.057  19.838  0.00  0.00    +0.124 A 
ATOM     13  C   UNL     1      44.075  20.349  19.388  0.00  0.00    +0.041 A 
ATOM     14  C   UNL     1      43.047  19.861  20.192  0.00  0.00    +0.072 A 
ATOM     15  O   UNL     1      41.709  19.980  20.019  0.00  0.00    -0.303 OA
ATOM     16  C   UNL     1      41.117  18.985  20.878  0.00  0.00    +0.435 C 
ATOM     17  O   UNL     1      42.094  18.799  21.922  0.00  0.00    -0.305 OA
ATOM     18  C   UNL     1      43.283  19.134  21.367  0.00  0.00    -0.003 A 
ATOM     19  C   UNL     1      44.572  18.844  21.818  0.00  0.00    +0.123 A 
ATOM     20  C   UNL     1      45.589  19.333  21.013  0.00  0.00    -0.177 A 
ATOM     21  C   UNL     1      48.878  19.904  19.537  0.00  0.00    -0.178 A 
ATOM     22  C   UNL     1      49.413  20.809  18.639  0.00  0.00    +0.140 A 
ATOM     23  C   UNL     1      50.609  20.467  18.012  0.00  0.00    -0.165 A 
ENDROOT
TORSDOF 0
ENDMDL
MODEL 3
REMARK VINA RESULT:      -6.4      2.355      3.507
REMARK  Name = ZINC06119190
REMARK  0 active torsions:
REMARK  status: ('A' for Active; 'I' for Inactive)
REMARK                            x       y       z     vdW  Elec       q    Type
REMARK                         _______ _______ _______ _____ _____    ______ ____
ROOT
ATOM      1  C   UNL     1      50.373  19.255  20.652  0.00  0.00    -0.035 A 
ATOM      2  C   UNL     1      51.089  19.500  21.761  0.00  0.00    +0.209 A 
ATOM      3  O   UNL     1      50.488  20.453  22.505  0.00  0.00    -0.188 OA
ATOM      4  C   UNL     1      49.361  20.868  21.919  0.00  0.00    +0.095 A 
ATOM      5  C   UNL     1      48.408  21.809  22.284  0.00  0.00    +0.015 A 
ATOM      6  C   UNL     1      47.330  21.994  21.421  0.00  0.00    +0.163 A 
ATOM      7  O   UNL     1      46.380  22.903  21.783  0.00  0.00    -0.303 OA
ATOM      8  C   UNL     1      45.052  22.613  21.337  0.00  0.00    +0.263 C 
ATOM      9  C   UNL     1      45.046  22.561  19.810  0.00  0.00    +0.017 C 
ATOM     10  C   UNL     1      46.038  21.499  19.303  0.00  0.00    +0.245 C 
ATOM     11  O   UNL     1      45.237  20.307  19.217  0.00  0.00    -0.285 OA
ATOM     12  C   UNL     1      43.948  20.658  19.008  0.00  0.00    +0.124 A 
ATOM     13  C   UNL     1      42.915  19.843  18.526  0.00  0.00    +0.041 A 
ATOM     14  C   UNL     1      41.674  20.467  18.413  0.00  0.00    +0.072 A 
ATOM     15  O   UNL     1      40.500  19.944  17.984  0.00  0.00    -0.303 OA
ATOM     16  C   UNL     1      39.481  20.859  18.434  0.00  0.00    +0.435 C 
ATOM     17  O   UNL     1      40.167  22.123  18.538  0.00  0.00    -0.305 OA
ATOM     18  C   UNL     1      41.468  21.811  18.753  0.00  0.00    -0.003 A 
ATOM     19  C   UNL     1      42.495  22.625  19.231  0.00  0.00    +0.123 A 
ATOM     20  C   UNL     1      43.727  21.998  19.340  0.00  0.00    -0.177 A 
ATOM     21  C   UNL     1      47.192  21.283  20.236  0.00  0.00    -0.178 A 
ATOM     22  C   UNL     1      48.133  20.341  19.864  0.00  0.00    +0.140 A 
ATOM     23  C   UNL     1      49.217  20.140  20.714  0.00  0.00    -0.165 A 
ENDROOT
TORSDOF 0
ENDMDL
MODEL 4
REMARK VINA RESULT:      -6.3      1.573      7.627
REMARK  Name = ZINC06119190
REMARK  0 active torsions:
REMARK  status: ('A' for Active; 'I' for Inactive)
REMARK                            x       y       z     vdW  Elec       q    Type
REMARK                         _______ _______ _______ _____ _____    ______ ____
ROOT
ATOM      1  C   UNL     1      40.664  20.130  18.244  0.00  0.00    -0.035 A 
ATOM      2  C   UNL     1      40.082  21.339  18.310  0.00  0.00    +0.209 A 
ATOM      3  O   UNL     1      40.963  22.257  18.760  0.00  0.00    -0.188 OA
ATOM      4  C   UNL     1      42.149  21.694  19.005  0.00  0.00    +0.095 A 
ATOM      5  C   UNL     1      43.353  22.209  19.467  0.00  0.00    +0.015 A 
ATOM      6  C   UNL     1      44.416  21.320  19.607  0.00  0.00    +0.163 A 
ATOM      7  O   UNL     1      45.606  21.822  20.043  0.00  0.00    -0.303 OA
ATOM      8  C   UNL     1      46.771  21.155  19.549  0.00  0.00    +0.263 C 
ATOM      9  C   UNL     1      46.727  19.693  19.993  0.00  0.00    +0.017 C 
ATOM     10  C   UNL     1      45.447  19.013  19.479  0.00  0.00    +0.245 C 
ATOM     11  O   UNL     1      45.842  18.477  18.203  0.00  0.00    -0.285 OA
ATOM     12  C   UNL     1      47.171  18.231  18.223  0.00  0.00    +0.124 A 
ATOM     13  C   UNL     1      47.894  17.407  17.349  0.00  0.00    +0.041 A 
ATOM     14  C   UNL     1      49.263  17.340  17.599  0.00  0.00    +0.072 A 
ATOM     15  O   UNL     1      50.210  16.637  16.932  0.00  0.00    -0.303 OA
ATOM     16  C   UNL     1      51.471  17.216  17.325  0.00  0.00    +0.435 C 
ATOM     17  O   UNL     1      51.207  17.776  18.627  0.00  0.00    -0.305 OA
ATOM     18  C   UNL     1      49.879  18.041  18.644  0.00  0.00    -0.003 A 
ATOM     19  C   UNL     1      49.161  18.861  19.516  0.00  0.00    +0.123 A 
ATOM     20  C   UNL     1      47.800  18.922  19.263  0.00  0.00    -0.177 A 
ATOM     21  C   UNL     1      44.303  19.968  19.309  0.00  0.00    -0.178 A 
ATOM     22  C   UNL     1      43.110  19.444  18.845  0.00  0.00    +0.140 A 
ATOM     23  C   UNL     1      42.036  20.318  18.695  0.00  0.00    -0.165 A 
ENDROOT
TORSDOF 0
ENDMDL
MODEL 5
REMARK VINA RESULT:      -6.2      1.536      7.448
REMARK  Name = ZINC06119190
REMARK  0 active torsions:
REMARK  status: ('A' for Active; 'I' for Inactive)
REMARK                            x       y       z     vdW  Elec       q    Type
REMARK                         _______ _______ _______ _____ _____    ______ ____
ROOT
ATOM      1  C   UNL     1      41.413  20.832  18.636  0.00  0.00    -0.035 A 
ATOM      2  C   UNL     1      40.425  20.520  19.491  0.00  0.00    +0.209 A 
ATOM      3  O   UNL     1      40.867  19.641  20.415  0.00  0.00    -0.188 OA
ATOM      4  C   UNL     1      42.152  19.343  20.207  0.00  0.00    +0.095 A 
ATOM      5  C   UNL     1      43.040  18.510  20.874  0.00  0.00    +0.015 A 
ATOM      6  C   UNL     1      44.340  18.435  20.378  0.00  0.00    +0.163 A 
ATOM      7  O   UNL     1      45.223  17.633  21.040  0.00  0.00    -0.303 OA
ATOM      8  C   UNL     1      46.588  18.059  20.999  0.00  0.00    +0.263 C 
ATOM      9  C   UNL     1      47.047  18.101  19.542  0.00  0.00    +0.017 C 
ATOM     10  C   UNL     1      46.153  19.049  18.724  0.00  0.00    +0.245 C 
ATOM     11  O   UNL     1      46.820  20.319  18.835  0.00  0.00    -0.285 OA
ATOM     12  C   UNL     1      48.141  20.104  19.032  0.00  0.00    +0.124 A 
ATOM     13  C   UNL     1      49.185  21.021  18.849  0.00  0.00    +0.041 A 
ATOM     14  C   UNL     1      50.458  20.530  19.133  0.00  0.00    +0.072 A 
ATOM     15  O   UNL     1      51.649  21.171  19.053  0.00  0.00    -0.303 OA
ATOM     16  C   UNL     1      52.572  20.372  19.820  0.00  0.00    +0.435 C 
ATOM     17  O   UNL     1      52.014  19.043  19.762  0.00  0.00    -0.305 OA
ATOM     18  C   UNL     1      50.685  19.217  19.569  0.00  0.00    -0.003 A 
ATOM     19  C   UNL     1      49.647  18.302  19.751  0.00  0.00    +0.123 A 
ATOM     20  C   UNL     1      48.384  18.797  19.465  0.00  0.00    -0.177 A 
ATOM     21  C   UNL     1      44.756  19.149  19.262  0.00  0.00    -0.178 A 
ATOM     22  C   UNL     1      43.882  19.983  18.591  0.00  0.00    +0.140 A 
ATOM     23  C   UNL     1      42.578  20.075  19.073  0.00  0.00    -0.165 A 
ENDROOT
TORSDOF 0
ENDMDL
MODEL 6
REMARK VINA RESULT:      -6.0      1.659      7.708
REMARK  Name = ZINC06119190
REMARK  0 active torsions:
REMARK  status: ('A' for Active; 'I' for Inactive)
REMARK                            x       y       z     vdW  Elec       q    Type
REMARK                         _______ _______ _______ _____ _____    ______ ____
ROOT
ATOM      1  C   UNL     1      42.083  18.162  21.789  0.00  0.00    -0.035 A 
ATOM      2  C   UNL     1      40.935  18.510  21.186  0.00  0.00    +0.209 A 
ATOM      3  O   UNL     1      41.168  19.446  20.243  0.00  0.00    -0.188 OA
ATOM      4  C   UNL     1      42.467  19.748  20.187  0.00  0.00    +0.095 A 
ATOM      5  C   UNL     1      43.191  20.629  19.395  0.00  0.00    +0.015 A 
ATOM      6  C   UNL     1      44.567  20.692  19.604  0.00  0.00    +0.163 A 
ATOM      7  O   UNL     1      45.287  21.542  18.816  0.00  0.00    -0.303 OA
ATOM      8  C   UNL     1      46.629  21.132  18.538  0.00  0.00    +0.263 C 
ATOM      9  C   UNL     1      47.390  21.011  19.858  0.00  0.00    +0.017 C 
ATOM     10  C   UNL     1      46.693  20.007  20.792  0.00  0.00    +0.245 C 
ATOM     11  O   UNL     1      47.321  18.754  20.465  0.00  0.00    -0.285 OA
ATOM     12  C   UNL     1      48.569  18.997  20.002  0.00  0.00    +0.124 A 
ATOM     13  C   UNL     1      49.628  18.084  19.903  0.00  0.00    +0.041 A 
ATOM     14  C   UNL     1      50.810  18.607  19.381  0.00  0.00    +0.072 A 
ATOM     15  O   UNL     1      51.990  17.977  19.166  0.00  0.00    -0.303 OA
ATOM     16  C   UNL     1      52.726  18.831  18.267  0.00  0.00    +0.435 C 
ATOM     17  O   UNL     1      52.194  20.147  18.521  0.00  0.00    -0.305 OA
ATOM     18  C   UNL     1      50.937  19.945  18.985  0.00  0.00    -0.003 A 
ATOM     19  C   UNL     1      49.885  20.856  19.084  0.00  0.00    +0.123 A 
ATOM     20  C   UNL     1      48.713  20.329  19.605  0.00  0.00    -0.177 A 
ATOM     21  C   UNL     1      45.213  19.921  20.561  0.00  0.00    -0.178 A 
ATOM     22  C   UNL     1      44.504  19.038  21.353  0.00  0.00    +0.140 A 
ATOM     23  C   UNL     1      43.128  18.958  21.158  0.00  0.00    -0.165 A 
ENDROOT
TORSDOF 0
ENDMDL
MODEL 7
REMARK VINA RESULT:      -6.0      4.218      8.327
REMARK  Name = ZINC06119190
REMARK  0 active torsions:
REMARK  status: ('A' for Active; 'I' for Inactive)
REMARK                            x       y       z     vdW  Elec       q    Type
REMARK                         _______ _______ _______ _____ _____    ______ ____
ROOT
ATOM      1  C   UNL     1      42.852  17.731  22.088  0.00  0.00    -0.035 A 
ATOM      2  C   UNL     1      42.272  18.924  21.875  0.00  0.00    +0.209 A 
ATOM      3  O   UNL     1      42.798  19.510  20.780  0.00  0.00    -0.188 OA
ATOM      4  C   UNL     1      43.738  18.734  20.233  0.00  0.00    +0.095 A 
ATOM      5  C   UNL     1      44.549  18.890  19.117  0.00  0.00    +0.015 A 
ATOM      6  C   UNL     1      45.437  17.858  18.825  0.00  0.00    +0.163 A 
ATOM      7  O   UNL     1      46.223  17.996  17.719  0.00  0.00    -0.303 OA
ATOM      8  C   UNL     1      46.572  16.776  17.059  0.00  0.00    +0.263 C 
ATOM      9  C   UNL     1      47.347  15.891  18.035  0.00  0.00    +0.017 C 
ATOM     10  C   UNL     1      46.504  15.612  19.292  0.00  0.00    +0.245 C 
ATOM     11  O   UNL     1      45.798  14.403  18.960  0.00  0.00    -0.285 OA
ATOM     12  C   UNL     1      46.527  13.701  18.063  0.00  0.00    +0.124 A 
ATOM     13  C   UNL     1      46.396  12.343  17.741  0.00  0.00    +0.041 A 
ATOM     14  C   UNL     1      47.281  11.879  16.771  0.00  0.00    +0.072 A 
ATOM     15  O   UNL     1      47.394  10.630  16.257  0.00  0.00    -0.303 OA
ATOM     16  C   UNL     1      48.155  10.778  15.042  0.00  0.00    +0.435 C 
ATOM     17  O   UNL     1      48.940  11.968  15.264  0.00  0.00    -0.305 OA
ATOM     18  C   UNL     1      48.236  12.702  16.159  0.00  0.00    -0.003 A 
ATOM     19  C   UNL     1      48.370  14.054  16.479  0.00  0.00    +0.123 A 
ATOM     20  C   UNL     1      47.487  14.509  17.446  0.00  0.00    -0.177 A 
ATOM     21  C   UNL     1      45.532  16.711  19.603  0.00  0.00    -0.178 A 
ATOM     22  C   UNL     1      44.728  16.544  20.715  0.00  0.00    +0.140 A 
ATOM     23  C   UNL     1      43.831  17.563  21.023  0.00  0.00    -0.165 A 
ENDROOT
TORSDOF 0
ENDMDL
MODEL 8
REMARK VINA RESULT:      -6.0      3.962      6.510
REMARK  Name = ZINC06119190
REMARK  0 active torsions:
REMARK  status: ('A' for Active; 'I' for Inactive)
REMARK                            x       y       z     vdW  Elec       q    Type
REMARK                         _______ _______ _______ _____ _____    ______ ____
ROOT
ATOM      1  C   UNL     1      44.861  23.372  19.390  0.00  0.00    -0.035 A 
ATOM      2  C   UNL     1      45.164  24.113  20.468  0.00  0.00    +0.209 A 
ATOM      3  O   UNL     1      45.465  23.316  21.514  0.00  0.00    -0.188 OA
ATOM      4  C   UNL     1      45.374  22.029  21.169  0.00  0.00    +0.095 A 
ATOM      5  C   UNL     1      45.585  20.852  21.876  0.00  0.00    +0.015 A 
ATOM      6  C   UNL     1      45.399  19.654  21.191  0.00  0.00    +0.163 A 
ATOM      7  O   UNL     1      45.623  18.495  21.874  0.00  0.00    -0.303 OA
ATOM      8  C   UNL     1      46.101  17.401  21.085  0.00  0.00    +0.263 C 
ATOM      9  C   UNL     1      45.063  17.079  20.010  0.00  0.00    +0.017 C 
ATOM     10  C   UNL     1      44.798  18.314  19.131  0.00  0.00    +0.245 C 
ATOM     11  O   UNL     1      45.755  18.177  18.064  0.00  0.00    -0.285 OA
ATOM     12  C   UNL     1      46.038  16.865  17.895  0.00  0.00    +0.124 A 
ATOM     13  C   UNL     1      46.628  16.263  16.775  0.00  0.00    +0.041 A 
ATOM     14  C   UNL     1      46.811  14.885  16.874  0.00  0.00    +0.072 A 
ATOM     15  O   UNL     1      47.350  14.037  15.965  0.00  0.00    -0.303 OA
ATOM     16  C   UNL     1      47.666  12.836  16.697  0.00  0.00    +0.435 C 
ATOM     17  O   UNL     1      46.739  12.845  17.802  0.00  0.00    -0.305 OA
ATOM     18  C   UNL     1      46.433  14.149  18.005  0.00  0.00    -0.003 A 
ATOM     19  C   UNL     1      45.844  14.746  19.120  0.00  0.00    +0.123 A 
ATOM     20  C   UNL     1      45.664  16.117  19.015  0.00  0.00    -0.177 A 
ATOM     21  C   UNL     1      45.014  19.608  19.857  0.00  0.00    -0.178 A 
ATOM     22  C   UNL     1      44.804  20.773  19.143  0.00  0.00    +0.140 A 
ATOM     23  C   UNL     1      44.987  21.982  19.809  0.00  0.00    -0.165 A 
ENDROOT
TORSDOF 0
ENDMDL
MODEL 9
REMARK VINA RESULT:      -5.7      1.926      2.378
REMARK  Name = ZINC06119190
REMARK  0 active torsions:
REMARK  status: ('A' for Active; 'I' for Inactive)
REMARK                            x       y       z     vdW  Elec       q    Type
REMARK                         _______ _______ _______ _____ _____    ______ ____
ROOT
ATOM      1  C   UNL     1      51.288  17.856  17.093  0.00  0.00    -0.035 A 
ATOM      2  C   UNL     1      51.829  16.722  16.617  0.00  0.00    +0.209 A 
ATOM      3  O   UNL     1      51.034  15.670  16.901  0.00  0.00    -0.188 OA
ATOM      4  C   UNL     1      49.947  16.065  17.569  0.00  0.00    +0.095 A 
ATOM      5  C   UNL     1      48.853  15.374  18.070  0.00  0.00    +0.015 A 
ATOM      6  C   UNL     1      47.874  16.117  18.727  0.00  0.00    +0.163 A 
ATOM      7  O   UNL     1      46.787  15.446  19.206  0.00  0.00    -0.303 OA
ATOM      8  C   UNL     1      45.567  16.192  19.227  0.00  0.00    +0.263 C 
ATOM      9  C   UNL     1      45.754  17.416  20.125  0.00  0.00    +0.017 C 
ATOM     10  C   UNL     1      46.917  18.284  19.616  0.00  0.00    +0.245 C 
ATOM     11  O   UNL     1      46.279  19.205  18.713  0.00  0.00    -0.285 OA
ATOM     12  C   UNL     1      44.993  19.373  19.097  0.00  0.00    +0.124 A 
ATOM     13  C   UNL     1      44.129  20.415  18.731  0.00  0.00    +0.041 A 
ATOM     14  C   UNL     1      42.847  20.336  19.271  0.00  0.00    +0.072 A 
ATOM     15  O   UNL     1      41.804  21.183  19.102  0.00  0.00    -0.303 OA
ATOM     16  C   UNL     1      40.637  20.453  19.529  0.00  0.00    +0.435 C 
ATOM     17  O   UNL     1      41.152  19.494  20.475  0.00  0.00    -0.305 OA
ATOM     18  C   UNL     1      42.445  19.295  20.119  0.00  0.00    -0.003 A 
ATOM     19  C   UNL     1      43.303  18.257  20.486  0.00  0.00    +0.123 A 
ATOM     20  C   UNL     1      44.577  18.344  19.946  0.00  0.00    -0.177 A 
ATOM     21  C   UNL     1      47.967  17.493  18.892  0.00  0.00    -0.178 A 
ATOM     22  C   UNL     1      49.050  18.192  18.394  0.00  0.00    +0.140 A 
ATOM     23  C   UNL     1      50.038  17.468  17.732  0.00  0.00    -0.165 A 
ENDROOT
TORSDOF 0
ENDMDL
