MODEL 1
REMARK VINA RESULT:      -7.0      0.000      0.000
REMARK  Name = ZINC38628344
REMARK  9 active torsions:
REMARK  status: ('A' for Active; 'I' for Inactive)
REMARK    1  A    between atoms: C1_1  and  C2_2
REMARK    2  A    between atoms: C2_2  and  C25_32
REMARK    3  A    between atoms: C3_3  and  C4_4
REMARK    4  A    between atoms: C4_4  and  C5_5
REMARK    5  A    between atoms: C8_8  and  O4_25
REMARK    6  A    between atoms: C11_12  and  C14_19
REMARK    7  A    between atoms: C12_14  and  O3_18
REMARK    8  A    between atoms: C22_28  and  C23_30
REMARK    9  A    between atoms: C22_28  and  C24_31
REMARK                            x       y       z     vdW  Elec       q    Type
REMARK                         _______ _______ _______ _____ _____    ______ ____
ROOT
ATOM      6  C   UNL     1      44.678  20.804  19.816  0.00  0.00    -0.149 A 
ATOM      7  C   UNL     1      43.387  20.358  20.042  0.00  0.00    +0.225 A 
ATOM      8  C   UNL     1      43.163  19.109  20.646  0.00  0.00    -0.202 A 
ATOM      9  C   UNL     1      41.768  18.672  20.865  0.00  0.00    +0.057 C 
ATOM     10  C   UNL     1      40.802  19.303  20.198  0.00  0.00    -0.055 C 
ATOM     11  C   UNL     1      41.149  20.417  19.246  0.00  0.00    +0.149 C 
ATOM     12  C   UNL     1      39.977  21.397  19.168  0.00  0.00    +0.086 C 
ATOM     13  C   UNL     1      41.410  19.830  17.858  0.00  0.00    +0.037 C 
ATOM     14  C   UNL     1      44.239  18.311  21.024  0.00  0.00    +0.246 A 
ATOM     17  C   UNL     1      45.545  18.771  20.794  0.00  0.00    -0.306 A 
ATOM     18  C   UNL     1      46.701  17.960  21.189  0.00  0.00    +0.372 C 
ATOM     19  O   UNL     1      46.583  16.991  21.910  0.00  0.00    -0.418 OA
ATOM     20  C   UNL     1      48.051  18.389  20.638  0.00  0.00    +0.148 C 
ATOM     23  C   UNL     1      48.094  19.922  20.702  0.00  0.00    +0.248 C 
ATOM     30  O   UNL     1      47.018  20.458  19.932  0.00  0.00    -0.282 OA
ATOM     31  O   UNL     1      42.315  21.112  19.690  0.00  0.00    -0.290 OA
ATOM     32  C   UNL     1      45.761  20.020  20.177  0.00  0.00    +0.227 A 
ENDROOT
BRANCH  23  24
ATOM     24  C   UNL     1      49.406  20.412  20.142  0.00  0.00    -0.086 A 
ATOM     25  C   UNL     1      49.580  20.511  18.775  0.00  0.00    +0.033 A 
ATOM     26  C   UNL     1      50.783  20.961  18.263  0.00  0.00    +0.002 A 
ATOM     27  C   UNL     1      51.810  21.312  19.118  0.00  0.00    +0.015 A 
ATOM     28  C   UNL     1      51.635  21.214  20.485  0.00  0.00    +0.006 A 
ATOM     29  C   UNL     1      50.431  20.769  20.998  0.00  0.00    +0.041 A 
ENDBRANCH  23  24
BRANCH  14  15
ATOM     15  O   UNL     1      44.028  17.105  21.607  0.00  0.00    -0.471 OA
ATOM     16  H   UNL     1      43.699  17.159  22.514  0.00  0.00    +0.400 HD
ENDBRANCH  14  15
BRANCH  20  21
ATOM     21  O   UNL     1      49.099  17.838  21.438  0.00  0.00    -0.532 OA
ATOM     22  H   UNL     1      49.984  17.969  21.071  0.00  0.00    +0.394 HD
ENDBRANCH  20  21
BRANCH   6   5
ATOM      5  C   UNL     1      44.906  22.144  19.166  0.00  0.00    +0.136 C 
BRANCH   5   4
ATOM      1  C   UNL     1      44.488  24.908  18.790  0.00  0.00    +0.074 C 
ATOM      2  C   UNL     1      45.247  24.415  19.994  0.00  0.00    -0.127 C 
ATOM      3  C   UNL     1      45.843  25.402  20.965  0.00  0.00    +0.070 C 
ATOM      4  C   UNL     1      45.390  23.128  20.199  0.00  0.00    -0.050 C 
ENDBRANCH   5   4
ENDBRANCH   6   5
TORSDOF 5
ENDMDL
MODEL 2
REMARK VINA RESULT:      -6.9      2.840      6.871
REMARK  Name = ZINC38628344
REMARK  9 active torsions:
REMARK  status: ('A' for Active; 'I' for Inactive)
REMARK    1  A    between atoms: C1_1  and  C2_2
REMARK    2  A    between atoms: C2_2  and  C25_32
REMARK    3  A    between atoms: C3_3  and  C4_4
REMARK    4  A    between atoms: C4_4  and  C5_5
REMARK    5  A    between atoms: C8_8  and  O4_25
REMARK    6  A    between atoms: C11_12  and  C14_19
REMARK    7  A    between atoms: C12_14  and  O3_18
REMARK    8  A    between atoms: C22_28  and  C23_30
REMARK    9  A    between atoms: C22_28  and  C24_31
REMARK                            x       y       z     vdW  Elec       q    Type
REMARK                         _______ _______ _______ _____ _____    ______ ____
ROOT
ATOM      6  C   UNL     1      46.073  16.861  19.049  0.00  0.00    -0.149 A 
ATOM      7  C   UNL     1      46.577  15.608  19.355  0.00  0.00    +0.225 A 
ATOM      8  C   UNL     1      46.066  14.885  20.446  0.00  0.00    -0.202 A 
ATOM      9  C   UNL     1      46.637  13.553  20.738  0.00  0.00    +0.057 C 
ATOM     10  C   UNL     1      47.807  13.239  20.184  0.00  0.00    -0.055 C 
ATOM     11  C   UNL     1      48.513  14.233  19.301  0.00  0.00    +0.149 C 
ATOM     12  C   UNL     1      49.368  13.481  18.278  0.00  0.00    +0.086 C 
ATOM     13  C   UNL     1      49.418  15.118  20.161  0.00  0.00    +0.037 C 
ATOM     14  C   UNL     1      45.046  15.422  21.227  0.00  0.00    +0.246 A 
ATOM     17  C   UNL     1      44.539  16.692  20.908  0.00  0.00    -0.306 A 
ATOM     18  C   UNL     1      43.457  17.282  21.704  0.00  0.00    +0.372 C 
ATOM     19  O   UNL     1      42.824  16.627  22.505  0.00  0.00    -0.418 OA
ATOM     20  C   UNL     1      43.181  18.760  21.481  0.00  0.00    +0.148 C 
ATOM     23  C   UNL     1      43.289  19.013  19.970  0.00  0.00    +0.248 C 
ATOM     30  O   UNL     1      44.594  18.650  19.522  0.00  0.00    -0.282 OA
ATOM     31  O   UNL     1      47.568  15.054  18.613  0.00  0.00    -0.290 OA
ATOM     32  C   UNL     1      45.064  17.416  19.820  0.00  0.00    +0.227 A 
ENDROOT
BRANCH  23  24
ATOM     24  C   UNL     1      43.048  20.474  19.686  0.00  0.00    -0.086 A 
ATOM     25  C   UNL     1      41.889  20.872  19.047  0.00  0.00    +0.033 A 
ATOM     26  C   UNL     1      41.669  22.212  18.787  0.00  0.00    +0.002 A 
ATOM     27  C   UNL     1      42.606  23.154  19.167  0.00  0.00    +0.015 A 
ATOM     28  C   UNL     1      43.764  22.756  19.808  0.00  0.00    +0.006 A 
ATOM     29  C   UNL     1      43.983  21.416  20.072  0.00  0.00    +0.041 A 
ENDBRANCH  23  24
BRANCH  14  15
ATOM     15  O   UNL     1      44.550  14.729  22.281  0.00  0.00    -0.471 OA
ATOM     16  H   UNL     1      44.977  13.874  22.424  0.00  0.00    +0.400 HD
ENDBRANCH  14  15
BRANCH  20  21
ATOM     21  O   UNL     1      41.865  19.081  21.936  0.00  0.00    -0.532 OA
ATOM     22  H   UNL     1      41.481  18.419  22.526  0.00  0.00    +0.394 HD
ENDBRANCH  20  21
BRANCH   6   5
ATOM      5  C   UNL     1      46.630  17.628  17.878  0.00  0.00    +0.136 C 
BRANCH   5   4
ATOM      1  C   UNL     1      49.304  17.262  17.060  0.00  0.00    +0.074 C 
ATOM      2  C   UNL     1      48.953  18.364  18.025  0.00  0.00    -0.127 C 
ATOM      3  C   UNL     1      50.040  19.231  18.607  0.00  0.00    +0.070 C 
ATOM      4  C   UNL     1      47.703  18.571  18.358  0.00  0.00    -0.050 C 
ENDBRANCH   5   4
ENDBRANCH   6   5
TORSDOF 5
ENDMDL
MODEL 3
REMARK VINA RESULT:      -6.8      5.431      7.642
REMARK  Name = ZINC38628344
REMARK  9 active torsions:
REMARK  status: ('A' for Active; 'I' for Inactive)
REMARK    1  A    between atoms: C1_1  and  C2_2
REMARK    2  A    between atoms: C2_2  and  C25_32
REMARK    3  A    between atoms: C3_3  and  C4_4
REMARK    4  A    between atoms: C4_4  and  C5_5
REMARK    5  A    between atoms: C8_8  and  O4_25
REMARK    6  A    between atoms: C11_12  and  C14_19
REMARK    7  A    between atoms: C12_14  and  O3_18
REMARK    8  A    between atoms: C22_28  and  C23_30
REMARK    9  A    between atoms: C22_28  and  C24_31
REMARK                            x       y       z     vdW  Elec       q    Type
REMARK                         _______ _______ _______ _____ _____    ______ ____
ROOT
ATOM      6  C   UNL     1      48.271  14.731  17.075  0.00  0.00    -0.149 A 
ATOM      7  C   UNL     1      48.026  13.371  17.172  0.00  0.00    +0.225 A 
ATOM      8  C   UNL     1      49.042  12.496  17.593  0.00  0.00    -0.202 A 
ATOM      9  C   UNL     1      48.736  11.052  17.678  0.00  0.00    +0.057 C 
ATOM     10  C   UNL     1      47.650  10.604  17.051  0.00  0.00    -0.055 C 
ATOM     11  C   UNL     1      46.783  11.558  16.274  0.00  0.00    +0.149 C 
ATOM     12  C   UNL     1      45.344  11.037  16.263  0.00  0.00    +0.086 C 
ATOM     13  C   UNL     1      47.297  11.649  14.835  0.00  0.00    +0.037 C 
ATOM     14  C   UNL     1      50.302  12.989  17.920  0.00  0.00    +0.246 A 
ATOM     17  C   UNL     1      50.541  14.369  17.821  0.00  0.00    -0.306 A 
ATOM     18  C   UNL     1      51.855  14.924  18.167  0.00  0.00    +0.372 C 
ATOM     19  O   UNL     1      52.692  14.264  18.747  0.00  0.00    -0.418 OA
ATOM     20  C   UNL     1      52.115  16.362  17.749  0.00  0.00    +0.148 C 
ATOM     23  C   UNL     1      50.822  17.146  18.017  0.00  0.00    +0.248 C 
ATOM     30  O   UNL     1      49.754  16.568  17.269  0.00  0.00    -0.282 OA
ATOM     31  O   UNL     1      46.809  12.857  16.866  0.00  0.00    -0.290 OA
ATOM     32  C   UNL     1      49.522  15.240  17.387  0.00  0.00    +0.227 A 
ENDROOT
BRANCH  23  24
ATOM     24  C   UNL     1      51.010  18.583  17.597  0.00  0.00    -0.086 A 
ATOM     25  C   UNL     1      51.569  18.876  16.368  0.00  0.00    +0.033 A 
ATOM     26  C   UNL     1      51.741  20.193  15.984  0.00  0.00    +0.002 A 
ATOM     27  C   UNL     1      51.353  21.216  16.828  0.00  0.00    +0.015 A 
ATOM     28  C   UNL     1      50.794  20.922  18.058  0.00  0.00    +0.006 A 
ATOM     29  C   UNL     1      50.618  19.605  18.440  0.00  0.00    +0.041 A 
ENDBRANCH  23  24
BRANCH  14  15
ATOM     15  O   UNL     1      51.285  12.149  18.326  0.00  0.00    -0.471 OA
ATOM     16  H   UNL     1      50.963  11.304  18.668  0.00  0.00    +0.400 HD
ENDBRANCH  14  15
BRANCH  20  21
ATOM     21  O   UNL     1      53.185  16.906  18.525  0.00  0.00    -0.532 OA
ATOM     22  H   UNL     1      52.944  17.697  19.025  0.00  0.00    +0.394 HD
ENDBRANCH  20  21
BRANCH   6   5
ATOM      5  C   UNL     1      47.175  15.660  16.620  0.00  0.00    +0.136 C 
BRANCH   5   4
ATOM      1  C   UNL     1      46.741  18.259  17.625  0.00  0.00    +0.074 C 
ATOM      2  C   UNL     1      46.046  17.080  18.254  0.00  0.00    -0.127 C 
ATOM      3  C   UNL     1      45.169  17.279  19.464  0.00  0.00    +0.070 C 
ATOM      4  C   UNL     1      46.202  15.880  17.749  0.00  0.00    -0.050 C 
ENDBRANCH   5   4
ENDBRANCH   6   5
TORSDOF 5
ENDMDL
MODEL 4
REMARK VINA RESULT:      -6.6      2.078      4.390
REMARK  Name = ZINC38628344
REMARK  9 active torsions:
REMARK  status: ('A' for Active; 'I' for Inactive)
REMARK    1  A    between atoms: C1_1  and  C2_2
REMARK    2  A    between atoms: C2_2  and  C25_32
REMARK    3  A    between atoms: C3_3  and  C4_4
REMARK    4  A    between atoms: C4_4  and  C5_5
REMARK    5  A    between atoms: C8_8  and  O4_25
REMARK    6  A    between atoms: C11_12  and  C14_19
REMARK    7  A    between atoms: C12_14  and  O3_18
REMARK    8  A    between atoms: C22_28  and  C23_30
REMARK    9  A    between atoms: C22_28  and  C24_31
REMARK                            x       y       z     vdW  Elec       q    Type
REMARK                         _______ _______ _______ _____ _____    ______ ____
ROOT
ATOM      6  C   UNL     1      45.049  19.765  19.396  0.00  0.00    -0.149 A 
ATOM      7  C   UNL     1      43.882  20.467  19.147  0.00  0.00    +0.225 A 
ATOM      8  C   UNL     1      43.711  21.763  19.663  0.00  0.00    -0.202 A 
ATOM      9  C   UNL     1      42.447  22.474  19.376  0.00  0.00    +0.057 C 
ATOM     10  C   UNL     1      41.412  21.759  18.940  0.00  0.00    -0.055 C 
ATOM     11  C   UNL     1      41.546  20.270  18.765  0.00  0.00    +0.149 C 
ATOM     12  C   UNL     1      40.591  19.803  17.664  0.00  0.00    +0.086 C 
ATOM     13  C   UNL     1      41.182  19.573  20.078  0.00  0.00    +0.037 C 
ATOM     14  C   UNL     1      44.716  22.353  20.425  0.00  0.00    +0.246 A 
ATOM     17  C   UNL     1      45.897  21.635  20.669  0.00  0.00    -0.306 A 
ATOM     18  C   UNL     1      46.980  22.230  21.461  0.00  0.00    +0.372 C 
ATOM     19  O   UNL     1      46.992  23.412  21.738  0.00  0.00    -0.418 OA
ATOM     20  C   UNL     1      48.078  21.287  21.925  0.00  0.00    +0.148 C 
ATOM     23  C   UNL     1      48.374  20.335  20.757  0.00  0.00    +0.248 C 
ATOM     30  O   UNL     1      47.185  19.626  20.411  0.00  0.00    -0.282 OA
ATOM     31  O   UNL     1      42.884  19.925  18.406  0.00  0.00    -0.290 OA
ATOM     32  C   UNL     1      46.057  20.331  20.160  0.00  0.00    +0.227 A 
ENDROOT
BRANCH  23  24
ATOM     24  C   UNL     1      49.443  19.354  21.167  0.00  0.00    -0.086 A 
ATOM     25  C   UNL     1      50.694  19.410  20.581  0.00  0.00    +0.033 A 
ATOM     26  C   UNL     1      51.674  18.511  20.957  0.00  0.00    +0.002 A 
ATOM     27  C   UNL     1      51.404  17.556  21.919  0.00  0.00    +0.015 A 
ATOM     28  C   UNL     1      50.154  17.500  22.505  0.00  0.00    +0.006 A 
ATOM     29  C   UNL     1      49.175  18.403  22.133  0.00  0.00    +0.041 A 
ENDBRANCH  23  24
BRANCH  14  15
ATOM     15  O   UNL     1      44.556  23.602  20.925  0.00  0.00    -0.471 OA
ATOM     16  H   UNL     1      44.801  23.687  21.856  0.00  0.00    +0.400 HD
ENDBRANCH  14  15
BRANCH  20  21
ATOM     21  O   UNL     1      49.251  22.033  22.254  0.00  0.00    -0.532 OA
ATOM     22  H   UNL     1      49.873  22.131  21.521  0.00  0.00    +0.394 HD
ENDBRANCH  20  21
BRANCH   6   5
ATOM      5  C   UNL     1      45.221  18.375  18.839  0.00  0.00    +0.136 C 
BRANCH   5   4
ATOM      1  C   UNL     1      46.916  16.268  19.639  0.00  0.00    +0.074 C 
ATOM      2  C   UNL     1      45.512  16.353  20.178  0.00  0.00    -0.127 C 
ATOM      3  C   UNL     1      44.988  15.276  21.093  0.00  0.00    +0.070 C 
ATOM      4  C   UNL     1      44.745  17.365  19.851  0.00  0.00    -0.050 C 
ENDBRANCH   5   4
ENDBRANCH   6   5
TORSDOF 5
ENDMDL
MODEL 5
REMARK VINA RESULT:      -6.4      3.515      6.458
REMARK  Name = ZINC38628344
REMARK  9 active torsions:
REMARK  status: ('A' for Active; 'I' for Inactive)
REMARK    1  A    between atoms: C1_1  and  C2_2
REMARK    2  A    between atoms: C2_2  and  C25_32
REMARK    3  A    between atoms: C3_3  and  C4_4
REMARK    4  A    between atoms: C4_4  and  C5_5
REMARK    5  A    between atoms: C8_8  and  O4_25
REMARK    6  A    between atoms: C11_12  and  C14_19
REMARK    7  A    between atoms: C12_14  and  O3_18
REMARK    8  A    between atoms: C22_28  and  C23_30
REMARK    9  A    between atoms: C22_28  and  C24_31
REMARK                            x       y       z     vdW  Elec       q    Type
REMARK                         _______ _______ _______ _____ _____    ______ ____
ROOT
ATOM      6  C   UNL     1      46.274  16.677  18.195  0.00  0.00    -0.149 A 
ATOM      7  C   UNL     1      46.334  15.302  18.047  0.00  0.00    +0.225 A 
ATOM      8  C   UNL     1      45.770  14.459  19.020  0.00  0.00    -0.202 A 
ATOM      9  C   UNL     1      45.861  12.997  18.823  0.00  0.00    +0.057 C 
ATOM     10  C   UNL     1      46.739  12.538  17.932  0.00  0.00    -0.055 C 
ATOM     11  C   UNL     1      47.612  13.501  17.172  0.00  0.00    +0.149 C 
ATOM     12  C   UNL     1      47.971  12.893  15.815  0.00  0.00    +0.086 C 
ATOM     13  C   UNL     1      48.895  13.755  17.966  0.00  0.00    +0.037 C 
ATOM     14  C   UNL     1      45.144  15.000  20.139  0.00  0.00    +0.246 A 
ATOM     17  C   UNL     1      45.085  16.396  20.280  0.00  0.00    -0.306 A 
ATOM     18  C   UNL     1      44.425  16.999  21.443  0.00  0.00    +0.372 C 
ATOM     19  O   UNL     1      43.729  16.345  22.192  0.00  0.00    -0.418 OA
ATOM     20  C   UNL     1      44.668  18.483  21.666  0.00  0.00    +0.148 C 
ATOM     23  C   UNL     1      44.627  19.156  20.287  0.00  0.00    +0.248 C 
ATOM     30  O   UNL     1      45.629  18.581  19.449  0.00  0.00    -0.282 OA
ATOM     31  O   UNL     1      46.933  14.741  16.967  0.00  0.00    -0.290 OA
ATOM     32  C   UNL     1      45.663  17.235  19.307  0.00  0.00    +0.227 A 
ENDROOT
BRANCH  23  24
ATOM     24  C   UNL     1      44.888  20.634  20.440  0.00  0.00    -0.086 A 
ATOM     25  C   UNL     1      43.960  21.550  19.985  0.00  0.00    +0.033 A 
ATOM     26  C   UNL     1      44.199  22.904  20.126  0.00  0.00    +0.002 A 
ATOM     27  C   UNL     1      45.366  23.342  20.723  0.00  0.00    +0.015 A 
ATOM     28  C   UNL     1      46.294  22.425  21.180  0.00  0.00    +0.006 A 
ATOM     29  C   UNL     1      46.052  21.070  21.043  0.00  0.00    +0.041 A 
ENDBRANCH  23  24
BRANCH  14  15
ATOM     15  O   UNL     1      44.600  14.191  21.081  0.00  0.00    -0.471 OA
ATOM     16  H   UNL     1      45.067  13.353  21.196  0.00  0.00    +0.400 HD
ENDBRANCH  14  15
BRANCH  20  21
ATOM     21  O   UNL     1      43.642  19.022  22.502  0.00  0.00    -0.532 OA
ATOM     22  H   UNL     1      43.055  19.645  22.052  0.00  0.00    +0.394 HD
ENDBRANCH  20  21
BRANCH   6   5
ATOM      5  C   UNL     1      46.883  17.572  17.147  0.00  0.00    +0.136 C 
BRANCH   5   4
ATOM      1  C   UNL     1      48.861  18.958  18.602  0.00  0.00    +0.074 C 
ATOM      2  C   UNL     1      49.259  17.905  17.601  0.00  0.00    -0.127 C 
ATOM      3  C   UNL     1      50.717  17.637  17.326  0.00  0.00    +0.070 C 
ATOM      4  C   UNL     1      48.337  17.220  16.969  0.00  0.00    -0.050 C 
ENDBRANCH   5   4
ENDBRANCH   6   5
TORSDOF 5
ENDMDL
MODEL 6
REMARK VINA RESULT:      -6.4      2.227      3.248
REMARK  Name = ZINC38628344
REMARK  9 active torsions:
REMARK  status: ('A' for Active; 'I' for Inactive)
REMARK    1  A    between atoms: C1_1  and  C2_2
REMARK    2  A    between atoms: C2_2  and  C25_32
REMARK    3  A    between atoms: C3_3  and  C4_4
REMARK    4  A    between atoms: C4_4  and  C5_5
REMARK    5  A    between atoms: C8_8  and  O4_25
REMARK    6  A    between atoms: C11_12  and  C14_19
REMARK    7  A    between atoms: C12_14  and  O3_18
REMARK    8  A    between atoms: C22_28  and  C23_30
REMARK    9  A    between atoms: C22_28  and  C24_31
REMARK                            x       y       z     vdW  Elec       q    Type
REMARK                         _______ _______ _______ _____ _____    ______ ____
ROOT
ATOM      6  C   UNL     1      46.499  19.095  20.123  0.00  0.00    -0.149 A 
ATOM      7  C   UNL     1      45.444  18.467  20.762  0.00  0.00    +0.225 A 
ATOM      8  C   UNL     1      45.305  17.070  20.696  0.00  0.00    -0.202 A 
ATOM      9  C   UNL     1      44.161  16.442  21.390  0.00  0.00    +0.057 C 
ATOM     10  C   UNL     1      43.147  17.223  21.758  0.00  0.00    -0.055 C 
ATOM     11  C   UNL     1      43.182  18.696  21.452  0.00  0.00    +0.149 C 
ATOM     12  C   UNL     1      42.367  19.450  22.505  0.00  0.00    +0.086 C 
ATOM     13  C   UNL     1      42.570  18.940  20.071  0.00  0.00    +0.037 C 
ATOM     14  C   UNL     1      46.230  16.307  19.989  0.00  0.00    +0.246 A 
ATOM     17  C   UNL     1      47.299  16.952  19.346  0.00  0.00    -0.306 A 
ATOM     18  C   UNL     1      48.297  16.176  18.601  0.00  0.00    +0.372 C 
ATOM     19  O   UNL     1      48.365  14.968  18.694  0.00  0.00    -0.418 OA
ATOM     20  C   UNL     1      49.232  16.965  17.699  0.00  0.00    +0.148 C 
ATOM     23  C   UNL     1      49.619  18.241  18.460  0.00  0.00    +0.248 C 
ATOM     30  O   UNL     1      48.440  18.983  18.771  0.00  0.00    -0.282 OA
ATOM     31  O   UNL     1      44.526  19.179  21.463  0.00  0.00    -0.290 OA
ATOM     32  C   UNL     1      47.424  18.354  19.407  0.00  0.00    +0.227 A 
ENDROOT
BRANCH  23  24
ATOM     24  C   UNL     1      50.531  19.081  17.602  0.00  0.00    -0.086 A 
ATOM     25  C   UNL     1      51.080  18.550  16.451  0.00  0.00    +0.033 A 
ATOM     26  C   UNL     1      51.916  19.321  15.665  0.00  0.00    +0.002 A 
ATOM     27  C   UNL     1      52.202  20.623  16.029  0.00  0.00    +0.015 A 
ATOM     28  C   UNL     1      51.652  21.154  17.180  0.00  0.00    +0.006 A 
ATOM     29  C   UNL     1      50.812  20.385  17.965  0.00  0.00    +0.041 A 
ENDBRANCH  23  24
BRANCH  14  15
ATOM     15  O   UNL     1      46.101  14.959  19.921  0.00  0.00    -0.471 OA
ATOM     16  H   UNL     1      46.220  14.510  20.769  0.00  0.00    +0.400 HD
ENDBRANCH  14  15
BRANCH  20  21
ATOM     21  O   UNL     1      50.400  16.192  17.418  0.00  0.00    -0.532 OA
ATOM     22  H   UNL     1      50.214  15.282  17.148  0.00  0.00    +0.394 HD
ENDBRANCH  20  21
BRANCH   6   5
ATOM      5  C   UNL     1      46.636  20.594  20.200  0.00  0.00    +0.136 C 
BRANCH   5   4
ATOM      1  C   UNL     1      45.297  22.740  21.447  0.00  0.00    +0.074 C 
ATOM      2  C   UNL     1      44.799  22.200  20.132  0.00  0.00    -0.127 C 
ATOM      3  C   UNL     1      43.544  22.762  19.513  0.00  0.00    +0.070 C 
ATOM      4  C   UNL     1      45.456  21.243  19.524  0.00  0.00    -0.050 C 
ENDBRANCH   5   4
ENDBRANCH   6   5
TORSDOF 5
ENDMDL
MODEL 7
REMARK VINA RESULT:      -6.2      4.266      6.621
REMARK  Name = ZINC38628344
REMARK  9 active torsions:
REMARK  status: ('A' for Active; 'I' for Inactive)
REMARK    1  A    between atoms: C1_1  and  C2_2
REMARK    2  A    between atoms: C2_2  and  C25_32
REMARK    3  A    between atoms: C3_3  and  C4_4
REMARK    4  A    between atoms: C4_4  and  C5_5
REMARK    5  A    between atoms: C8_8  and  O4_25
REMARK    6  A    between atoms: C11_12  and  C14_19
REMARK    7  A    between atoms: C12_14  and  O3_18
REMARK    8  A    between atoms: C22_28  and  C23_30
REMARK    9  A    between atoms: C22_28  and  C24_31
REMARK                            x       y       z     vdW  Elec       q    Type
REMARK                         _______ _______ _______ _____ _____    ______ ____
ROOT
ATOM      6  C   UNL     1      47.115  17.612  17.989  0.00  0.00    -0.149 A 
ATOM      7  C   UNL     1      46.523  18.819  18.321  0.00  0.00    +0.225 A 
ATOM      8  C   UNL     1      47.309  19.901  18.752  0.00  0.00    -0.202 A 
ATOM      9  C   UNL     1      46.633  21.168  19.100  0.00  0.00    +0.057 C 
ATOM     10  C   UNL     1      45.319  21.139  19.312  0.00  0.00    -0.055 C 
ATOM     11  C   UNL     1      44.568  19.838  19.207  0.00  0.00    +0.149 C 
ATOM     12  C   UNL     1      43.124  20.122  18.790  0.00  0.00    +0.086 C 
ATOM     13  C   UNL     1      44.573  19.141  20.569  0.00  0.00    +0.037 C 
ATOM     14  C   UNL     1      48.692  19.769  18.844  0.00  0.00    +0.246 A 
ATOM     17  C   UNL     1      49.285  18.543  18.502  0.00  0.00    -0.306 A 
ATOM     18  C   UNL     1      50.741  18.373  18.578  0.00  0.00    +0.372 C 
ATOM     19  O   UNL     1      51.486  19.320  18.720  0.00  0.00    -0.418 OA
ATOM     20  C   UNL     1      51.263  16.949  18.484  0.00  0.00    +0.148 C 
ATOM     23  C   UNL     1      50.432  16.238  17.406  0.00  0.00    +0.248 C 
ATOM     30  O   UNL     1      49.054  16.268  17.773  0.00  0.00    -0.282 OA
ATOM     31  O   UNL     1      45.178  18.983  18.240  0.00  0.00    -0.290 OA
ATOM     32  C   UNL     1      48.489  17.459  18.083  0.00  0.00    +0.227 A 
ENDROOT
BRANCH  23  24
ATOM     24  C   UNL     1      50.889  14.806  17.282  0.00  0.00    -0.086 A 
ATOM     25  C   UNL     1      51.011  14.020  18.412  0.00  0.00    +0.033 A 
ATOM     26  C   UNL     1      51.430  12.707  18.299  0.00  0.00    +0.002 A 
ATOM     27  C   UNL     1      51.724  12.181  17.055  0.00  0.00    +0.015 A 
ATOM     28  C   UNL     1      51.600  12.967  15.925  0.00  0.00    +0.006 A 
ATOM     29  C   UNL     1      51.178  14.278  16.038  0.00  0.00    +0.041 A 
ENDBRANCH  23  24
BRANCH  14  15
ATOM     15  O   UNL     1      49.455  20.809  19.259  0.00  0.00    -0.471 OA
ATOM     16  H   UNL     1      49.349  21.026  20.195  0.00  0.00    +0.400 HD
ENDBRANCH  14  15
BRANCH  20  21
ATOM     21  O   UNL     1      52.641  16.962  18.108  0.00  0.00    -0.532 OA
ATOM     22  H   UNL     1      52.877  16.286  17.458  0.00  0.00    +0.394 HD
ENDBRANCH  20  21
BRANCH   6   5
ATOM      5  C   UNL     1      46.261  16.458  17.530  0.00  0.00    +0.136 C 
BRANCH   5   4
ATOM      1  C   UNL     1      46.587  13.657  17.558  0.00  0.00    +0.074 C 
ATOM      2  C   UNL     1      45.911  14.351  18.712  0.00  0.00    -0.127 C 
ATOM      3  C   UNL     1      45.348  13.542  19.853  0.00  0.00    +0.070 C 
ATOM      4  C   UNL     1      45.813  15.658  18.726  0.00  0.00    -0.050 C 
ENDBRANCH   5   4
ENDBRANCH   6   5
TORSDOF 5
ENDMDL
MODEL 8
REMARK VINA RESULT:      -6.2      4.701      7.491
REMARK  Name = ZINC38628344
REMARK  9 active torsions:
REMARK  status: ('A' for Active; 'I' for Inactive)
REMARK    1  A    between atoms: C1_1  and  C2_2
REMARK    2  A    between atoms: C2_2  and  C25_32
REMARK    3  A    between atoms: C3_3  and  C4_4
REMARK    4  A    between atoms: C4_4  and  C5_5
REMARK    5  A    between atoms: C8_8  and  O4_25
REMARK    6  A    between atoms: C11_12  and  C14_19
REMARK    7  A    between atoms: C12_14  and  O3_18
REMARK    8  A    between atoms: C22_28  and  C23_30
REMARK    9  A    between atoms: C22_28  and  C24_31
REMARK                            x       y       z     vdW  Elec       q    Type
REMARK                         _______ _______ _______ _____ _____    ______ ____
ROOT
ATOM      6  C   UNL     1      47.299  17.409  18.300  0.00  0.00    -0.149 A 
ATOM      7  C   UNL     1      47.774  18.634  18.738  0.00  0.00    +0.225 A 
ATOM      8  C   UNL     1      49.152  18.909  18.720  0.00  0.00    -0.202 A 
ATOM      9  C   UNL     1      49.613  20.228  19.200  0.00  0.00    +0.057 C 
ATOM     10  C   UNL     1      48.770  20.961  19.925  0.00  0.00    -0.055 C 
ATOM     11  C   UNL     1      47.396  20.433  20.243  0.00  0.00    +0.149 C 
ATOM     12  C   UNL     1      46.432  21.608  20.420  0.00  0.00    +0.086 C 
ATOM     13  C   UNL     1      47.454  19.628  21.543  0.00  0.00    +0.037 C 
ATOM     14  C   UNL     1      50.051  17.951  18.259  0.00  0.00    +0.246 A 
ATOM     17  C   UNL     1      49.562  16.713  17.815  0.00  0.00    -0.306 A 
ATOM     18  C   UNL     1      50.481  15.685  17.313  0.00  0.00    +0.372 C 
ATOM     19  O   UNL     1      51.641  15.936  17.061  0.00  0.00    -0.418 OA
ATOM     20  C   UNL     1      49.908  14.288  17.140  0.00  0.00    +0.148 C 
ATOM     23  C   UNL     1      48.498  14.453  16.553  0.00  0.00    +0.248 C 
ATOM     30  O   UNL     1      47.704  15.240  17.440  0.00  0.00    -0.282 OA
ATOM     31  O   UNL     1      46.925  19.591  19.190  0.00  0.00    -0.290 OA
ATOM     32  C   UNL     1      48.180  16.440  17.847  0.00  0.00    +0.227 A 
ENDROOT
BRANCH  23  24
ATOM     24  C   UNL     1      47.864  13.096  16.380  0.00  0.00    -0.086 A 
ATOM     25  C   UNL     1      47.685  12.573  15.114  0.00  0.00    +0.033 A 
ATOM     26  C   UNL     1      47.104  11.329  14.956  0.00  0.00    +0.002 A 
ATOM     27  C   UNL     1      46.703  10.607  16.064  0.00  0.00    +0.015 A 
ATOM     28  C   UNL     1      46.883  11.129  17.331  0.00  0.00    +0.006 A 
ATOM     29  C   UNL     1      47.468  12.372  17.489  0.00  0.00    +0.041 A 
ENDBRANCH  23  24
BRANCH  14  15
ATOM     15  O   UNL     1      51.382  18.211  18.241  0.00  0.00    -0.471 OA
ATOM     16  H   UNL     1      51.602  19.112  17.970  0.00  0.00    +0.400 HD
ENDBRANCH  14  15
BRANCH  20  21
ATOM     21  O   UNL     1      50.725  13.537  16.242  0.00  0.00    -0.532 OA
ATOM     22  H   UNL     1      50.579  12.582  16.283  0.00  0.00    +0.394 HD
ENDBRANCH  20  21
BRANCH   6   5
ATOM      5  C   UNL     1      45.820  17.125  18.325  0.00  0.00    +0.136 C 
BRANCH   5   4
ATOM      1  C   UNL     1      43.946  18.291  20.082  0.00  0.00    +0.074 C 
ATOM      2  C   UNL     1      44.636  17.005  20.457  0.00  0.00    -0.127 C 
ATOM      3  C   UNL     1      44.376  16.374  21.801  0.00  0.00    +0.070 C 
ATOM      4  C   UNL     1      45.462  16.433  19.615  0.00  0.00    -0.050 C 
ENDBRANCH   5   4
ENDBRANCH   6   5
TORSDOF 5
ENDMDL
MODEL 9
REMARK VINA RESULT:      -6.1      5.409      7.129
REMARK  Name = ZINC38628344
REMARK  9 active torsions:
REMARK  status: ('A' for Active; 'I' for Inactive)
REMARK    1  A    between atoms: C1_1  and  C2_2
REMARK    2  A    between atoms: C2_2  and  C25_32
REMARK    3  A    between atoms: C3_3  and  C4_4
REMARK    4  A    between atoms: C4_4  and  C5_5
REMARK    5  A    between atoms: C8_8  and  O4_25
REMARK    6  A    between atoms: C11_12  and  C14_19
REMARK    7  A    between atoms: C12_14  and  O3_18
REMARK    8  A    between atoms: C22_28  and  C23_30
REMARK    9  A    between atoms: C22_28  and  C24_31
REMARK                            x       y       z     vdW  Elec       q    Type
REMARK                         _______ _______ _______ _____ _____    ______ ____
ROOT
ATOM      6  C   UNL     1      47.766  16.676  18.027  0.00  0.00    -0.149 A 
ATOM      7  C   UNL     1      46.843  17.143  18.947  0.00  0.00    +0.225 A 
ATOM      8  C   UNL     1      45.835  16.293  19.435  0.00  0.00    -0.202 A 
ATOM      9  C   UNL     1      44.869  16.836  20.412  0.00  0.00    +0.057 C 
ATOM     10  C   UNL     1      44.780  18.159  20.537  0.00  0.00    -0.055 C 
ATOM     11  C   UNL     1      45.642  19.054  19.687  0.00  0.00    +0.149 C 
ATOM     12  C   UNL     1      45.902  20.363  20.435  0.00  0.00    +0.086 C 
ATOM     13  C   UNL     1      44.913  19.358  18.376  0.00  0.00    +0.037 C 
ATOM     14  C   UNL     1      45.760  14.973  18.999  0.00  0.00    +0.246 A 
ATOM     17  C   UNL     1      46.702  14.506  18.069  0.00  0.00    -0.306 A 
ATOM     18  C   UNL     1      46.658  13.118  17.597  0.00  0.00    +0.372 C 
ATOM     19  O   UNL     1      45.967  12.282  18.140  0.00  0.00    -0.418 OA
ATOM     20  C   UNL     1      47.512  12.787  16.384  0.00  0.00    +0.148 C 
ATOM     23  C   UNL     1      48.846  13.527  16.560  0.00  0.00    +0.248 C 
ATOM     30  O   UNL     1      48.600  14.929  16.661  0.00  0.00    -0.282 OA
ATOM     31  O   UNL     1      46.889  18.422  19.395  0.00  0.00    -0.290 OA
ATOM     32  C   UNL     1      47.702  15.368  17.575  0.00  0.00    +0.227 A 
ENDROOT
BRANCH  23  24
ATOM     24  C   UNL     1      49.732  13.257  15.370  0.00  0.00    -0.086 A 
ATOM     25  C   UNL     1      49.170  12.935  14.149  0.00  0.00    +0.033 A 
ATOM     26  C   UNL     1      49.982  12.687  13.059  0.00  0.00    +0.002 A 
ATOM     27  C   UNL     1      51.356  12.762  13.188  0.00  0.00    +0.015 A 
ATOM     28  C   UNL     1      51.918  13.085  14.409  0.00  0.00    +0.006 A 
ATOM     29  C   UNL     1      51.105  13.337  15.499  0.00  0.00    +0.041 A 
ENDBRANCH  23  24
BRANCH  14  15
ATOM     15  O   UNL     1      44.790  14.150  19.466  0.00  0.00    -0.471 OA
ATOM     16  H   UNL     1      45.116  13.451  20.050  0.00  0.00    +0.400 HD
ENDBRANCH  14  15
BRANCH  20  21
ATOM     21  O   UNL     1      47.741  11.378  16.322  0.00  0.00    -0.532 OA
ATOM     22  H   UNL     1      48.654  11.137  16.113  0.00  0.00    +0.394 HD
ENDBRANCH  20  21
BRANCH   6   5
ATOM      5  C   UNL     1      48.841  17.596  17.509  0.00  0.00    +0.136 C 
BRANCH   5   4
ATOM      1  C   UNL     1      51.354  18.329  16.461  0.00  0.00    +0.074 C 
ATOM      2  C   UNL     1      51.257  17.726  17.838  0.00  0.00    -0.127 C 
ATOM      3  C   UNL     1      52.509  17.451  18.631  0.00  0.00    +0.070 C 
ATOM      4  C   UNL     1      50.083  17.441  18.347  0.00  0.00    -0.050 C 
ENDBRANCH   5   4
ENDBRANCH   6   5
TORSDOF 5
ENDMDL
