MODEL 1
REMARK VINA RESULT:      -4.6      0.000      0.000
REMARK  Name = ZINC95486060
REMARK  19 active torsions:
REMARK  status: ('A' for Active; 'I' for Inactive)
REMARK    1  A    between atoms: C1_1  and  C2_2
REMARK    2  A    between atoms: C2_2  and  O2_4
REMARK    3  A    between atoms: O2_4  and  C3_5
REMARK    4  A    between atoms: C3_5  and  C4_6
REMARK    5  A    between atoms: C4_6  and  C5_7
REMARK    6  A    between atoms: C5_7  and  C6_8
REMARK    7  A    between atoms: C6_8  and  C7_9
REMARK    8  A    between atoms: C7_9  and  C8_10
REMARK    9  A    between atoms: C8_10  and  C9_11
REMARK   10  A    between atoms: C9_11  and  C10_12
REMARK   11  A    between atoms: C10_12  and  C11_13
REMARK   12  A    between atoms: C11_13  and  C12_15
REMARK   13  A    between atoms: C11_13  and  O5_27
REMARK   14  A    between atoms: C13_16  and  C14_17
REMARK   15  A    between atoms: C15_18  and  C16_19
REMARK   16  A    between atoms: C16_19  and  C17_21
REMARK   17  A    between atoms: C16_19  and  O3_23
REMARK   18  A    between atoms: O3_23  and  C19_24
REMARK   19  A    between atoms: C19_24  and  C20_26
REMARK                            x       y       z     vdW  Elec       q    Type
REMARK                         _______ _______ _______ _____ _____    ______ ____
ROOT
ATOM     12  C   UNL     1      51.795  20.898  18.054  0.00  0.00    +0.350 C 
ENDROOT
BRANCH  12  13
ATOM     13  O   UNL     1      52.566  21.584  19.042  0.00  0.00    -0.544 OA
ATOM     14  H   UNL     1      53.204  22.212  18.677  0.00  0.00    +0.382 HD
ENDBRANCH  12  13
BRANCH  12  15
ATOM     15  C   UNL     1      50.380  20.877  18.463  0.00  0.00    -0.146 C 
ATOM     16  C   UNL     1      49.253  20.861  18.788  0.00  0.00    -0.063 C 
BRANCH  16  17
ATOM     17  C   UNL     1      47.930  20.841  19.169  0.00  0.00    -0.037 C 
ATOM     18  C   UNL     1      46.802  20.824  19.494  0.00  0.00    -0.120 C 
BRANCH  18  19
ATOM     19  C   UNL     1      45.387  20.804  19.902  0.00  0.00    +0.360 C 
BRANCH  19  24
ATOM     24  C   UNL     1      45.000  22.155  20.443  0.00  0.00    -0.047 C 
ATOM     25  C   UNL     1      44.840  23.167  19.627  0.00  0.00    +0.053 C 
ENDBRANCH  19  24
BRANCH  19  20
ATOM     20  O   UNL     1      44.570  20.491  18.771  0.00  0.00    -0.341 OA
BRANCH  20  21
ATOM     21  C   UNL     1      43.398  19.886  19.016  0.00  0.00    +0.461 C 
ATOM     22  C   UNL     1      43.318  18.791  20.049  0.00  0.00    +0.166 C 
ATOM     23  O   UNL     1      42.408  20.218  18.409  0.00  0.00    -0.502 OA
ENDBRANCH  20  21
ENDBRANCH  19  20
ENDBRANCH  18  19
ENDBRANCH  16  17
ENDBRANCH  12  15
BRANCH  12  11
ATOM     11  C   UNL     1      52.307  19.464  17.914  0.00  0.00    +0.004 C 
BRANCH  11  10
ATOM     10  C   UNL     1      51.875  18.899  16.559  0.00  0.00    +0.021 C 
BRANCH  10   9
ATOM      9  C   UNL     1      51.205  17.538  16.763  0.00  0.00    +0.003 C 
BRANCH   9   8
ATOM      8  C   UNL     1      50.786  17.389  18.226  0.00  0.00    +0.005 C 
BRANCH   8   7
ATOM      7  C   UNL     1      49.342  16.889  18.295  0.00  0.00    +0.008 C 
BRANCH   7   6
ATOM      6  C   UNL     1      48.533  17.508  17.153  0.00  0.00    +0.014 C 
BRANCH   6   5
ATOM      5  C   UNL     1      47.060  17.590  17.558  0.00  0.00    +0.030 C 
BRANCH   5   4
ATOM      4  C   UNL     1      46.489  16.177  17.694  0.00  0.00    +0.199 C 
BRANCH   4   3
ATOM      3  O   UNL     1      46.679  15.466  16.469  0.00  0.00    -0.355 OA
BRANCH   3   2
ATOM      1  C   UNL     1      48.428  13.740  16.224  0.00  0.00    +0.156 C 
ATOM      2  C   UNL     1      47.024  14.172  16.562  0.00  0.00    +0.458 C 
ATOM     26  O   UNL     1      46.209  13.353  16.917  0.00  0.00    -0.513 OA
ENDBRANCH   3   2
ENDBRANCH   4   3
ENDBRANCH   5   4
ENDBRANCH   6   5
ENDBRANCH   7   6
ENDBRANCH   8   7
ENDBRANCH   9   8
ENDBRANCH  10   9
ENDBRANCH  11  10
ENDBRANCH  12  11
TORSDOF 17
ENDMDL
MODEL 2
REMARK VINA RESULT:      -4.5      1.397      1.598
REMARK  Name = ZINC95486060
REMARK  19 active torsions:
REMARK  status: ('A' for Active; 'I' for Inactive)
REMARK    1  A    between atoms: C1_1  and  C2_2
REMARK    2  A    between atoms: C2_2  and  O2_4
REMARK    3  A    between atoms: O2_4  and  C3_5
REMARK    4  A    between atoms: C3_5  and  C4_6
REMARK    5  A    between atoms: C4_6  and  C5_7
REMARK    6  A    between atoms: C5_7  and  C6_8
REMARK    7  A    between atoms: C6_8  and  C7_9
REMARK    8  A    between atoms: C7_9  and  C8_10
REMARK    9  A    between atoms: C8_10  and  C9_11
REMARK   10  A    between atoms: C9_11  and  C10_12
REMARK   11  A    between atoms: C10_12  and  C11_13
REMARK   12  A    between atoms: C11_13  and  C12_15
REMARK   13  A    between atoms: C11_13  and  O5_27
REMARK   14  A    between atoms: C13_16  and  C14_17
REMARK   15  A    between atoms: C15_18  and  C16_19
REMARK   16  A    between atoms: C16_19  and  C17_21
REMARK   17  A    between atoms: C16_19  and  O3_23
REMARK   18  A    between atoms: O3_23  and  C19_24
REMARK   19  A    between atoms: C19_24  and  C20_26
REMARK                            x       y       z     vdW  Elec       q    Type
REMARK                         _______ _______ _______ _____ _____    ______ ____
ROOT
ATOM     12  C   UNL     1      51.727  20.909  18.033  0.00  0.00    +0.350 C 
ENDROOT
BRANCH  12  13
ATOM     13  O   UNL     1      52.509  21.597  19.011  0.00  0.00    -0.544 OA
ATOM     14  H   UNL     1      52.290  22.534  19.102  0.00  0.00    +0.382 HD
ENDBRANCH  12  13
BRANCH  12  15
ATOM     15  C   UNL     1      50.317  20.892  18.455  0.00  0.00    -0.146 C 
ATOM     16  C   UNL     1      49.193  20.878  18.792  0.00  0.00    -0.063 C 
BRANCH  16  17
ATOM     17  C   UNL     1      47.874  20.862  19.187  0.00  0.00    -0.037 C 
ATOM     18  C   UNL     1      46.749  20.848  19.524  0.00  0.00    -0.120 C 
BRANCH  18  19
ATOM     19  C   UNL     1      45.339  20.831  19.948  0.00  0.00    +0.360 C 
BRANCH  19  24
ATOM     24  C   UNL     1      44.944  22.201  20.434  0.00  0.00    -0.047 C 
ATOM     25  C   UNL     1      44.811  23.186  19.581  0.00  0.00    +0.053 C 
ENDBRANCH  19  24
BRANCH  19  20
ATOM     20  O   UNL     1      44.514  20.462  18.841  0.00  0.00    -0.341 OA
BRANCH  20  21
ATOM     21  C   UNL     1      43.373  19.812  19.122  0.00  0.00    +0.461 C 
ATOM     22  C   UNL     1      42.056  20.361  18.637  0.00  0.00    +0.166 C 
ATOM     23  O   UNL     1      43.403  18.789  19.762  0.00  0.00    -0.502 OA
ENDBRANCH  20  21
ENDBRANCH  19  20
ENDBRANCH  18  19
ENDBRANCH  16  17
ENDBRANCH  12  15
BRANCH  12  11
ATOM     11  C   UNL     1      52.234  19.473  17.892  0.00  0.00    +0.004 C 
BRANCH  11  10
ATOM     10  C   UNL     1      51.787  18.904  16.543  0.00  0.00    +0.021 C 
BRANCH  10   9
ATOM      9  C   UNL     1      51.048  17.583  16.766  0.00  0.00    +0.003 C 
BRANCH   9   8
ATOM      8  C   UNL     1      50.816  17.373  18.263  0.00  0.00    +0.005 C 
BRANCH   8   7
ATOM      7  C   UNL     1      49.351  17.005  18.506  0.00  0.00    +0.008 C 
BRANCH   7   6
ATOM      6  C   UNL     1      48.574  17.113  17.192  0.00  0.00    +0.014 C 
BRANCH   6   5
ATOM      5  C   UNL     1      47.185  17.690  17.467  0.00  0.00    +0.030 C 
BRANCH   5   4
ATOM      4  C   UNL     1      46.724  17.266  18.863  0.00  0.00    +0.199 C 
BRANCH   4   3
ATOM      3  O   UNL     1      45.547  16.463  18.753  0.00  0.00    -0.355 OA
BRANCH   3   2
ATOM      1  C   UNL     1      45.923  14.023  18.728  0.00  0.00    +0.156 C 
ATOM      2  C   UNL     1      45.536  15.302  19.425  0.00  0.00    +0.458 C 
ATOM     26  O   UNL     1      45.214  15.281  20.590  0.00  0.00    -0.513 OA
ENDBRANCH   3   2
ENDBRANCH   4   3
ENDBRANCH   5   4
ENDBRANCH   6   5
ENDBRANCH   7   6
ENDBRANCH   8   7
ENDBRANCH   9   8
ENDBRANCH  10   9
ENDBRANCH  11  10
ENDBRANCH  12  11
TORSDOF 17
ENDMDL
MODEL 3
REMARK VINA RESULT:      -4.5      1.716      5.712
REMARK  Name = ZINC95486060
REMARK  19 active torsions:
REMARK  status: ('A' for Active; 'I' for Inactive)
REMARK    1  A    between atoms: C1_1  and  C2_2
REMARK    2  A    between atoms: C2_2  and  O2_4
REMARK    3  A    between atoms: O2_4  and  C3_5
REMARK    4  A    between atoms: C3_5  and  C4_6
REMARK    5  A    between atoms: C4_6  and  C5_7
REMARK    6  A    between atoms: C5_7  and  C6_8
REMARK    7  A    between atoms: C6_8  and  C7_9
REMARK    8  A    between atoms: C7_9  and  C8_10
REMARK    9  A    between atoms: C8_10  and  C9_11
REMARK   10  A    between atoms: C9_11  and  C10_12
REMARK   11  A    between atoms: C10_12  and  C11_13
REMARK   12  A    between atoms: C11_13  and  C12_15
REMARK   13  A    between atoms: C11_13  and  O5_27
REMARK   14  A    between atoms: C13_16  and  C14_17
REMARK   15  A    between atoms: C15_18  and  C16_19
REMARK   16  A    between atoms: C16_19  and  C17_21
REMARK   17  A    between atoms: C16_19  and  O3_23
REMARK   18  A    between atoms: O3_23  and  C19_24
REMARK   19  A    between atoms: C19_24  and  C20_26
REMARK                            x       y       z     vdW  Elec       q    Type
REMARK                         _______ _______ _______ _____ _____    ______ ____
ROOT
ATOM     12  C   UNL     1      52.085  19.537  16.525  0.00  0.00    +0.350 C 
ENDROOT
BRANCH  12  13
ATOM     13  O   UNL     1      51.816  20.431  15.443  0.00  0.00    -0.544 OA
ATOM     14  H   UNL     1      52.561  21.000  15.208  0.00  0.00    +0.382 HD
ENDBRANCH  12  13
BRANCH  12  15
ATOM     15  C   UNL     1      50.931  18.643  16.722  0.00  0.00    -0.146 C 
ATOM     16  C   UNL     1      50.012  17.931  16.878  0.00  0.00    -0.063 C 
BRANCH  16  17
ATOM     17  C   UNL     1      48.933  17.096  17.062  0.00  0.00    -0.037 C 
ATOM     18  C   UNL     1      48.013  16.383  17.219  0.00  0.00    -0.120 C 
BRANCH  18  19
ATOM     19  C   UNL     1      46.859  15.490  17.414  0.00  0.00    +0.360 C 
BRANCH  19  24
ATOM     24  C   UNL     1      46.914  14.369  16.409  0.00  0.00    -0.047 C 
ATOM     25  C   UNL     1      47.940  13.554  16.391  0.00  0.00    +0.053 C 
ENDBRANCH  19  24
BRANCH  19  20
ATOM     20  O   UNL     1      46.896  14.947  18.736  0.00  0.00    -0.341 OA
BRANCH  20  21
ATOM     21  C   UNL     1      45.717  14.767  19.353  0.00  0.00    +0.461 C 
ATOM     22  C   UNL     1      45.133  13.382  19.469  0.00  0.00    +0.166 C 
ATOM     23  O   UNL     1      45.126  15.713  19.815  0.00  0.00    -0.502 OA
ENDBRANCH  20  21
ENDBRANCH  19  20
ENDBRANCH  18  19
ENDBRANCH  16  17
ENDBRANCH  12  15
BRANCH  12  11
ATOM     11  C   UNL     1      52.330  20.341  17.802  0.00  0.00    +0.004 C 
BRANCH  11  10
ATOM     10  C   UNL     1      51.047  21.078  18.195  0.00  0.00    +0.021 C 
BRANCH  10   9
ATOM      9  C   UNL     1      50.752  20.835  19.677  0.00  0.00    +0.003 C 
BRANCH   9   8
ATOM      8  C   UNL     1      49.429  20.081  19.817  0.00  0.00    +0.005 C 
BRANCH   8   7
ATOM      7  C   UNL     1      48.315  20.872  19.129  0.00  0.00    +0.008 C 
BRANCH   7   6
ATOM      6  C   UNL     1      47.129  19.946  18.850  0.00  0.00    +0.014 C 
BRANCH   6   5
ATOM      5  C   UNL     1      45.853  20.778  18.716  0.00  0.00    +0.030 C 
BRANCH   5   4
ATOM      4  C   UNL     1      44.634  19.857  18.789  0.00  0.00    +0.199 C 
BRANCH   4   3
ATOM      3  O   UNL     1      43.525  20.576  19.333  0.00  0.00    -0.355 OA
BRANCH   3   2
ATOM      1  C   UNL     1      41.560  19.356  20.198  0.00  0.00    +0.156 C 
ATOM      2  C   UNL     1      42.301  20.076  19.101  0.00  0.00    +0.458 C 
ATOM     26  O   UNL     1      41.793  20.202  18.012  0.00  0.00    -0.513 OA
ENDBRANCH   3   2
ENDBRANCH   4   3
ENDBRANCH   5   4
ENDBRANCH   6   5
ENDBRANCH   7   6
ENDBRANCH   8   7
ENDBRANCH   9   8
ENDBRANCH  10   9
ENDBRANCH  11  10
ENDBRANCH  12  11
TORSDOF 17
ENDMDL
MODEL 4
REMARK VINA RESULT:      -4.5      2.340      5.561
REMARK  Name = ZINC95486060
REMARK  19 active torsions:
REMARK  status: ('A' for Active; 'I' for Inactive)
REMARK    1  A    between atoms: C1_1  and  C2_2
REMARK    2  A    between atoms: C2_2  and  O2_4
REMARK    3  A    between atoms: O2_4  and  C3_5
REMARK    4  A    between atoms: C3_5  and  C4_6
REMARK    5  A    between atoms: C4_6  and  C5_7
REMARK    6  A    between atoms: C5_7  and  C6_8
REMARK    7  A    between atoms: C6_8  and  C7_9
REMARK    8  A    between atoms: C7_9  and  C8_10
REMARK    9  A    between atoms: C8_10  and  C9_11
REMARK   10  A    between atoms: C9_11  and  C10_12
REMARK   11  A    between atoms: C10_12  and  C11_13
REMARK   12  A    between atoms: C11_13  and  C12_15
REMARK   13  A    between atoms: C11_13  and  O5_27
REMARK   14  A    between atoms: C13_16  and  C14_17
REMARK   15  A    between atoms: C15_18  and  C16_19
REMARK   16  A    between atoms: C16_19  and  C17_21
REMARK   17  A    between atoms: C16_19  and  O3_23
REMARK   18  A    between atoms: O3_23  and  C19_24
REMARK   19  A    between atoms: C19_24  and  C20_26
REMARK                            x       y       z     vdW  Elec       q    Type
REMARK                         _______ _______ _______ _____ _____    ______ ____
ROOT
ATOM     12  C   UNL     1      51.858  18.330  16.324  0.00  0.00    +0.350 C 
ENDROOT
BRANCH  12  13
ATOM     13  O   UNL     1      52.368  17.302  15.473  0.00  0.00    -0.544 OA
ATOM     14  H   UNL     1      51.726  16.609  15.264  0.00  0.00    +0.382 HD
ENDBRANCH  12  13
BRANCH  12  15
ATOM     15  C   UNL     1      50.534  17.935  16.833  0.00  0.00    -0.146 C 
ATOM     16  C   UNL     1      49.480  17.619  17.239  0.00  0.00    -0.063 C 
BRANCH  16  17
ATOM     17  C   UNL     1      48.242  17.250  17.716  0.00  0.00    -0.037 C 
ATOM     18  C   UNL     1      47.186  16.934  18.122  0.00  0.00    -0.120 C 
BRANCH  18  19
ATOM     19  C   UNL     1      45.863  16.538  18.631  0.00  0.00    +0.360 C 
BRANCH  19  24
ATOM     24  C   UNL     1      45.884  15.079  19.005  0.00  0.00    -0.047 C 
ATOM     25  C   UNL     1      45.267  14.671  20.086  0.00  0.00    +0.053 C 
ENDBRANCH  19  24
BRANCH  19  20
ATOM     20  O   UNL     1      45.542  17.321  19.783  0.00  0.00    -0.341 OA
BRANCH  20  21
ATOM     21  C   UNL     1      44.613  18.278  19.629  0.00  0.00    +0.461 C 
ATOM     22  C   UNL     1      44.738  19.274  18.504  0.00  0.00    +0.166 C 
ATOM     23  O   UNL     1      43.678  18.341  20.390  0.00  0.00    -0.502 OA
ENDBRANCH  20  21
ENDBRANCH  19  20
ENDBRANCH  18  19
ENDBRANCH  16  17
ENDBRANCH  12  15
BRANCH  12  11
ATOM     11  C   UNL     1      51.732  19.631  15.530  0.00  0.00    +0.004 C 
BRANCH  11  10
ATOM     10  C   UNL     1      52.220  20.801  16.387  0.00  0.00    +0.021 C 
BRANCH  10   9
ATOM      9  C   UNL     1      51.087  21.273  17.300  0.00  0.00    +0.003 C 
BRANCH   9   8
ATOM      8  C   UNL     1      51.533  21.178  18.760  0.00  0.00    +0.005 C 
BRANCH   8   7
ATOM      7  C   UNL     1      50.430  20.517  19.589  0.00  0.00    +0.008 C 
BRANCH   7   6
ATOM      6  C   UNL     1      49.067  20.830  18.966  0.00  0.00    +0.014 C 
BRANCH   6   5
ATOM      5  C   UNL     1      47.962  20.210  19.822  0.00  0.00    +0.030 C 
BRANCH   5   4
ATOM      4  C   UNL     1      47.748  21.062  21.075  0.00  0.00    +0.199 C 
BRANCH   4   3
ATOM      3  O   UNL     1      46.355  21.339  21.231  0.00  0.00    -0.355 OA
BRANCH   3   2
ATOM      1  C   UNL     1      44.825  22.774  19.928  0.00  0.00    +0.156 C 
ATOM      2  C   UNL     1      45.941  22.578  20.921  0.00  0.00    +0.458 C 
ATOM     26  O   UNL     1      46.465  23.537  21.438  0.00  0.00    -0.513 OA
ENDBRANCH   3   2
ENDBRANCH   4   3
ENDBRANCH   5   4
ENDBRANCH   6   5
ENDBRANCH   7   6
ENDBRANCH   8   7
ENDBRANCH   9   8
ENDBRANCH  10   9
ENDBRANCH  11  10
ENDBRANCH  12  11
TORSDOF 17
ENDMDL
MODEL 5
REMARK VINA RESULT:      -4.4      1.456      5.282
REMARK  Name = ZINC95486060
REMARK  19 active torsions:
REMARK  status: ('A' for Active; 'I' for Inactive)
REMARK    1  A    between atoms: C1_1  and  C2_2
REMARK    2  A    between atoms: C2_2  and  O2_4
REMARK    3  A    between atoms: O2_4  and  C3_5
REMARK    4  A    between atoms: C3_5  and  C4_6
REMARK    5  A    between atoms: C4_6  and  C5_7
REMARK    6  A    between atoms: C5_7  and  C6_8
REMARK    7  A    between atoms: C6_8  and  C7_9
REMARK    8  A    between atoms: C7_9  and  C8_10
REMARK    9  A    between atoms: C8_10  and  C9_11
REMARK   10  A    between atoms: C9_11  and  C10_12
REMARK   11  A    between atoms: C10_12  and  C11_13
REMARK   12  A    between atoms: C11_13  and  C12_15
REMARK   13  A    between atoms: C11_13  and  O5_27
REMARK   14  A    between atoms: C13_16  and  C14_17
REMARK   15  A    between atoms: C15_18  and  C16_19
REMARK   16  A    between atoms: C16_19  and  C17_21
REMARK   17  A    between atoms: C16_19  and  O3_23
REMARK   18  A    between atoms: O3_23  and  C19_24
REMARK   19  A    between atoms: C19_24  and  C20_26
REMARK                            x       y       z     vdW  Elec       q    Type
REMARK                         _______ _______ _______ _____ _____    ______ ____
ROOT
ATOM     12  C   UNL     1      47.394  14.474  16.810  0.00  0.00    +0.350 C 
ENDROOT
BRANCH  12  13
ATOM     13  O   UNL     1      46.957  14.338  15.456  0.00  0.00    -0.544 OA
ATOM     14  H   UNL     1      47.629  13.977  14.860  0.00  0.00    +0.382 HD
ENDBRANCH  12  13
BRANCH  12  15
ATOM     15  C   UNL     1      46.723  15.629  17.428  0.00  0.00    -0.146 C 
ATOM     16  C   UNL     1      46.190  16.551  17.921  0.00  0.00    -0.063 C 
BRANCH  16  17
ATOM     17  C   UNL     1      45.563  17.632  18.499  0.00  0.00    -0.037 C 
ATOM     18  C   UNL     1      45.029  18.554  18.992  0.00  0.00    -0.120 C 
BRANCH  18  19
ATOM     19  C   UNL     1      44.360  19.711  19.610  0.00  0.00    +0.360 C 
BRANCH  19  24
ATOM     24  C   UNL     1      45.355  20.826  19.799  0.00  0.00    -0.047 C 
ATOM     25  C   UNL     1      45.742  21.540  18.771  0.00  0.00    +0.053 C 
ENDBRANCH  19  24
BRANCH  19  20
ATOM     20  O   UNL     1      43.299  20.156  18.762  0.00  0.00    -0.341 OA
BRANCH  20  21
ATOM     21  C   UNL     1      42.047  20.001  19.220  0.00  0.00    +0.461 C 
ATOM     22  C   UNL     1      40.880  20.499  18.406  0.00  0.00    +0.166 C 
ATOM     23  O   UNL     1      41.855  19.462  20.284  0.00  0.00    -0.502 OA
ENDBRANCH  20  21
ENDBRANCH  19  20
ENDBRANCH  18  19
ENDBRANCH  16  17
ENDBRANCH  12  15
BRANCH  12  11
ATOM     11  C   UNL     1      48.908  14.687  16.838  0.00  0.00    +0.004 C 
BRANCH  11  10
ATOM     10  C   UNL     1      49.361  14.932  18.279  0.00  0.00    +0.021 C 
BRANCH  10   9
ATOM      9  C   UNL     1      50.422  16.035  18.300  0.00  0.00    +0.003 C 
BRANCH   9   8
ATOM      8  C   UNL     1      49.951  17.179  19.199  0.00  0.00    +0.005 C 
BRANCH   8   7
ATOM      7  C   UNL     1      49.416  18.322  18.333  0.00  0.00    +0.008 C 
BRANCH   7   6
ATOM      6  C   UNL     1      48.747  19.369  19.227  0.00  0.00    +0.014 C 
BRANCH   6   5
ATOM      5  C   UNL     1      49.374  20.739  18.963  0.00  0.00    +0.030 C 
BRANCH   5   4
ATOM      4  C   UNL     1      50.775  20.785  19.577  0.00  0.00    +0.199 C 
BRANCH   4   3
ATOM      3  O   UNL     1      51.691  21.339  18.631  0.00  0.00    -0.355 OA
BRANCH   3   2
ATOM      1  C   UNL     1      51.921  20.828  16.226  0.00  0.00    +0.156 C 
ATOM      2  C   UNL     1      52.159  20.515  17.681  0.00  0.00    +0.458 C 
ATOM     26  O   UNL     1      52.772  19.520  17.992  0.00  0.00    -0.513 OA
ENDBRANCH   3   2
ENDBRANCH   4   3
ENDBRANCH   5   4
ENDBRANCH   6   5
ENDBRANCH   7   6
ENDBRANCH   8   7
ENDBRANCH   9   8
ENDBRANCH  10   9
ENDBRANCH  11  10
ENDBRANCH  12  11
TORSDOF 17
ENDMDL
MODEL 6
REMARK VINA RESULT:      -4.4      1.666      6.053
REMARK  Name = ZINC95486060
REMARK  19 active torsions:
REMARK  status: ('A' for Active; 'I' for Inactive)
REMARK    1  A    between atoms: C1_1  and  C2_2
REMARK    2  A    between atoms: C2_2  and  O2_4
REMARK    3  A    between atoms: O2_4  and  C3_5
REMARK    4  A    between atoms: C3_5  and  C4_6
REMARK    5  A    between atoms: C4_6  and  C5_7
REMARK    6  A    between atoms: C5_7  and  C6_8
REMARK    7  A    between atoms: C6_8  and  C7_9
REMARK    8  A    between atoms: C7_9  and  C8_10
REMARK    9  A    between atoms: C8_10  and  C9_11
REMARK   10  A    between atoms: C9_11  and  C10_12
REMARK   11  A    between atoms: C10_12  and  C11_13
REMARK   12  A    between atoms: C11_13  and  C12_15
REMARK   13  A    between atoms: C11_13  and  O5_27
REMARK   14  A    between atoms: C13_16  and  C14_17
REMARK   15  A    between atoms: C15_18  and  C16_19
REMARK   16  A    between atoms: C16_19  and  C17_21
REMARK   17  A    between atoms: C16_19  and  O3_23
REMARK   18  A    between atoms: O3_23  and  C19_24
REMARK   19  A    between atoms: C19_24  and  C20_26
REMARK                            x       y       z     vdW  Elec       q    Type
REMARK                         _______ _______ _______ _____ _____    ______ ____
ROOT
ATOM     12  C   UNL     1      51.979  19.544  16.123  0.00  0.00    +0.350 C 
ENDROOT
BRANCH  12  13
ATOM     13  O   UNL     1      51.497  20.367  15.060  0.00  0.00    -0.544 OA
ATOM     14  H   UNL     1      51.332  19.889  14.236  0.00  0.00    +0.382 HD
ENDBRANCH  12  13
BRANCH  12  15
ATOM     15  C   UNL     1      50.916  18.618  16.548  0.00  0.00    -0.146 C 
ATOM     16  C   UNL     1      50.070  17.879  16.887  0.00  0.00    -0.063 C 
BRANCH  16  17
ATOM     17  C   UNL     1      49.076  17.013  17.285  0.00  0.00    -0.037 C 
ATOM     18  C   UNL     1      48.229  16.274  17.624  0.00  0.00    -0.120 C 
BRANCH  18  19
ATOM     19  C   UNL     1      47.167  15.347  18.050  0.00  0.00    +0.360 C 
BRANCH  19  24
ATOM     24  C   UNL     1      45.932  16.130  18.412  0.00  0.00    -0.047 C 
ATOM     25  C   UNL     1      45.520  16.165  19.655  0.00  0.00    +0.053 C 
ENDBRANCH  19  24
BRANCH  19  20
ATOM     20  O   UNL     1      46.865  14.447  16.982  0.00  0.00    -0.341 OA
BRANCH  20  21
ATOM     21  C   UNL     1      46.595  13.175  17.316  0.00  0.00    +0.461 C 
ATOM     22  C   UNL     1      47.698  12.277  17.813  0.00  0.00    +0.166 C 
ATOM     23  O   UNL     1      45.468  12.751  17.218  0.00  0.00    -0.502 OA
ENDBRANCH  20  21
ENDBRANCH  19  20
ENDBRANCH  18  19
ENDBRANCH  16  17
ENDBRANCH  12  15
BRANCH  12  11
ATOM     11  C   UNL     1      52.389  20.425  17.304  0.00  0.00    +0.004 C 
BRANCH  11  10
ATOM     10  C   UNL     1      51.146  21.083  17.906  0.00  0.00    +0.021 C 
BRANCH  10   9
ATOM      9  C   UNL     1      51.273  21.119  19.430  0.00  0.00    +0.003 C 
BRANCH   9   8
ATOM      8  C   UNL     1      49.969  20.632  20.064  0.00  0.00    +0.005 C 
BRANCH   8   7
ATOM      7  C   UNL     1      48.858  20.636  19.012  0.00  0.00    +0.008 C 
BRANCH   7   6
ATOM      6  C   UNL     1      47.725  19.713  19.463  0.00  0.00    +0.014 C 
BRANCH   6   5
ATOM      5  C   UNL     1      46.566  19.805  18.470  0.00  0.00    +0.030 C 
BRANCH   5   4
ATOM      4  C   UNL     1      45.370  20.482  19.143  0.00  0.00    +0.199 C 
BRANCH   4   3
ATOM      3  O   UNL     1      45.438  21.893  18.929  0.00  0.00    -0.355 OA
BRANCH   3   2
ATOM      1  C   UNL     1      45.421  23.418  20.871  0.00  0.00    +0.156 C 
ATOM      2  C   UNL     1      44.728  22.671  19.760  0.00  0.00    +0.458 C 
ATOM     26  O   UNL     1      43.532  22.773  19.618  0.00  0.00    -0.513 OA
ENDBRANCH   3   2
ENDBRANCH   4   3
ENDBRANCH   5   4
ENDBRANCH   6   5
ENDBRANCH   7   6
ENDBRANCH   8   7
ENDBRANCH   9   8
ENDBRANCH  10   9
ENDBRANCH  11  10
ENDBRANCH  12  11
TORSDOF 17
ENDMDL
MODEL 7
REMARK VINA RESULT:      -4.3      1.693      6.077
REMARK  Name = ZINC95486060
REMARK  19 active torsions:
REMARK  status: ('A' for Active; 'I' for Inactive)
REMARK    1  A    between atoms: C1_1  and  C2_2
REMARK    2  A    between atoms: C2_2  and  O2_4
REMARK    3  A    between atoms: O2_4  and  C3_5
REMARK    4  A    between atoms: C3_5  and  C4_6
REMARK    5  A    between atoms: C4_6  and  C5_7
REMARK    6  A    between atoms: C5_7  and  C6_8
REMARK    7  A    between atoms: C6_8  and  C7_9
REMARK    8  A    between atoms: C7_9  and  C8_10
REMARK    9  A    between atoms: C8_10  and  C9_11
REMARK   10  A    between atoms: C9_11  and  C10_12
REMARK   11  A    between atoms: C10_12  and  C11_13
REMARK   12  A    between atoms: C11_13  and  C12_15
REMARK   13  A    between atoms: C11_13  and  O5_27
REMARK   14  A    between atoms: C13_16  and  C14_17
REMARK   15  A    between atoms: C15_18  and  C16_19
REMARK   16  A    between atoms: C16_19  and  C17_21
REMARK   17  A    between atoms: C16_19  and  O3_23
REMARK   18  A    between atoms: O3_23  and  C19_24
REMARK   19  A    between atoms: C19_24  and  C20_26
REMARK                            x       y       z     vdW  Elec       q    Type
REMARK                         _______ _______ _______ _____ _____    ______ ____
ROOT
ATOM     12  C   UNL     1      44.290  20.834  19.544  0.00  0.00    +0.350 C 
ENDROOT
BRANCH  12  13
ATOM     13  O   UNL     1      43.660  20.246  18.404  0.00  0.00    -0.544 OA
ATOM     14  H   UNL     1      44.226  20.202  17.621  0.00  0.00    +0.382 HD
ENDBRANCH  12  13
BRANCH  12  15
ATOM     15  C   UNL     1      45.750  20.826  19.357  0.00  0.00    -0.146 C 
ATOM     16  C   UNL     1      46.914  20.818  19.208  0.00  0.00    -0.063 C 
BRANCH  16  17
ATOM     17  C   UNL     1      48.279  20.809  19.033  0.00  0.00    -0.037 C 
ATOM     18  C   UNL     1      49.444  20.802  18.884  0.00  0.00    -0.120 C 
BRANCH  18  19
ATOM     19  C   UNL     1      50.904  20.794  18.697  0.00  0.00    +0.360 C 
BRANCH  19  24
ATOM     24  C   UNL     1      51.584  20.967  20.031  0.00  0.00    -0.047 C 
ATOM     25  C   UNL     1      52.598  21.787  20.148  0.00  0.00    +0.053 C 
ENDBRANCH  19  24
BRANCH  19  20
ATOM     20  O   UNL     1      51.303  19.550  18.116  0.00  0.00    -0.341 OA
BRANCH  20  21
ATOM     21  C   UNL     1      51.726  19.580  16.843  0.00  0.00    +0.461 C 
ATOM     22  C   UNL     1      51.972  20.903  16.163  0.00  0.00    +0.166 C 
ATOM     23  O   UNL     1      51.911  18.549  16.243  0.00  0.00    -0.502 OA
ENDBRANCH  20  21
ENDBRANCH  19  20
ENDBRANCH  18  19
ENDBRANCH  16  17
ENDBRANCH  12  15
BRANCH  12  11
ATOM     11  C   UNL     1      43.931  20.032  20.796  0.00  0.00    +0.004 C 
BRANCH  11  10
ATOM     10  C   UNL     1      43.346  18.679  20.383  0.00  0.00    +0.021 C 
BRANCH  10   9
ATOM      9  C   UNL     1      44.148  17.554  21.042  0.00  0.00    +0.003 C 
BRANCH   9   8
ATOM      8  C   UNL     1      45.040  16.883  19.997  0.00  0.00    +0.005 C 
BRANCH   8   7
ATOM      7  C   UNL     1      46.502  17.249  20.263  0.00  0.00    +0.008 C 
BRANCH   7   6
ATOM      6  C   UNL     1      47.312  17.083  18.976  0.00  0.00    +0.014 C 
BRANCH   6   5
ATOM      5  C   UNL     1      46.426  17.403  17.771  0.00  0.00    +0.030 C 
BRANCH   5   4
ATOM      4  C   UNL     1      46.540  16.276  16.742  0.00  0.00    +0.199 C 
BRANCH   4   3
ATOM      3  O   UNL     1      47.115  15.123  17.359  0.00  0.00    -0.355 OA
BRANCH   3   2
ATOM      1  C   UNL     1      49.382  14.314  16.808  0.00  0.00    +0.156 C 
ATOM      2  C   UNL     1      47.891  14.343  16.590  0.00  0.00    +0.458 C 
ATOM     26  O   UNL     1      47.394  13.663  15.723  0.00  0.00    -0.513 OA
ENDBRANCH   3   2
ENDBRANCH   4   3
ENDBRANCH   5   4
ENDBRANCH   6   5
ENDBRANCH   7   6
ENDBRANCH   8   7
ENDBRANCH   9   8
ENDBRANCH  10   9
ENDBRANCH  11  10
ENDBRANCH  12  11
TORSDOF 17
ENDMDL
MODEL 8
REMARK VINA RESULT:      -4.3      1.771      2.506
REMARK  Name = ZINC95486060
REMARK  19 active torsions:
REMARK  status: ('A' for Active; 'I' for Inactive)
REMARK    1  A    between atoms: C1_1  and  C2_2
REMARK    2  A    between atoms: C2_2  and  O2_4
REMARK    3  A    between atoms: O2_4  and  C3_5
REMARK    4  A    between atoms: C3_5  and  C4_6
REMARK    5  A    between atoms: C4_6  and  C5_7
REMARK    6  A    between atoms: C5_7  and  C6_8
REMARK    7  A    between atoms: C6_8  and  C7_9
REMARK    8  A    between atoms: C7_9  and  C8_10
REMARK    9  A    between atoms: C8_10  and  C9_11
REMARK   10  A    between atoms: C9_11  and  C10_12
REMARK   11  A    between atoms: C10_12  and  C11_13
REMARK   12  A    between atoms: C11_13  and  C12_15
REMARK   13  A    between atoms: C11_13  and  O5_27
REMARK   14  A    between atoms: C13_16  and  C14_17
REMARK   15  A    between atoms: C15_18  and  C16_19
REMARK   16  A    between atoms: C16_19  and  C17_21
REMARK   17  A    between atoms: C16_19  and  O3_23
REMARK   18  A    between atoms: O3_23  and  C19_24
REMARK   19  A    between atoms: C19_24  and  C20_26
REMARK                            x       y       z     vdW  Elec       q    Type
REMARK                         _______ _______ _______ _____ _____    ______ ____
ROOT
ATOM     12  C   UNL     1      50.855  21.110  18.741  0.00  0.00    +0.350 C 
ENDROOT
BRANCH  12  13
ATOM     13  O   UNL     1      51.631  20.144  19.451  0.00  0.00    -0.544 OA
ATOM     14  H   UNL     1      51.184  19.295  19.577  0.00  0.00    +0.382 HD
ENDBRANCH  12  13
BRANCH  12  15
ATOM     15  C   UNL     1      49.423  20.828  18.934  0.00  0.00    -0.146 C 
ATOM     16  C   UNL     1      48.282  20.603  19.088  0.00  0.00    -0.063 C 
BRANCH  16  17
ATOM     17  C   UNL     1      46.943  20.339  19.269  0.00  0.00    -0.037 C 
ATOM     18  C   UNL     1      45.800  20.115  19.423  0.00  0.00    -0.120 C 
BRANCH  18  19
ATOM     19  C   UNL     1      44.369  19.833  19.617  0.00  0.00    +0.360 C 
BRANCH  19  24
ATOM     24  C   UNL     1      44.142  19.317  21.014  0.00  0.00    -0.047 C 
ATOM     25  C   UNL     1      43.436  18.230  21.204  0.00  0.00    +0.053 C 
ENDBRANCH  19  24
BRANCH  19  20
ATOM     20  O   UNL     1      43.617  21.034  19.424  0.00  0.00    -0.341 OA
BRANCH  20  21
ATOM     21  C   UNL     1      42.433  20.917  18.802  0.00  0.00    +0.461 C 
ATOM     22  C   UNL     1      41.437  22.047  18.864  0.00  0.00    +0.166 C 
ATOM     23  O   UNL     1      42.167  19.909  18.194  0.00  0.00    -0.502 OA
ENDBRANCH  20  21
ENDBRANCH  19  20
ENDBRANCH  18  19
ENDBRANCH  16  17
ENDBRANCH  12  15
BRANCH  12  11
ATOM     11  C   UNL     1      51.193  21.040  17.251  0.00  0.00    +0.004 C 
BRANCH  11  10
ATOM     10  C   UNL     1      52.194  19.907  17.008  0.00  0.00    +0.021 C 
BRANCH  10   9
ATOM      9  C   UNL     1      51.609  18.916  16.000  0.00  0.00    +0.003 C 
BRANCH   9   8
ATOM      8  C   UNL     1      50.571  18.033  16.695  0.00  0.00    +0.005 C 
BRANCH   8   7
ATOM      7  C   UNL     1      51.281  16.893  17.429  0.00  0.00    +0.008 C 
BRANCH   7   6
ATOM      6  C   UNL     1      50.288  16.184  18.352  0.00  0.00    +0.014 C 
BRANCH   6   5
ATOM      5  C   UNL     1      49.752  17.179  19.383  0.00  0.00    +0.030 C 
BRANCH   5   4
ATOM      4  C   UNL     1      48.386  16.705  19.886  0.00  0.00    +0.199 C 
BRANCH   4   3
ATOM      3  O   UNL     1      47.706  16.013  18.837  0.00  0.00    -0.355 OA
BRANCH   3   2
ATOM      1  C   UNL     1      46.839  17.381  16.972  0.00  0.00    +0.156 C 
ATOM      2  C   UNL     1      46.661  16.638  18.271  0.00  0.00    +0.458 C 
ATOM     26  O   UNL     1      45.577  16.605  18.805  0.00  0.00    -0.513 OA
ENDBRANCH   3   2
ENDBRANCH   4   3
ENDBRANCH   5   4
ENDBRANCH   6   5
ENDBRANCH   7   6
ENDBRANCH   8   7
ENDBRANCH   9   8
ENDBRANCH  10   9
ENDBRANCH  11  10
ENDBRANCH  12  11
TORSDOF 17
ENDMDL
MODEL 9
REMARK VINA RESULT:      -4.2      1.733      5.691
REMARK  Name = ZINC95486060
REMARK  19 active torsions:
REMARK  status: ('A' for Active; 'I' for Inactive)
REMARK    1  A    between atoms: C1_1  and  C2_2
REMARK    2  A    between atoms: C2_2  and  O2_4
REMARK    3  A    between atoms: O2_4  and  C3_5
REMARK    4  A    between atoms: C3_5  and  C4_6
REMARK    5  A    between atoms: C4_6  and  C5_7
REMARK    6  A    between atoms: C5_7  and  C6_8
REMARK    7  A    between atoms: C6_8  and  C7_9
REMARK    8  A    between atoms: C7_9  and  C8_10
REMARK    9  A    between atoms: C8_10  and  C9_11
REMARK   10  A    between atoms: C9_11  and  C10_12
REMARK   11  A    between atoms: C10_12  and  C11_13
REMARK   12  A    between atoms: C11_13  and  C12_15
REMARK   13  A    between atoms: C11_13  and  O5_27
REMARK   14  A    between atoms: C13_16  and  C14_17
REMARK   15  A    between atoms: C15_18  and  C16_19
REMARK   16  A    between atoms: C16_19  and  C17_21
REMARK   17  A    between atoms: C16_19  and  O3_23
REMARK   18  A    between atoms: O3_23  and  C19_24
REMARK   19  A    between atoms: C19_24  and  C20_26
REMARK                            x       y       z     vdW  Elec       q    Type
REMARK                         _______ _______ _______ _____ _____    ______ ____
ROOT
ATOM     12  C   UNL     1      51.822  19.840  16.639  0.00  0.00    +0.350 C 
ENDROOT
BRANCH  12  13
ATOM     13  O   UNL     1      52.004  20.049  15.237  0.00  0.00    -0.544 OA
ATOM     14  H   UNL     1      51.773  20.940  14.939  0.00  0.00    +0.382 HD
ENDBRANCH  12  13
BRANCH  12  15
ATOM     15  C   UNL     1      50.836  18.766  16.851  0.00  0.00    -0.146 C 
ATOM     16  C   UNL     1      50.050  17.912  17.020  0.00  0.00    -0.063 C 
BRANCH  16  17
ATOM     17  C   UNL     1      49.128  16.909  17.219  0.00  0.00    -0.037 C 
ATOM     18  C   UNL     1      48.342  16.053  17.388  0.00  0.00    -0.120 C 
BRANCH  18  19
ATOM     19  C   UNL     1      47.356  14.981  17.601  0.00  0.00    +0.360 C 
BRANCH  19  24
ATOM     24  C   UNL     1      46.176  15.526  18.363  0.00  0.00    -0.047 C 
ATOM     25  C   UNL     1      46.286  15.784  19.642  0.00  0.00    +0.053 C 
ENDBRANCH  19  24
BRANCH  19  20
ATOM     20  O   UNL     1      46.916  14.480  16.336  0.00  0.00    -0.341 OA
BRANCH  20  21
ATOM     21  C   UNL     1      47.337  13.254  15.988  0.00  0.00    +0.461 C 
ATOM     22  C   UNL     1      46.648  12.035  16.547  0.00  0.00    +0.166 C 
ATOM     23  O   UNL     1      48.266  13.127  15.226  0.00  0.00    -0.502 OA
ENDBRANCH  20  21
ENDBRANCH  19  20
ENDBRANCH  18  19
ENDBRANCH  16  17
ENDBRANCH  12  15
BRANCH  12  11
ATOM     11  C   UNL     1      51.317  21.130  17.285  0.00  0.00    +0.004 C 
BRANCH  11  10
ATOM     10  C   UNL     1      51.224  20.939  18.801  0.00  0.00    +0.021 C 
BRANCH  10   9
ATOM      9  C   UNL     1      49.755  20.947  19.227  0.00  0.00    +0.003 C 
BRANCH   9   8
ATOM      8  C   UNL     1      49.498  19.792  20.197  0.00  0.00    +0.005 C 
BRANCH   8   7
ATOM      7  C   UNL     1      48.088  19.242  19.974  0.00  0.00    +0.008 C 
BRANCH   7   6
ATOM      6  C   UNL     1      47.367  20.097  18.930  0.00  0.00    +0.014 C 
BRANCH   6   5
ATOM      5  C   UNL     1      46.213  19.296  18.325  0.00  0.00    +0.030 C 
BRANCH   5   4
ATOM      4  C   UNL     1      44.891  19.765  18.937  0.00  0.00    +0.199 C 
BRANCH   4   3
ATOM      3  O   UNL     1      44.097  18.628  19.285  0.00  0.00    -0.355 OA
BRANCH   3   2
ATOM      1  C   UNL     1      43.906  17.811  21.607  0.00  0.00    +0.156 C 
ATOM      2  C   UNL     1      43.449  18.674  20.459  0.00  0.00    +0.458 C 
ATOM     26  O   UNL     1      42.498  19.408  20.597  0.00  0.00    -0.513 OA
ENDBRANCH   3   2
ENDBRANCH   4   3
ENDBRANCH   5   4
ENDBRANCH   6   5
ENDBRANCH   7   6
ENDBRANCH   8   7
ENDBRANCH   9   8
ENDBRANCH  10   9
ENDBRANCH  11  10
ENDBRANCH  12  11
TORSDOF 17
ENDMDL
