MODEL 1
REMARK VINA RESULT:      -6.4      0.000      0.000
REMARK  Name = ZINC95485947
REMARK  14 active torsions:
REMARK  status: ('A' for Active; 'I' for Inactive)
REMARK    1  A    between atoms: C1_1  and  O1_2
REMARK    2  A    between atoms: O1_2  and  C2_3
REMARK    3  A    between atoms: C4_5  and  O11_40
REMARK    4  A    between atoms: C9_11  and  C11_14
REMARK    5  A    between atoms: C13_16  and  C19_24
REMARK    6  A    between atoms: C14_17  and  O5_22
REMARK    7  A    between atoms: C15_18  and  O4_20
REMARK    8  A    between atoms: O4_20  and  C17_21
REMARK    9  A    between atoms: O5_22  and  C18_23
REMARK   10  A    between atoms: C20_26  and  O10_39
REMARK   11  A    between atoms: C21_28  and  O9_38
REMARK   12  A    between atoms: C22_30  and  O8_37
REMARK   13  A    between atoms: C23_32  and  C24_35
REMARK   14  A    between atoms: C24_35  and  O7_36
REMARK                            x       y       z     vdW  Elec       q    Type
REMARK                         _______ _______ _______ _____ _____    ______ ____
ROOT
ATOM     13  C   UNL     1      47.005  17.669  19.314  0.00  0.00    +0.002 A 
ATOM     14  C   UNL     1      48.241  18.311  19.278  0.00  0.00    +0.029 A 
ATOM     15  C   UNL     1      49.403  17.569  19.223  0.00  0.00    -0.054 A 
ATOM     31  C   UNL     1      49.345  16.184  19.204  0.00  0.00    +0.101 A 
ATOM     34  C   UNL     1      48.112  15.537  19.241  0.00  0.00    +0.107 A 
ATOM     37  C   UNL     1      46.945  16.276  19.302  0.00  0.00    -0.024 A 
ENDROOT
BRANCH  13  12
ATOM      3  C   UNL     1      41.010  20.097  19.853  0.00  0.00    +0.209 A 
ATOM      4  C   UNL     1      41.166  19.199  20.905  0.00  0.00    -0.117 A 
ATOM      5  C   UNL     1      42.394  18.603  21.129  0.00  0.00    +0.241 A 
ATOM      8  C   UNL     1      43.472  18.909  20.290  0.00  0.00    -0.286 A 
ATOM      9  C   UNL     1      43.315  19.823  19.232  0.00  0.00    +0.197 A 
ATOM     10  O   UNL     1      44.360  20.129  18.437  0.00  0.00    -0.213 OA
ATOM     11  C   UNL     1      45.466  19.382  18.412  0.00  0.00    +0.328 A 
ATOM     12  C   UNL     1      45.756  18.466  19.373  0.00  0.00    -0.236 A 
ATOM     38  C   UNL     1      44.793  18.288  20.478  0.00  0.00    +0.432 A 
ATOM     39  O   UNL     1      45.076  17.664  21.487  0.00  0.00    -0.434 OA
ATOM     40  C   UNL     1      42.073  20.404  19.019  0.00  0.00    -0.034 A 
BRANCH   3   2
ATOM      1  C   UNL     1      39.655  21.457  18.453  0.00  0.00    +0.256 C 
ATOM      2  O   UNL     1      39.800  20.674  19.640  0.00  0.00    -0.303 OA
ENDBRANCH   3   2
BRANCH   5   6
ATOM      6  O   UNL     1      42.552  17.728  22.155  0.00  0.00    -0.474 OA
ATOM      7  H   UNL     1      43.471  17.619  22.439  0.00  0.00    +0.403 HD
ENDBRANCH   5   6
ENDBRANCH  13  12
BRANCH  15  16
ATOM     16  C   UNL     1      50.740  18.265  19.182  0.00  0.00    +0.234 C 
ATOM     17  C   UNL     1      50.807  19.306  20.303  0.00  0.00    +0.173 C 
ATOM     20  C   UNL     1      52.143  20.051  20.218  0.00  0.00    +0.118 C 
ATOM     23  C   UNL     1      52.274  20.683  18.829  0.00  0.00    +0.129 C 
ATOM     26  C   UNL     1      52.150  19.590  17.765  0.00  0.00    +0.179 C 
ATOM     30  O   UNL     1      50.899  18.916  17.919  0.00  0.00    -0.341 OA
BRANCH  17  18
ATOM     18  O   UNL     1      50.705  18.651  21.569  0.00  0.00    -0.546 OA
ATOM     19  H   UNL     1      51.208  17.827  21.628  0.00  0.00    +0.388 HD
ENDBRANCH  17  18
BRANCH  20  21
ATOM     21  O   UNL     1      52.185  21.072  21.216  0.00  0.00    -0.558 OA
ATOM     22  H   UNL     1      51.488  21.737  21.128  0.00  0.00    +0.383 HD
ENDBRANCH  20  21
BRANCH  23  24
ATOM     24  O   UNL     1      53.548  21.321  18.712  0.00  0.00    -0.552 OA
ATOM     25  H   UNL     1      54.214  20.790  18.253  0.00  0.00    +0.382 HD
ENDBRANCH  23  24
BRANCH  26  27
ATOM     27  C   UNL     1      52.220  20.221  16.373  0.00  0.00    +0.218 C 
BRANCH  27  28
ATOM     28  O   UNL     1      51.709  21.553  16.427  0.00  0.00    -0.564 OA
ATOM     29  H   UNL     1      51.319  21.790  17.280  0.00  0.00    +0.383 HD
ENDBRANCH  27  28
ENDBRANCH  26  27
ENDBRANCH  15  16
BRANCH  31  32
ATOM     32  O   UNL     1      50.492  15.456  19.149  0.00  0.00    -0.326 OA
ATOM     33  C   UNL     1      50.954  15.072  17.853  0.00  0.00    +0.232 C 
ENDBRANCH  31  32
BRANCH  34  35
ATOM     35  O   UNL     1      48.057  14.178  19.222  0.00  0.00    -0.305 OA
ATOM     36  C   UNL     1      47.388  13.571  18.114  0.00  0.00    +0.241 C 
ENDBRANCH  34  35
TORSDOF 11
ENDMDL
MODEL 2
REMARK VINA RESULT:      -6.0      2.372      8.640
REMARK  Name = ZINC95485947
REMARK  14 active torsions:
REMARK  status: ('A' for Active; 'I' for Inactive)
REMARK    1  A    between atoms: C1_1  and  O1_2
REMARK    2  A    between atoms: O1_2  and  C2_3
REMARK    3  A    between atoms: C4_5  and  O11_40
REMARK    4  A    between atoms: C9_11  and  C11_14
REMARK    5  A    between atoms: C13_16  and  C19_24
REMARK    6  A    between atoms: C14_17  and  O5_22
REMARK    7  A    between atoms: C15_18  and  O4_20
REMARK    8  A    between atoms: O4_20  and  C17_21
REMARK    9  A    between atoms: O5_22  and  C18_23
REMARK   10  A    between atoms: C20_26  and  O10_39
REMARK   11  A    between atoms: C21_28  and  O9_38
REMARK   12  A    between atoms: C22_30  and  O8_37
REMARK   13  A    between atoms: C23_32  and  C24_35
REMARK   14  A    between atoms: C24_35  and  O7_36
REMARK                            x       y       z     vdW  Elec       q    Type
REMARK                         _______ _______ _______ _____ _____    ______ ____
ROOT
ATOM     13  C   UNL     1      47.424  17.894  18.439  0.00  0.00    +0.002 A 
ATOM     14  C   UNL     1      46.188  18.235  18.986  0.00  0.00    +0.029 A 
ATOM     15  C   UNL     1      46.019  19.460  19.599  0.00  0.00    -0.054 A 
ATOM     31  C   UNL     1      47.077  20.353  19.674  0.00  0.00    +0.101 A 
ATOM     34  C   UNL     1      48.314  20.017  19.130  0.00  0.00    +0.107 A 
ATOM     37  C   UNL     1      48.490  18.788  18.520  0.00  0.00    -0.024 A 
ENDROOT
BRANCH  13  12
ATOM      3  C   UNL     1      49.280  12.601  15.173  0.00  0.00    +0.209 A 
ATOM      4  C   UNL     1      50.411  13.072  15.834  0.00  0.00    -0.117 A 
ATOM      5  C   UNL     1      50.306  14.132  16.716  0.00  0.00    +0.241 A 
ATOM      8  C   UNL     1      49.057  14.725  16.935  0.00  0.00    -0.286 A 
ATOM      9  C   UNL     1      47.913  14.244  16.272  0.00  0.00    +0.197 A 
ATOM     10  O   UNL     1      46.709  14.805  16.499  0.00  0.00    -0.213 OA
ATOM     11  C   UNL     1      46.589  15.995  17.094  0.00  0.00    +0.328 A 
ATOM     12  C   UNL     1      47.606  16.578  17.780  0.00  0.00    -0.236 A 
ATOM     38  C   UNL     1      48.897  15.865  17.852  0.00  0.00    +0.432 A 
ATOM     39  O   UNL     1      49.778  16.201  18.625  0.00  0.00    -0.434 OA
ATOM     40  C   UNL     1      48.041  13.184  15.385  0.00  0.00    -0.034 A 
BRANCH   3   2
ATOM      1  C   UNL     1      50.713  11.220  13.874  0.00  0.00    +0.256 C 
ATOM      2  O   UNL     1      49.394  11.563  14.307  0.00  0.00    -0.303 OA
ENDBRANCH   3   2
BRANCH   5   6
ATOM      6  O   UNL     1      51.404  14.592  17.366  0.00  0.00    -0.474 OA
ATOM      7  H   UNL     1      51.842  15.333  16.922  0.00  0.00    +0.403 HD
ENDBRANCH   5   6
ENDBRANCH  13  12
BRANCH  15  16
ATOM     16  C   UNL     1      44.682  19.828  20.188  0.00  0.00    +0.234 C 
ATOM     17  C   UNL     1      44.216  18.715  21.131  0.00  0.00    +0.173 C 
ATOM     20  C   UNL     1      42.830  19.068  21.679  0.00  0.00    +0.118 C 
ATOM     23  C   UNL     1      41.867  19.276  20.505  0.00  0.00    +0.129 C 
ATOM     26  C   UNL     1      42.424  20.367  19.587  0.00  0.00    +0.179 C 
ATOM     30  O   UNL     1      43.727  19.991  19.137  0.00  0.00    -0.341 OA
BRANCH  17  18
ATOM     18  O   UNL     1      45.140  18.589  22.214  0.00  0.00    -0.546 OA
ATOM     19  H   UNL     1      45.268  19.404  22.720  0.00  0.00    +0.388 HD
ENDBRANCH  17  18
BRANCH  20  21
ATOM     21  O   UNL     1      42.356  18.002  22.505  0.00  0.00    -0.558 OA
ATOM     22  H   UNL     1      43.060  17.455  22.882  0.00  0.00    +0.383 HD
ENDBRANCH  20  21
BRANCH  23  24
ATOM     24  O   UNL     1      40.588  19.676  21.002  0.00  0.00    -0.552 OA
ATOM     25  H   UNL     1      39.910  18.988  20.942  0.00  0.00    +0.382 HD
ENDBRANCH  23  24
BRANCH  26  27
ATOM     27  C   UNL     1      41.498  20.540  18.380  0.00  0.00    +0.218 C 
BRANCH  27  28
ATOM     28  O   UNL     1      40.502  21.518  18.680  0.00  0.00    -0.564 OA
ATOM     29  H   UNL     1      40.151  21.459  19.580  0.00  0.00    +0.383 HD
ENDBRANCH  27  28
ENDBRANCH  26  27
ENDBRANCH  15  16
BRANCH  31  32
ATOM     32  O   UNL     1      46.907  21.559  20.278  0.00  0.00    -0.326 OA
ATOM     33  C   UNL     1      47.286  21.655  21.653  0.00  0.00    +0.232 C 
ENDBRANCH  31  32
BRANCH  34  35
ATOM     35  O   UNL     1      49.351  20.895  19.204  0.00  0.00    -0.305 OA
ATOM     36  C   UNL     1      50.413  20.725  18.263  0.00  0.00    +0.241 C 
ENDBRANCH  34  35
TORSDOF 11
ENDMDL
MODEL 3
REMARK VINA RESULT:      -5.8      2.009      5.443
REMARK  Name = ZINC95485947
REMARK  14 active torsions:
REMARK  status: ('A' for Active; 'I' for Inactive)
REMARK    1  A    between atoms: C1_1  and  O1_2
REMARK    2  A    between atoms: O1_2  and  C2_3
REMARK    3  A    between atoms: C4_5  and  O11_40
REMARK    4  A    between atoms: C9_11  and  C11_14
REMARK    5  A    between atoms: C13_16  and  C19_24
REMARK    6  A    between atoms: C14_17  and  O5_22
REMARK    7  A    between atoms: C15_18  and  O4_20
REMARK    8  A    between atoms: O4_20  and  C17_21
REMARK    9  A    between atoms: O5_22  and  C18_23
REMARK   10  A    between atoms: C20_26  and  O10_39
REMARK   11  A    between atoms: C21_28  and  O9_38
REMARK   12  A    between atoms: C22_30  and  O8_37
REMARK   13  A    between atoms: C23_32  and  C24_35
REMARK   14  A    between atoms: C24_35  and  O7_36
REMARK                            x       y       z     vdW  Elec       q    Type
REMARK                         _______ _______ _______ _____ _____    ______ ____
ROOT
ATOM     13  C   UNL     1      47.056  17.467  19.431  0.00  0.00    +0.002 A 
ATOM     14  C   UNL     1      47.068  16.246  18.759  0.00  0.00    +0.029 A 
ATOM     15  C   UNL     1      48.210  15.473  18.751  0.00  0.00    -0.054 A 
ATOM     31  C   UNL     1      49.350  15.907  19.410  0.00  0.00    +0.101 A 
ATOM     34  C   UNL     1      49.344  17.126  20.084  0.00  0.00    +0.107 A 
ATOM     37  C   UNL     1      48.203  17.908  20.089  0.00  0.00    -0.024 A 
ENDROOT
BRANCH  13  12
ATOM      3  C   UNL     1      41.117  20.064  19.755  0.00  0.00    +0.209 A 
ATOM      4  C   UNL     1      41.220  19.183  20.828  0.00  0.00    -0.117 A 
ATOM      5  C   UNL     1      42.424  18.559  21.097  0.00  0.00    +0.241 A 
ATOM      8  C   UNL     1      43.533  18.819  20.283  0.00  0.00    -0.286 A 
ATOM      9  C   UNL     1      43.430  19.716  19.204  0.00  0.00    +0.197 A 
ATOM     10  O   UNL     1      44.504  19.979  18.434  0.00  0.00    -0.213 OA
ATOM     11  C   UNL     1      45.590  19.202  18.454  0.00  0.00    +0.328 A 
ATOM     12  C   UNL     1      45.828  18.299  19.440  0.00  0.00    -0.236 A 
ATOM     38  C   UNL     1      44.832  18.168  20.520  0.00  0.00    +0.432 A 
ATOM     39  O   UNL     1      45.069  17.557  21.549  0.00  0.00    -0.434 OA
ATOM     40  C   UNL     1      42.210  20.326  18.946  0.00  0.00    -0.034 A 
BRANCH   3   2
ATOM      1  C   UNL     1      39.880  21.546  18.371  0.00  0.00    +0.256 C 
ATOM      2  O   UNL     1      39.930  20.668  19.497  0.00  0.00    -0.303 OA
ENDBRANCH   3   2
BRANCH   5   6
ATOM      6  O   UNL     1      42.531  17.701  22.144  0.00  0.00    -0.474 OA
ATOM      7  H   UNL     1      43.118  18.011  22.848  0.00  0.00    +0.403 HD
ENDBRANCH   5   6
ENDBRANCH  13  12
BRANCH  15  16
ATOM     16  C   UNL     1      48.220  14.153  18.024  0.00  0.00    +0.234 C 
ATOM     17  C   UNL     1      48.713  14.364  16.590  0.00  0.00    +0.173 C 
ATOM     20  C   UNL     1      48.663  13.029  15.840  0.00  0.00    +0.118 C 
ATOM     23  C   UNL     1      47.233  12.482  15.889  0.00  0.00    +0.129 C 
ATOM     26  C   UNL     1      46.798  12.344  17.349  0.00  0.00    +0.179 C 
ATOM     30  O   UNL     1      46.897  13.614  17.997  0.00  0.00    -0.341 OA
BRANCH  17  18
ATOM     18  O   UNL     1      50.057  14.848  16.613  0.00  0.00    -0.546 OA
ATOM     19  H   UNL     1      50.590  14.569  15.856  0.00  0.00    +0.388 HD
ENDBRANCH  17  18
BRANCH  20  21
ATOM     21  O   UNL     1      49.054  13.230  14.480  0.00  0.00    -0.558 OA
ATOM     22  H   UNL     1      49.599  12.517  14.118  0.00  0.00    +0.383 HD
ENDBRANCH  20  21
BRANCH  23  24
ATOM     24  O   UNL     1      47.189  11.202  15.253  0.00  0.00    -0.552 OA
ATOM     25  H   UNL     1      47.575  11.190  14.366  0.00  0.00    +0.382 HD
ENDBRANCH  23  24
BRANCH  26  27
ATOM     27  C   UNL     1      45.349  11.854  17.406  0.00  0.00    +0.218 C 
BRANCH  27  28
ATOM     28  O   UNL     1      44.750  11.985  16.116  0.00  0.00    -0.564 OA
ATOM     29  H   UNL     1      44.943  12.825  15.676  0.00  0.00    +0.383 HD
ENDBRANCH  27  28
ENDBRANCH  26  27
ENDBRANCH  15  16
BRANCH  31  32
ATOM     32  O   UNL     1      50.474  15.142  19.401  0.00  0.00    -0.326 OA
ATOM     33  C   UNL     1      50.685  14.288  20.527  0.00  0.00    +0.232 C 
ENDBRANCH  31  32
BRANCH  34  35
ATOM     35  O   UNL     1      50.463  17.551  20.731  0.00  0.00    -0.305 OA
ATOM     36  C   UNL     1      51.245  18.556  20.083  0.00  0.00    +0.241 C 
ENDBRANCH  34  35
TORSDOF 11
ENDMDL
MODEL 4
REMARK VINA RESULT:      -5.8      3.572      8.456
REMARK  Name = ZINC95485947
REMARK  14 active torsions:
REMARK  status: ('A' for Active; 'I' for Inactive)
REMARK    1  A    between atoms: C1_1  and  O1_2
REMARK    2  A    between atoms: O1_2  and  C2_3
REMARK    3  A    between atoms: C4_5  and  O11_40
REMARK    4  A    between atoms: C9_11  and  C11_14
REMARK    5  A    between atoms: C13_16  and  C19_24
REMARK    6  A    between atoms: C14_17  and  O5_22
REMARK    7  A    between atoms: C15_18  and  O4_20
REMARK    8  A    between atoms: O4_20  and  C17_21
REMARK    9  A    between atoms: O5_22  and  C18_23
REMARK   10  A    between atoms: C20_26  and  O10_39
REMARK   11  A    between atoms: C21_28  and  O9_38
REMARK   12  A    between atoms: C22_30  and  O8_37
REMARK   13  A    between atoms: C23_32  and  C24_35
REMARK   14  A    between atoms: C24_35  and  O7_36
REMARK                            x       y       z     vdW  Elec       q    Type
REMARK                         _______ _______ _______ _____ _____    ______ ____
ROOT
ATOM     13  C   UNL     1      46.222  15.459  18.928  0.00  0.00    +0.002 A 
ATOM     14  C   UNL     1      45.837  16.755  18.590  0.00  0.00    +0.029 A 
ATOM     15  C   UNL     1      45.130  17.523  19.492  0.00  0.00    -0.054 A 
ATOM     31  C   UNL     1      44.801  17.008  20.737  0.00  0.00    +0.101 A 
ATOM     34  C   UNL     1      45.184  15.714  21.081  0.00  0.00    +0.107 A 
ATOM     37  C   UNL     1      45.887  14.938  20.177  0.00  0.00    -0.024 A 
ENDROOT
BRANCH  13  12
ATOM      3  C   UNL     1      50.220  12.852  14.529  0.00  0.00    +0.209 A 
ATOM      4  C   UNL     1      51.015  13.611  15.382  0.00  0.00    -0.117 A 
ATOM      5  C   UNL     1      50.461  14.200  16.504  0.00  0.00    +0.241 A 
ATOM      8  C   UNL     1      49.097  14.028  16.770  0.00  0.00    -0.286 A 
ATOM      9  C   UNL     1      48.295  13.253  15.912  0.00  0.00    +0.197 A 
ATOM     10  O   UNL     1      46.987  13.074  16.182  0.00  0.00    -0.213 OA
ATOM     11  C   UNL     1      46.339  13.842  17.061  0.00  0.00    +0.328 A 
ATOM     12  C   UNL     1      46.982  14.633  17.958  0.00  0.00    -0.236 A 
ATOM     38  C   UNL     1      48.458  14.648  17.943  0.00  0.00    +0.432 A 
ATOM     39  O   UNL     1      49.109  15.144  18.847  0.00  0.00    -0.434 OA
ATOM     40  C   UNL     1      48.870  12.677  14.787  0.00  0.00    -0.034 A 
BRANCH   3   2
ATOM      1  C   UNL     1      50.891  13.098  12.264  0.00  0.00    +0.256 C 
ATOM      2  O   UNL     1      50.772  12.280  13.430  0.00  0.00    -0.303 OA
ENDBRANCH   3   2
BRANCH   5   6
ATOM      6  O   UNL     1      51.233  14.940  17.340  0.00  0.00    -0.474 OA
ATOM      7  H   UNL     1      52.016  14.475  17.666  0.00  0.00    +0.403 HD
ENDBRANCH   5   6
ENDBRANCH  13  12
BRANCH  15  16
ATOM     16  C   UNL     1      44.714  18.924  19.125  0.00  0.00    +0.234 C 
ATOM     17  C   UNL     1      45.319  19.913  20.125  0.00  0.00    +0.173 C 
ATOM     20  C   UNL     1      44.843  21.329  19.782  0.00  0.00    +0.118 C 
ATOM     23  C   UNL     1      43.312  21.357  19.789  0.00  0.00    +0.129 C 
ATOM     26  C   UNL     1      42.786  20.312  18.802  0.00  0.00    +0.179 C 
ATOM     30  O   UNL     1      43.289  19.023  19.160  0.00  0.00    -0.341 OA
BRANCH  17  18
ATOM     18  O   UNL     1      46.744  19.857  20.051  0.00  0.00    -0.546 OA
ATOM     19  H   UNL     1      47.184  19.862  20.913  0.00  0.00    +0.388 HD
ENDBRANCH  17  18
BRANCH  20  21
ATOM     21  O   UNL     1      45.345  22.250  20.752  0.00  0.00    -0.558 OA
ATOM     22  H   UNL     1      46.163  21.963  21.181  0.00  0.00    +0.383 HD
ENDBRANCH  20  21
BRANCH  23  24
ATOM     24  O   UNL     1      42.856  22.655  19.400  0.00  0.00    -0.552 OA
ATOM     25  H   UNL     1      43.568  23.276  19.194  0.00  0.00    +0.382 HD
ENDBRANCH  23  24
BRANCH  26  27
ATOM     27  C   UNL     1      41.256  20.292  18.846  0.00  0.00    +0.218 C 
BRANCH  27  28
ATOM     28  O   UNL     1      40.817  20.421  20.198  0.00  0.00    -0.564 OA
ATOM     29  H   UNL     1      41.043  21.269  20.606  0.00  0.00    +0.383 HD
ENDBRANCH  27  28
ENDBRANCH  26  27
ENDBRANCH  15  16
BRANCH  31  32
ATOM     32  O   UNL     1      44.105  17.768  21.624  0.00  0.00    -0.326 OA
ATOM     33  C   UNL     1      42.843  17.261  22.062  0.00  0.00    +0.232 C 
ENDBRANCH  31  32
BRANCH  34  35
ATOM     35  O   UNL     1      44.861  15.211  22.303  0.00  0.00    -0.305 OA
ATOM     36  C   UNL     1      45.062  13.810  22.501  0.00  0.00    +0.241 C 
ENDBRANCH  34  35
TORSDOF 11
ENDMDL
MODEL 5
REMARK VINA RESULT:      -5.7      2.652      5.520
REMARK  Name = ZINC95485947
REMARK  14 active torsions:
REMARK  status: ('A' for Active; 'I' for Inactive)
REMARK    1  A    between atoms: C1_1  and  O1_2
REMARK    2  A    between atoms: O1_2  and  C2_3
REMARK    3  A    between atoms: C4_5  and  O11_40
REMARK    4  A    between atoms: C9_11  and  C11_14
REMARK    5  A    between atoms: C13_16  and  C19_24
REMARK    6  A    between atoms: C14_17  and  O5_22
REMARK    7  A    between atoms: C15_18  and  O4_20
REMARK    8  A    between atoms: O4_20  and  C17_21
REMARK    9  A    between atoms: O5_22  and  C18_23
REMARK   10  A    between atoms: C20_26  and  O10_39
REMARK   11  A    between atoms: C21_28  and  O9_38
REMARK   12  A    between atoms: C22_30  and  O8_37
REMARK   13  A    between atoms: C23_32  and  C24_35
REMARK   14  A    between atoms: C24_35  and  O7_36
REMARK                            x       y       z     vdW  Elec       q    Type
REMARK                         _______ _______ _______ _____ _____    ______ ____
ROOT
ATOM     13  C   UNL     1      46.419  16.985  18.973  0.00  0.00    +0.002 A 
ATOM     14  C   UNL     1      46.326  15.983  18.008  0.00  0.00    +0.029 A 
ATOM     15  C   UNL     1      47.344  15.063  17.868  0.00  0.00    -0.054 A 
ATOM     31  C   UNL     1      48.462  15.131  18.686  0.00  0.00    +0.101 A 
ATOM     34  C   UNL     1      48.559  16.129  19.652  0.00  0.00    +0.107 A 
ATOM     37  C   UNL     1      47.544  17.058  19.792  0.00  0.00    -0.024 A 
ENDROOT
BRANCH  13  12
ATOM      3  C   UNL     1      40.929  20.338  19.838  0.00  0.00    +0.209 A 
ATOM      4  C   UNL     1      40.939  19.343  20.811  0.00  0.00    -0.117 A 
ATOM      5  C   UNL     1      42.049  18.531  20.959  0.00  0.00    +0.241 A 
ATOM      8  C   UNL     1      43.157  18.719  20.123  0.00  0.00    -0.286 A 
ATOM      9  C   UNL     1      43.149  19.731  19.146  0.00  0.00    +0.197 A 
ATOM     10  O   UNL     1      44.224  19.921  18.356  0.00  0.00    -0.213 OA
ATOM     11  C   UNL     1      45.187  19.002  18.246  0.00  0.00    +0.328 A 
ATOM     12  C   UNL     1      45.324  17.974  19.124  0.00  0.00    -0.236 A 
ATOM     38  C   UNL     1      44.355  17.870  20.232  0.00  0.00    +0.432 A 
ATOM     39  O   UNL     1      44.535  17.126  21.181  0.00  0.00    -0.434 OA
ATOM     40  C   UNL     1      42.022  20.529  19.008  0.00  0.00    -0.034 A 
BRANCH   3   2
ATOM      1  C   UNL     1      39.454  21.480  18.368  0.00  0.00    +0.256 C 
ATOM      2  O   UNL     1      39.834  21.127  19.699  0.00  0.00    -0.303 OA
ENDBRANCH   3   2
BRANCH   5   6
ATOM      6  O   UNL     1      42.065  17.560  21.907  0.00  0.00    -0.474 OA
ATOM      7  H   UNL     1      41.727  17.846  22.768  0.00  0.00    +0.403 HD
ENDBRANCH   5   6
ENDBRANCH  13  12
BRANCH  15  16
ATOM     16  C   UNL     1      47.241  13.980  16.825  0.00  0.00    +0.234 C 
ATOM     17  C   UNL     1      46.911  12.648  17.504  0.00  0.00    +0.173 C 
ATOM     20  C   UNL     1      46.868  11.541  16.445  0.00  0.00    +0.118 C 
ATOM     23  C   UNL     1      48.211  11.502  15.709  0.00  0.00    +0.129 C 
ATOM     26  C   UNL     1      48.491  12.878  15.101  0.00  0.00    +0.179 C 
ATOM     30  O   UNL     1      48.487  13.865  16.134  0.00  0.00    -0.341 OA
BRANCH  17  18
ATOM     18  O   UNL     1      45.639  12.742  18.148  0.00  0.00    -0.546 OA
ATOM     19  H   UNL     1      45.658  12.524  19.090  0.00  0.00    +0.388 HD
ENDBRANCH  17  18
BRANCH  20  21
ATOM     21  O   UNL     1      46.631  10.282  17.079  0.00  0.00    -0.558 OA
ATOM     22  H   UNL     1      45.991  10.321  17.804  0.00  0.00    +0.383 HD
ENDBRANCH  20  21
BRANCH  23  24
ATOM     24  O   UNL     1      48.158  10.520  14.671  0.00  0.00    -0.552 OA
ATOM     25  H   UNL     1      48.886   9.884  14.694  0.00  0.00    +0.382 HD
ENDBRANCH  23  24
BRANCH  26  27
ATOM     27  C   UNL     1      49.859  12.864  14.414  0.00  0.00    +0.218 C 
BRANCH  27  28
ATOM     28  O   UNL     1      49.701  12.491  13.045  0.00  0.00    -0.564 OA
ATOM     29  H   UNL     1      50.247  13.004  12.432  0.00  0.00    +0.383 HD
ENDBRANCH  27  28
ENDBRANCH  26  27
ENDBRANCH  15  16
BRANCH  31  32
ATOM     32  O   UNL     1      49.463  14.221  18.546  0.00  0.00    -0.326 OA
ATOM     33  C   UNL     1      49.592  13.237  19.574  0.00  0.00    +0.232 C 
ENDBRANCH  31  32
BRANCH  34  35
ATOM     35  O   UNL     1      49.656  16.194  20.454  0.00  0.00    -0.305 OA
ATOM     36  C   UNL     1      50.623  17.202  20.150  0.00  0.00    +0.241 C 
ENDBRANCH  34  35
TORSDOF 11
ENDMDL
MODEL 6
REMARK VINA RESULT:      -5.6      4.047      7.961
REMARK  Name = ZINC95485947
REMARK  14 active torsions:
REMARK  status: ('A' for Active; 'I' for Inactive)
REMARK    1  A    between atoms: C1_1  and  O1_2
REMARK    2  A    between atoms: O1_2  and  C2_3
REMARK    3  A    between atoms: C4_5  and  O11_40
REMARK    4  A    between atoms: C9_11  and  C11_14
REMARK    5  A    between atoms: C13_16  and  C19_24
REMARK    6  A    between atoms: C14_17  and  O5_22
REMARK    7  A    between atoms: C15_18  and  O4_20
REMARK    8  A    between atoms: O4_20  and  C17_21
REMARK    9  A    between atoms: O5_22  and  C18_23
REMARK   10  A    between atoms: C20_26  and  O10_39
REMARK   11  A    between atoms: C21_28  and  O9_38
REMARK   12  A    between atoms: C22_30  and  O8_37
REMARK   13  A    between atoms: C23_32  and  C24_35
REMARK   14  A    between atoms: C24_35  and  O7_36
REMARK                            x       y       z     vdW  Elec       q    Type
REMARK                         _______ _______ _______ _____ _____    ______ ____
ROOT
ATOM     13  C   UNL     1      47.958  15.275  17.513  0.00  0.00    +0.002 A 
ATOM     14  C   UNL     1      48.683  14.409  16.695  0.00  0.00    +0.029 A 
ATOM     15  C   UNL     1      48.215  13.134  16.455  0.00  0.00    -0.054 A 
ATOM     31  C   UNL     1      47.025  12.709  17.027  0.00  0.00    +0.101 A 
ATOM     34  C   UNL     1      46.298  13.569  17.845  0.00  0.00    +0.107 A 
ATOM     37  C   UNL     1      46.766  14.847  18.093  0.00  0.00    -0.024 A 
ENDROOT
BRANCH  13  12
ATOM      3  C   UNL     1      51.118  20.709  19.128  0.00  0.00    +0.209 A 
ATOM      4  C   UNL     1      52.074  19.836  18.616  0.00  0.00    -0.117 A 
ATOM      5  C   UNL     1      51.684  18.626  18.072  0.00  0.00    +0.241 A 
ATOM      8  C   UNL     1      50.326  18.289  18.042  0.00  0.00    -0.286 A 
ATOM      9  C   UNL     1      49.360  19.176  18.552  0.00  0.00    +0.197 A 
ATOM     10  O   UNL     1      48.052  18.856  18.505  0.00  0.00    -0.213 OA
ATOM     11  C   UNL     1      47.641  17.607  18.273  0.00  0.00    +0.328 A 
ATOM     12  C   UNL     1      48.461  16.647  17.771  0.00  0.00    -0.236 A 
ATOM     38  C   UNL     1      49.864  17.006  17.487  0.00  0.00    +0.432 A 
ATOM     39  O   UNL     1      50.597  16.284  16.832  0.00  0.00    -0.434 OA
ATOM     40  C   UNL     1      49.773  20.382  19.102  0.00  0.00    -0.034 A 
BRANCH   3   2
ATOM      1  C   UNL     1      52.624  21.863  20.559  0.00  0.00    +0.256 C 
ATOM      2  O   UNL     1      51.511  21.893  19.663  0.00  0.00    -0.303 OA
ENDBRANCH   3   2
BRANCH   5   6
ATOM      6  O   UNL     1      52.612  17.772  17.569  0.00  0.00    -0.474 OA
ATOM      7  H   UNL     1      53.241  17.443  18.226  0.00  0.00    +0.403 HD
ENDBRANCH   5   6
ENDBRANCH  13  12
BRANCH  15  16
ATOM     16  C   UNL     1      48.999  12.199  15.569  0.00  0.00    +0.234 C 
ATOM     17  C   UNL     1      50.196  11.645  16.346  0.00  0.00    +0.173 C 
ATOM     20  C   UNL     1      51.022  10.744  15.421  0.00  0.00    +0.118 C 
ATOM     23  C   UNL     1      51.449  11.550  14.191  0.00  0.00    +0.129 C 
ATOM     26  C   UNL     1      50.203  12.107  13.498  0.00  0.00    +0.179 C 
ATOM     30  O   UNL     1      49.465  12.911  14.421  0.00  0.00    -0.341 OA
BRANCH  17  18
ATOM     18  O   UNL     1      49.731  10.885  17.463  0.00  0.00    -0.546 OA
ATOM     19  H   UNL     1      48.788  10.672  17.429  0.00  0.00    +0.388 HD
ENDBRANCH  17  18
BRANCH  20  21
ATOM     21  O   UNL     1      52.180  10.279  16.117  0.00  0.00    -0.558 OA
ATOM     22  H   UNL     1      52.342  10.730  16.957  0.00  0.00    +0.383 HD
ENDBRANCH  20  21
BRANCH  23  24
ATOM     24  O   UNL     1      52.159  10.700  13.286  0.00  0.00    -0.552 OA
ATOM     25  H   UNL     1      51.596  10.267  12.630  0.00  0.00    +0.382 HD
ENDBRANCH  23  24
BRANCH  26  27
ATOM     27  C   UNL     1      50.625  12.963  12.301  0.00  0.00    +0.218 C 
BRANCH  27  28
ATOM     28  O   UNL     1      51.873  13.596  12.583  0.00  0.00    -0.564 OA
ATOM     29  H   UNL     1      52.518  13.019  13.016  0.00  0.00    +0.383 HD
ENDBRANCH  27  28
ENDBRANCH  26  27
ENDBRANCH  15  16
BRANCH  31  32
ATOM     32  O   UNL     1      46.567  11.451  16.787  0.00  0.00    -0.326 OA
ATOM     33  C   UNL     1      45.678  11.285  15.681  0.00  0.00    +0.232 C 
ENDBRANCH  31  32
BRANCH  34  35
ATOM     35  O   UNL     1      45.131  13.151  18.404  0.00  0.00    -0.305 OA
ATOM     36  C   UNL     1      45.016  13.262  19.824  0.00  0.00    +0.241 C 
ENDBRANCH  34  35
TORSDOF 11
ENDMDL
MODEL 7
REMARK VINA RESULT:      -5.4      1.597      4.999
REMARK  Name = ZINC95485947
REMARK  14 active torsions:
REMARK  status: ('A' for Active; 'I' for Inactive)
REMARK    1  A    between atoms: C1_1  and  O1_2
REMARK    2  A    between atoms: O1_2  and  C2_3
REMARK    3  A    between atoms: C4_5  and  O11_40
REMARK    4  A    between atoms: C9_11  and  C11_14
REMARK    5  A    between atoms: C13_16  and  C19_24
REMARK    6  A    between atoms: C14_17  and  O5_22
REMARK    7  A    between atoms: C15_18  and  O4_20
REMARK    8  A    between atoms: O4_20  and  C17_21
REMARK    9  A    between atoms: O5_22  and  C18_23
REMARK   10  A    between atoms: C20_26  and  O10_39
REMARK   11  A    between atoms: C21_28  and  O9_38
REMARK   12  A    between atoms: C22_30  and  O8_37
REMARK   13  A    between atoms: C23_32  and  C24_35
REMARK   14  A    between atoms: C24_35  and  O7_36
REMARK                            x       y       z     vdW  Elec       q    Type
REMARK                         _______ _______ _______ _____ _____    ______ ____
ROOT
ATOM     13  C   UNL     1      47.574  19.268  19.623  0.00  0.00    +0.002 A 
ATOM     14  C   UNL     1      47.809  17.939  19.273  0.00  0.00    +0.029 A 
ATOM     15  C   UNL     1      49.099  17.454  19.232  0.00  0.00    -0.054 A 
ATOM     31  C   UNL     1      50.166  18.285  19.537  0.00  0.00    +0.101 A 
ATOM     34  C   UNL     1      49.938  19.613  19.888  0.00  0.00    +0.107 A 
ATOM     37  C   UNL     1      48.646  20.106  19.924  0.00  0.00    -0.024 A 
ENDROOT
BRANCH  13  12
ATOM      3  C   UNL     1      41.181  20.377  19.785  0.00  0.00    +0.209 A 
ATOM      4  C   UNL     1      41.415  19.298  20.632  0.00  0.00    -0.117 A 
ATOM      5  C   UNL     1      42.711  18.896  20.901  0.00  0.00    +0.241 A 
ATOM      8  C   UNL     1      43.780  19.582  20.313  0.00  0.00    -0.286 A 
ATOM      9  C   UNL     1      43.543  20.679  19.463  0.00  0.00    +0.197 A 
ATOM     10  O   UNL     1      44.576  21.348  18.914  0.00  0.00    -0.213 OA
ATOM     11  C   UNL     1      45.811  20.840  18.892  0.00  0.00    +0.328 A 
ATOM     12  C   UNL     1      46.186  19.790  19.668  0.00  0.00    -0.236 A 
ATOM     38  C   UNL     1      45.176  19.183  20.556  0.00  0.00    +0.432 A 
ATOM     39  O   UNL     1      45.479  18.398  21.439  0.00  0.00    -0.434 OA
ATOM     40  C   UNL     1      42.235  21.060  19.201  0.00  0.00    -0.034 A 
BRANCH   3   2
ATOM      1  C   UNL     1      39.687  21.526  18.339  0.00  0.00    +0.256 C 
ATOM      2  O   UNL     1      39.906  20.761  19.525  0.00  0.00    -0.303 OA
ENDBRANCH   3   2
BRANCH   5   6
ATOM      6  O   UNL     1      42.944  17.846  21.728  0.00  0.00    -0.474 OA
ATOM      7  H   UNL     1      42.684  18.004  22.647  0.00  0.00    +0.403 HD
ENDBRANCH   5   6
ENDBRANCH  13  12
BRANCH  15  16
ATOM     16  C   UNL     1      49.351  16.016  18.854  0.00  0.00    +0.234 C 
ATOM     17  C   UNL     1      48.810  15.757  17.445  0.00  0.00    +0.173 C 
ATOM     20  C   UNL     1      49.015  14.280  17.092  0.00  0.00    +0.118 C 
ATOM     23  C   UNL     1      48.323  13.414  18.149  0.00  0.00    +0.129 C 
ATOM     26  C   UNL     1      48.882  13.764  19.530  0.00  0.00    +0.179 C 
ATOM     30  O   UNL     1      48.687  15.156  19.783  0.00  0.00    -0.341 OA
BRANCH  17  18
ATOM     18  O   UNL     1      49.512  16.574  16.507  0.00  0.00    -0.546 OA
ATOM     19  H   UNL     1      50.343  16.190  16.193  0.00  0.00    +0.388 HD
ENDBRANCH  17  18
BRANCH  20  21
ATOM     21  O   UNL     1      48.450  14.013  15.807  0.00  0.00    -0.558 OA
ATOM     22  H   UNL     1      48.551  14.738  15.174  0.00  0.00    +0.383 HD
ENDBRANCH  20  21
BRANCH  23  24
ATOM     24  O   UNL     1      48.568  12.033  17.869  0.00  0.00    -0.552 OA
ATOM     25  H   UNL     1      47.825  11.451  18.083  0.00  0.00    +0.382 HD
ENDBRANCH  23  24
BRANCH  26  27
ATOM     27  C   UNL     1      48.154  12.945  20.598  0.00  0.00    +0.218 C 
BRANCH  27  28
ATOM     28  O   UNL     1      48.776  11.666  20.724  0.00  0.00    -0.564 OA
ATOM     29  H   UNL     1      49.613  11.586  20.245  0.00  0.00    +0.383 HD
ENDBRANCH  27  28
ENDBRANCH  26  27
ENDBRANCH  15  16
BRANCH  31  32
ATOM     32  O   UNL     1      51.437  17.803  19.497  0.00  0.00    -0.326 OA
ATOM     33  C   UNL     1      52.199  18.082  18.320  0.00  0.00    +0.232 C 
ENDBRANCH  31  32
BRANCH  34  35
ATOM     35  O   UNL     1      50.986  20.427  20.188  0.00  0.00    -0.305 OA
ATOM     36  C   UNL     1      51.082  20.889  21.537  0.00  0.00    +0.241 C 
ENDBRANCH  34  35
TORSDOF 11
ENDMDL
MODEL 8
REMARK VINA RESULT:      -5.3      3.255      8.064
REMARK  Name = ZINC95485947
REMARK  14 active torsions:
REMARK  status: ('A' for Active; 'I' for Inactive)
REMARK    1  A    between atoms: C1_1  and  O1_2
REMARK    2  A    between atoms: O1_2  and  C2_3
REMARK    3  A    between atoms: C4_5  and  O11_40
REMARK    4  A    between atoms: C9_11  and  C11_14
REMARK    5  A    between atoms: C13_16  and  C19_24
REMARK    6  A    between atoms: C14_17  and  O5_22
REMARK    7  A    between atoms: C15_18  and  O4_20
REMARK    8  A    between atoms: O4_20  and  C17_21
REMARK    9  A    between atoms: O5_22  and  C18_23
REMARK   10  A    between atoms: C20_26  and  O10_39
REMARK   11  A    between atoms: C21_28  and  O9_38
REMARK   12  A    between atoms: C22_30  and  O8_37
REMARK   13  A    between atoms: C23_32  and  C24_35
REMARK   14  A    between atoms: C24_35  and  O7_36
REMARK                            x       y       z     vdW  Elec       q    Type
REMARK                         _______ _______ _______ _____ _____    ______ ____
ROOT
ATOM     13  C   UNL     1      46.664  16.189  19.703  0.00  0.00    +0.002 A 
ATOM     14  C   UNL     1      46.275  17.519  19.859  0.00  0.00    +0.029 A 
ATOM     15  C   UNL     1      45.319  17.854  20.795  0.00  0.00    -0.054 A 
ATOM     31  C   UNL     1      44.741  16.870  21.583  0.00  0.00    +0.101 A 
ATOM     34  C   UNL     1      45.126  15.540  21.432  0.00  0.00    +0.107 A 
ATOM     37  C   UNL     1      46.080  15.198  20.491  0.00  0.00    -0.024 A 
ENDROOT
BRANCH  13  12
ATOM      3  C   UNL     1      50.707  13.488  15.405  0.00  0.00    +0.209 A 
ATOM      4  C   UNL     1      49.451  12.939  15.162  0.00  0.00    -0.117 A 
ATOM      5  C   UNL     1      48.346  13.410  15.847  0.00  0.00    +0.241 A 
ATOM      8  C   UNL     1      48.503  14.438  16.785  0.00  0.00    -0.286 A 
ATOM      9  C   UNL     1      49.772  14.997  17.023  0.00  0.00    +0.197 A 
ATOM     10  O   UNL     1      49.916  16.000  17.913  0.00  0.00    -0.213 OA
ATOM     11  C   UNL     1      48.966  16.289  18.805  0.00  0.00    +0.328 A 
ATOM     12  C   UNL     1      47.692  15.829  18.697  0.00  0.00    -0.236 A 
ATOM     38  C   UNL     1      47.360  14.962  17.550  0.00  0.00    +0.432 A 
ATOM     39  O   UNL     1      46.208  14.694  17.254  0.00  0.00    -0.434 OA
ATOM     40  C   UNL     1      50.869  14.505  16.331  0.00  0.00    -0.034 A 
BRANCH   3   2
ATOM      1  C   UNL     1      52.142  11.650  14.948  0.00  0.00    +0.256 C 
ATOM      2  O   UNL     1      51.785  13.017  14.729  0.00  0.00    -0.303 OA
ENDBRANCH   3   2
BRANCH   5   6
ATOM      6  O   UNL     1      47.119  12.880  15.612  0.00  0.00    -0.474 OA
ATOM      7  H   UNL     1      46.404  13.313  16.099  0.00  0.00    +0.403 HD
ENDBRANCH   5   6
ENDBRANCH  13  12
BRANCH  15  16
ATOM     16  C   UNL     1      44.901  19.292  20.962  0.00  0.00    +0.234 C 
ATOM     17  C   UNL     1      44.071  19.726  19.751  0.00  0.00    +0.173 C 
ATOM     20  C   UNL     1      43.701  21.206  19.899  0.00  0.00    +0.118 C 
ATOM     23  C   UNL     1      44.984  22.028  20.050  0.00  0.00    +0.129 C 
ATOM     26  C   UNL     1      45.778  21.505  21.249  0.00  0.00    +0.179 C 
ATOM     30  O   UNL     1      46.064  20.117  21.062  0.00  0.00    -0.341 OA
BRANCH  17  18
ATOM     18  O   UNL     1      42.880  18.941  19.682  0.00  0.00    -0.546 OA
ATOM     19  H   UNL     1      42.886  18.163  20.258  0.00  0.00    +0.388 HD
ENDBRANCH  17  18
BRANCH  20  21
ATOM     21  O   UNL     1      42.987  21.638  18.740  0.00  0.00    -0.558 OA
ATOM     22  H   UNL     1      43.118  21.074  17.964  0.00  0.00    +0.383 HD
ENDBRANCH  20  21
BRANCH  23  24
ATOM     24  O   UNL     1      44.649  23.402  20.261  0.00  0.00    -0.552 OA
ATOM     25  H   UNL     1      44.933  23.990  19.547  0.00  0.00    +0.382 HD
ENDBRANCH  23  24
BRANCH  26  27
ATOM     27  C   UNL     1      47.091  22.283  21.372  0.00  0.00    +0.218 C 
BRANCH  27  28
ATOM     28  O   UNL     1      46.820  23.604  21.841  0.00  0.00    -0.564 OA
ATOM     29  H   UNL     1      46.351  24.160  21.203  0.00  0.00    +0.383 HD
ENDBRANCH  27  28
ENDBRANCH  26  27
ENDBRANCH  15  16
BRANCH  31  32
ATOM     32  O   UNL     1      43.800  17.204  22.505  0.00  0.00    -0.326 OA
ATOM     33  C   UNL     1      42.432  17.078  22.110  0.00  0.00    +0.232 C 
ENDBRANCH  31  32
BRANCH  34  35
ATOM     35  O   UNL     1      44.559  14.576  22.207  0.00  0.00    -0.305 OA
ATOM     36  C   UNL     1      45.202  13.301  22.230  0.00  0.00    +0.241 C 
ENDBRANCH  34  35
TORSDOF 11
ENDMDL
MODEL 9
REMARK VINA RESULT:      -5.2      3.223      7.876
REMARK  Name = ZINC95485947
REMARK  14 active torsions:
REMARK  status: ('A' for Active; 'I' for Inactive)
REMARK    1  A    between atoms: C1_1  and  O1_2
REMARK    2  A    between atoms: O1_2  and  C2_3
REMARK    3  A    between atoms: C4_5  and  O11_40
REMARK    4  A    between atoms: C9_11  and  C11_14
REMARK    5  A    between atoms: C13_16  and  C19_24
REMARK    6  A    between atoms: C14_17  and  O5_22
REMARK    7  A    between atoms: C15_18  and  O4_20
REMARK    8  A    between atoms: O4_20  and  C17_21
REMARK    9  A    between atoms: O5_22  and  C18_23
REMARK   10  A    between atoms: C20_26  and  O10_39
REMARK   11  A    between atoms: C21_28  and  O9_38
REMARK   12  A    between atoms: C22_30  and  O8_37
REMARK   13  A    between atoms: C23_32  and  C24_35
REMARK   14  A    between atoms: C24_35  and  O7_36
REMARK                            x       y       z     vdW  Elec       q    Type
REMARK                         _______ _______ _______ _____ _____    ______ ____
ROOT
ATOM     13  C   UNL     1      47.026  17.010  19.660  0.00  0.00    +0.002 A 
ATOM     14  C   UNL     1      47.012  18.398  19.534  0.00  0.00    +0.029 A 
ATOM     15  C   UNL     1      46.123  19.150  20.274  0.00  0.00    -0.054 A 
ATOM     31  C   UNL     1      45.240  18.528  21.144  0.00  0.00    +0.101 A 
ATOM     34  C   UNL     1      45.249  17.142  21.274  0.00  0.00    +0.107 A 
ATOM     37  C   UNL     1      46.135  16.383  20.530  0.00  0.00    -0.024 A 
ENDROOT
BRANCH  13  12
ATOM      3  C   UNL     1      50.263  12.719  16.023  0.00  0.00    +0.209 A 
ATOM      4  C   UNL     1      49.011  12.868  15.434  0.00  0.00    -0.117 A 
ATOM      5  C   UNL     1      48.127  13.815  15.918  0.00  0.00    +0.241 A 
ATOM      8  C   UNL     1      48.502  14.617  17.002  0.00  0.00    -0.286 A 
ATOM      9  C   UNL     1      49.771  14.471  17.592  0.00  0.00    +0.197 A 
ATOM     10  O   UNL     1      50.136  15.258  18.624  0.00  0.00    -0.213 OA
ATOM     11  C   UNL     1      49.242  15.968  19.316  0.00  0.00    +0.328 A 
ATOM     12  C   UNL     1      47.982  16.201  18.865  0.00  0.00    -0.236 A 
ATOM     38  C   UNL     1      47.591  15.628  17.563  0.00  0.00    +0.432 A 
ATOM     39  O   UNL     1      46.573  15.972  16.985  0.00  0.00    -0.434 OA
ATOM     40  C   UNL     1      50.641  13.509  17.096  0.00  0.00    -0.034 A 
BRANCH   3   2
ATOM      1  C   UNL     1      51.281  11.717  14.124  0.00  0.00    +0.256 C 
ATOM      2  O   UNL     1      51.122  11.785  15.543  0.00  0.00    -0.303 OA
ENDBRANCH   3   2
BRANCH   5   6
ATOM      6  O   UNL     1      46.906  13.967  15.345  0.00  0.00    -0.474 OA
ATOM      7  H   UNL     1      46.476  14.809  15.552  0.00  0.00    +0.403 HD
ENDBRANCH   5   6
ENDBRANCH  13  12
BRANCH  15  16
ATOM     16  C   UNL     1      46.111  20.651  20.137  0.00  0.00    +0.234 C 
ATOM     17  C   UNL     1      46.673  21.284  21.412  0.00  0.00    +0.173 C 
ATOM     20  C   UNL     1      46.602  22.809  21.291  0.00  0.00    +0.118 C 
ATOM     23  C   UNL     1      45.150  23.222  21.028  0.00  0.00    +0.129 C 
ATOM     26  C   UNL     1      44.647  22.514  19.767  0.00  0.00    +0.179 C 
ATOM     30  O   UNL     1      44.769  21.100  19.935  0.00  0.00    -0.341 OA
BRANCH  17  18
ATOM     18  O   UNL     1      48.033  20.882  21.586  0.00  0.00    -0.546 OA
ATOM     19  H   UNL     1      48.347  20.935  22.499  0.00  0.00    +0.388 HD
ENDBRANCH  17  18
BRANCH  20  21
ATOM     21  O   UNL     1      47.059  23.408  22.505  0.00  0.00    -0.558 OA
ATOM     22  H   UNL     1      47.887  23.036  22.839  0.00  0.00    +0.383 HD
ENDBRANCH  20  21
BRANCH  23  24
ATOM     24  O   UNL     1      45.082  24.638  20.841  0.00  0.00    -0.552 OA
ATOM     25  H   UNL     1      44.688  25.114  21.585  0.00  0.00    +0.382 HD
ENDBRANCH  23  24
BRANCH  26  27
ATOM     27  C   UNL     1      43.179  22.874  19.531  0.00  0.00    +0.218 C 
BRANCH  27  28
ATOM     28  O   UNL     1      43.098  24.137  18.869  0.00  0.00    -0.564 OA
ATOM     29  H   UNL     1      43.893  24.681  18.962  0.00  0.00    +0.383 HD
ENDBRANCH  27  28
ENDBRANCH  26  27
ENDBRANCH  15  16
BRANCH  31  32
ATOM     32  O   UNL     1      44.366  19.273  21.872  0.00  0.00    -0.326 OA
ATOM     33  C   UNL     1      42.980  19.142  21.550  0.00  0.00    +0.232 C 
ENDBRANCH  31  32
BRANCH  34  35
ATOM     35  O   UNL     1      44.383  16.534  22.128  0.00  0.00    -0.305 OA
ATOM     36  C   UNL     1      44.635  15.162  22.440  0.00  0.00    +0.241 C 
ENDBRANCH  34  35
TORSDOF 11
ENDMDL
