MODEL 1
REMARK VINA RESULT:      -6.6      0.000      0.000
REMARK  Name = ZINC95486139
REMARK  8 active torsions:
REMARK  status: ('A' for Active; 'I' for Inactive)
REMARK    1  A    between atoms: C1_1  and  C2_2
REMARK    2  A    between atoms: C2_2  and  C4_4
REMARK    3  A    between atoms: C7_8  and  C30_36
REMARK    4  A    between atoms: C13_17  and  C29_35
REMARK    5  A    between atoms: C17_22  and  C27_33
REMARK    6  A    between atoms: C17_22  and  C28_34
REMARK    7  A    between atoms: C21_27  and  C26_32
REMARK    8  A    between atoms: C22_28  and  C25_31
REMARK                            x       y       z     vdW  Elec       q    Type
REMARK                         _______ _______ _______ _____ _____    ______ ____
ROOT
ATOM      3  C   UNL     1      51.402  17.383  19.746  0.00  0.00    +0.033 C 
ATOM      4  C   UNL     1      52.788  17.489  19.073  0.00  0.00    +0.010 C 
ATOM      5  C   UNL     1      52.781  18.816  18.303  0.00  0.00    +0.004 C 
ATOM      6  C   UNL     1      51.294  19.194  18.055  0.00  0.00    -0.044 C 
ATOM      7  C   UNL     1      50.992  19.131  16.541  0.00  0.00    +0.024 C 
ATOM      8  C   UNL     1      51.146  20.627  18.557  0.00  0.00    +0.005 C 
ATOM      9  C   UNL     1      49.738  20.989  19.005  0.00  0.00    +0.015 C 
ATOM     10  C   UNL     1      49.286  20.013  20.094  0.00  0.00    -0.029 C 
ATOM     11  C   UNL     1      50.323  20.020  21.223  0.00  0.00    +0.020 C 
ATOM     12  C   UNL     1      47.941  20.449  20.691  0.00  0.00    -0.029 C 
ATOM     13  C   UNL     1      48.203  21.829  21.313  0.00  0.00    +0.018 C 
ATOM     14  C   UNL     1      47.515  19.493  21.810  0.00  0.00    +0.019 C 
ATOM     15  C   UNL     1      46.236  20.015  22.457  0.00  0.00    +0.010 C 
ATOM     16  C   UNL     1      45.084  20.106  21.475  0.00  0.00    +0.013 C 
ATOM     17  C   UNL     1      44.287  18.827  21.323  0.00  0.00    -0.095 C 
ATOM     18  C   UNL     1      44.763  17.711  22.262  0.00  0.00    +0.048 C 
ATOM     19  C   UNL     1      42.811  19.119  21.669  0.00  0.00    +0.047 C 
ATOM     20  C   UNL     1      44.340  18.293  19.912  0.00  0.00    +0.380 C 
ATOM     21  O   UNL     1      44.622  17.130  19.712  0.00  0.00    -0.460 OA
ATOM     22  C   UNL     1      44.028  19.210  18.760  0.00  0.00    +0.017 C 
ATOM     23  C   UNL     1      44.368  20.644  19.117  0.00  0.00    +0.032 C 
ATOM     24  C   UNL     1      45.458  20.808  20.183  0.00  0.00    -0.038 C 
ATOM     25  C   UNL     1      45.391  22.337  20.475  0.00  0.00    +0.016 C 
ATOM     26  C   UNL     1      46.840  20.475  19.642  0.00  0.00    +0.019 C 
ATOM     27  C   UNL     1      46.773  19.108  18.948  0.00  0.00    +0.001 C 
ATOM     28  C   UNL     1      48.114  18.693  18.358  0.00  0.00    +0.002 C 
ATOM     29  C   UNL     1      49.189  18.637  19.454  0.00  0.00    +0.013 C 
ATOM     30  C   UNL     1      50.471  18.162  18.814  0.00  0.00    +0.001 C 
ENDROOT
BRANCH   3   2
ATOM      1  C   UNL     1      50.529  15.214  18.573  0.00  0.00    +0.070 C 
ATOM      2  C   UNL     1      50.982  15.930  19.819  0.00  0.00    -0.113 C 
ATOM     31  C   UNL     1      51.011  15.296  20.965  0.00  0.00    -0.010 C 
ENDBRANCH   3   2
TORSDOF 1
ENDMDL
MODEL 2
REMARK VINA RESULT:      -6.5      2.974      5.439
REMARK  Name = ZINC95486139
REMARK  8 active torsions:
REMARK  status: ('A' for Active; 'I' for Inactive)
REMARK    1  A    between atoms: C1_1  and  C2_2
REMARK    2  A    between atoms: C2_2  and  C4_4
REMARK    3  A    between atoms: C7_8  and  C30_36
REMARK    4  A    between atoms: C13_17  and  C29_35
REMARK    5  A    between atoms: C17_22  and  C27_33
REMARK    6  A    between atoms: C17_22  and  C28_34
REMARK    7  A    between atoms: C21_27  and  C26_32
REMARK    8  A    between atoms: C22_28  and  C25_31
REMARK                            x       y       z     vdW  Elec       q    Type
REMARK                         _______ _______ _______ _____ _____    ______ ____
ROOT
ATOM      3  C   UNL     1      52.205  19.688  18.201  0.00  0.00    +0.033 C 
ATOM      4  C   UNL     1      52.894  20.929  18.812  0.00  0.00    +0.010 C 
ATOM      5  C   UNL     1      52.496  20.943  20.294  0.00  0.00    +0.004 C 
ATOM      6  C   UNL     1      51.194  20.105  20.427  0.00  0.00    -0.044 C 
ATOM      7  C   UNL     1      50.026  21.030  20.837  0.00  0.00    +0.024 C 
ATOM      8  C   UNL     1      51.471  19.092  21.534  0.00  0.00    +0.005 C 
ATOM      9  C   UNL     1      50.655  17.812  21.426  0.00  0.00    +0.015 C 
ATOM     10  C   UNL     1      50.907  17.165  20.062  0.00  0.00    -0.029 C 
ATOM     11  C   UNL     1      52.416  16.963  19.884  0.00  0.00    +0.020 C 
ATOM     12  C   UNL     1      50.237  15.786  19.982  0.00  0.00    -0.029 C 
ATOM     13  C   UNL     1      50.907  14.948  21.082  0.00  0.00    +0.018 C 
ATOM     14  C   UNL     1      50.528  15.126  18.631  0.00  0.00    +0.019 C 
ATOM     15  C   UNL     1      49.947  13.715  18.626  0.00  0.00    +0.010 C 
ATOM     16  C   UNL     1      48.443  13.707  18.821  0.00  0.00    +0.013 C 
ATOM     17  C   UNL     1      47.644  13.861  17.542  0.00  0.00    -0.095 C 
ATOM     18  C   UNL     1      48.527  13.915  16.289  0.00  0.00    +0.048 C 
ATOM     19  C   UNL     1      46.709  12.642  17.393  0.00  0.00    +0.047 C 
ATOM     20  C   UNL     1      46.791  15.106  17.557  0.00  0.00    +0.380 C 
ATOM     21  O   UNL     1      46.822  15.875  16.618  0.00  0.00    -0.460 OA
ATOM     22  C   UNL     1      45.895  15.378  18.735  0.00  0.00    +0.017 C 
ATOM     23  C   UNL     1      46.467  14.751  19.991  0.00  0.00    +0.032 C 
ATOM     24  C   UNL     1      47.989  14.562  19.989  0.00  0.00    -0.038 C 
ATOM     25  C   UNL     1      48.206  13.707  21.273  0.00  0.00    +0.016 C 
ATOM     26  C   UNL     1      48.728  15.882  20.150  0.00  0.00    +0.019 C 
ATOM     27  C   UNL     1      48.170  16.879  19.128  0.00  0.00    +0.001 C 
ATOM     28  C   UNL     1      48.841  18.242  19.223  0.00  0.00    +0.002 C 
ATOM     29  C   UNL     1      50.356  18.111  19.006  0.00  0.00    +0.013 C 
ATOM     30  C   UNL     1      50.947  19.499  19.052  0.00  0.00    +0.001 C 
ENDROOT
BRANCH   3   2
ATOM      1  C   UNL     1      51.891  18.867  15.737  0.00  0.00    +0.070 C 
ATOM      2  C   UNL     1      51.832  19.971  16.762  0.00  0.00    -0.113 C 
ATOM     31  C   UNL     1      51.460  21.176  16.406  0.00  0.00    -0.010 C 
ENDBRANCH   3   2
TORSDOF 1
ENDMDL
MODEL 3
REMARK VINA RESULT:      -6.4      2.495      6.504
REMARK  Name = ZINC95486139
REMARK  8 active torsions:
REMARK  status: ('A' for Active; 'I' for Inactive)
REMARK    1  A    between atoms: C1_1  and  C2_2
REMARK    2  A    between atoms: C2_2  and  C4_4
REMARK    3  A    between atoms: C7_8  and  C30_36
REMARK    4  A    between atoms: C13_17  and  C29_35
REMARK    5  A    between atoms: C17_22  and  C27_33
REMARK    6  A    between atoms: C17_22  and  C28_34
REMARK    7  A    between atoms: C21_27  and  C26_32
REMARK    8  A    between atoms: C22_28  and  C25_31
REMARK                            x       y       z     vdW  Elec       q    Type
REMARK                         _______ _______ _______ _____ _____    ______ ____
ROOT
ATOM      3  C   UNL     1      45.898  15.376  20.204  0.00  0.00    +0.033 C 
ATOM      4  C   UNL     1      45.080  14.123  19.819  0.00  0.00    +0.010 C 
ATOM      5  C   UNL     1      45.985  13.297  18.895  0.00  0.00    +0.004 C 
ATOM      6  C   UNL     1      47.043  14.269  18.302  0.00  0.00    -0.044 C 
ATOM      7  C   UNL     1      46.815  14.410  16.780  0.00  0.00    +0.024 C 
ATOM      8  C   UNL     1      48.395  13.616  18.569  0.00  0.00    +0.005 C 
ATOM      9  C   UNL     1      49.553  14.597  18.669  0.00  0.00    +0.015 C 
ATOM     10  C   UNL     1      49.253  15.626  19.762  0.00  0.00    -0.029 C 
ATOM     11  C   UNL     1      48.949  14.881  21.068  0.00  0.00    +0.020 C 
ATOM     12  C   UNL     1      50.471  16.527  20.010  0.00  0.00    -0.029 C 
ATOM     13  C   UNL     1      51.584  15.581  20.484  0.00  0.00    +0.018 C 
ATOM     14  C   UNL     1      50.179  17.526  21.134  0.00  0.00    +0.019 C 
ATOM     15  C   UNL     1      51.442  18.329  21.433  0.00  0.00    +0.010 C 
ATOM     16  C   UNL     1      51.921  19.123  20.234  0.00  0.00    +0.013 C 
ATOM     17  C   UNL     1      51.284  20.491  20.093  0.00  0.00    -0.095 C 
ATOM     18  C   UNL     1      50.334  20.829  21.248  0.00  0.00    +0.048 C 
ATOM     19  C   UNL     1      52.400  21.558  20.089  0.00  0.00    +0.047 C 
ATOM     20  C   UNL     1      50.507  20.622  18.805  0.00  0.00    +0.380 C 
ATOM     21  O   UNL     1      49.368  21.040  18.823  0.00  0.00    -0.460 OA
ATOM     22  C   UNL     1      51.160  20.244  17.503  0.00  0.00    +0.017 C 
ATOM     23  C   UNL     1      52.215  19.179  17.729  0.00  0.00    +0.032 C 
ATOM     24  C   UNL     1      51.996  18.297  18.963  0.00  0.00    -0.038 C 
ATOM     25  C   UNL     1      53.335  17.503  19.031  0.00  0.00    +0.016 C 
ATOM     26  C   UNL     1      50.854  17.312  18.764  0.00  0.00    +0.019 C 
ATOM     27  C   UNL     1      49.629  18.084  18.259  0.00  0.00    +0.001 C 
ATOM     28  C   UNL     1      48.432  17.175  18.014  0.00  0.00    +0.002 C 
ATOM     29  C   UNL     1      48.049  16.433  19.303  0.00  0.00    +0.013 C 
ATOM     30  C   UNL     1      46.825  15.601  19.007  0.00  0.00    +0.001 C 
ENDROOT
BRANCH   3   2
ATOM      1  C   UNL     1      44.148  16.687  21.640  0.00  0.00    +0.070 C 
ATOM      2  C   UNL     1      44.967  16.556  20.381  0.00  0.00    -0.113 C 
ATOM     31  C   UNL     1      44.872  17.463  19.440  0.00  0.00    -0.010 C 
ENDBRANCH   3   2
TORSDOF 1
ENDMDL
MODEL 4
REMARK VINA RESULT:      -6.3      2.761      6.201
REMARK  Name = ZINC95486139
REMARK  8 active torsions:
REMARK  status: ('A' for Active; 'I' for Inactive)
REMARK    1  A    between atoms: C1_1  and  C2_2
REMARK    2  A    between atoms: C2_2  and  C4_4
REMARK    3  A    between atoms: C7_8  and  C30_36
REMARK    4  A    between atoms: C13_17  and  C29_35
REMARK    5  A    between atoms: C17_22  and  C27_33
REMARK    6  A    between atoms: C17_22  and  C28_34
REMARK    7  A    between atoms: C21_27  and  C26_32
REMARK    8  A    between atoms: C22_28  and  C25_31
REMARK                            x       y       z     vdW  Elec       q    Type
REMARK                         _______ _______ _______ _____ _____    ______ ____
ROOT
ATOM      3  C   UNL     1      47.970  20.396  20.844  0.00  0.00    +0.033 C 
ATOM      4  C   UNL     1      47.320  21.759  21.174  0.00  0.00    +0.010 C 
ATOM      5  C   UNL     1      45.808  21.552  21.015  0.00  0.00    +0.004 C 
ATOM      6  C   UNL     1      45.608  20.319  20.090  0.00  0.00    -0.044 C 
ATOM      7  C   UNL     1      44.969  20.774  18.758  0.00  0.00    +0.024 C 
ATOM      8  C   UNL     1      44.653  19.396  20.839  0.00  0.00    +0.005 C 
ATOM      9  C   UNL     1      44.795  17.925  20.477  0.00  0.00    +0.015 C 
ATOM     10  C   UNL     1      46.239  17.481  20.721  0.00  0.00    -0.029 C 
ATOM     11  C   UNL     1      46.615  17.807  22.171  0.00  0.00    +0.020 C 
ATOM     12  C   UNL     1      46.381  15.963  20.532  0.00  0.00    -0.029 C 
ATOM     13  C   UNL     1      45.461  15.336  21.591  0.00  0.00    +0.018 C 
ATOM     14  C   UNL     1      47.818  15.519  20.820  0.00  0.00    +0.019 C 
ATOM     15  C   UNL     1      47.900  13.997  20.734  0.00  0.00    +0.010 C 
ATOM     16  C   UNL     1      47.530  13.474  19.360  0.00  0.00    +0.013 C 
ATOM     17  C   UNL     1      48.681  13.426  18.376  0.00  0.00    -0.095 C 
ATOM     18  C   UNL     1      50.018  13.845  19.000  0.00  0.00    +0.048 C 
ATOM     19  C   UNL     1      48.844  11.974  17.875  0.00  0.00    +0.047 C 
ATOM     20  C   UNL     1      48.437  14.309  17.176  0.00  0.00    +0.380 C 
ATOM     21  O   UNL     1      49.288  15.097  16.818  0.00  0.00    -0.460 OA
ATOM     22  C   UNL     1      47.138  14.195  16.423  0.00  0.00    +0.017 C 
ATOM     23  C   UNL     1      46.031  13.725  17.346  0.00  0.00    +0.032 C 
ATOM     24  C   UNL     1      46.233  14.058  18.829  0.00  0.00    -0.038 C 
ATOM     25  C   UNL     1      45.080  13.252  19.497  0.00  0.00    +0.016 C 
ATOM     26  C   UNL     1      46.026  15.537  19.115  0.00  0.00    +0.019 C 
ATOM     27  C   UNL     1      46.866  16.347  18.120  0.00  0.00    +0.001 C 
ATOM     28  C   UNL     1      46.710  17.849  18.319  0.00  0.00    +0.002 C 
ATOM     29  C   UNL     1      47.118  18.246  19.745  0.00  0.00    +0.013 C 
ATOM     30  C   UNL     1      46.999  19.747  19.855  0.00  0.00    +0.001 C 
ENDROOT
BRANCH   3   2
ATOM      1  C   UNL     1      50.569  20.623  21.032  0.00  0.00    +0.070 C 
ATOM      2  C   UNL     1      49.318  20.621  20.192  0.00  0.00    -0.113 C 
ATOM     31  C   UNL     1      49.396  20.815  18.899  0.00  0.00    -0.010 C 
ENDBRANCH   3   2
TORSDOF 1
ENDMDL
MODEL 5
REMARK VINA RESULT:      -6.2      1.686      3.935
REMARK  Name = ZINC95486139
REMARK  8 active torsions:
REMARK  status: ('A' for Active; 'I' for Inactive)
REMARK    1  A    between atoms: C1_1  and  C2_2
REMARK    2  A    between atoms: C2_2  and  C4_4
REMARK    3  A    between atoms: C7_8  and  C30_36
REMARK    4  A    between atoms: C13_17  and  C29_35
REMARK    5  A    between atoms: C17_22  and  C27_33
REMARK    6  A    between atoms: C17_22  and  C28_34
REMARK    7  A    between atoms: C21_27  and  C26_32
REMARK    8  A    between atoms: C22_28  and  C25_31
REMARK                            x       y       z     vdW  Elec       q    Type
REMARK                         _______ _______ _______ _____ _____    ______ ____
ROOT
ATOM      3  C   UNL     1      51.329  18.948  18.458  0.00  0.00    +0.033 C 
ATOM      4  C   UNL     1      52.581  18.048  18.558  0.00  0.00    +0.010 C 
ATOM      5  C   UNL     1      52.186  16.878  19.469  0.00  0.00    +0.004 C 
ATOM      6  C   UNL     1      50.975  17.350  20.322  0.00  0.00    -0.044 C 
ATOM      7  C   UNL     1      51.394  17.437  21.806  0.00  0.00    +0.024 C 
ATOM      8  C   UNL     1      49.906  16.277  20.143  0.00  0.00    +0.005 C 
ATOM      9  C   UNL     1      48.482  16.778  20.330  0.00  0.00    +0.015 C 
ATOM     10  C   UNL     1      48.220  17.932  19.359  0.00  0.00    -0.029 C 
ATOM     11  C   UNL     1      48.535  17.458  17.935  0.00  0.00    +0.020 C 
ATOM     12  C   UNL     1      46.743  18.350  19.396  0.00  0.00    -0.029 C 
ATOM     13  C   UNL     1      45.960  17.108  18.945  0.00  0.00    +0.018 C 
ATOM     14  C   UNL     1      46.478  19.475  18.392  0.00  0.00    +0.019 C 
ATOM     15  C   UNL     1      44.985  19.790  18.371  0.00  0.00    +0.010 C 
ATOM     16  C   UNL     1      44.473  20.255  19.720  0.00  0.00    +0.013 C 
ATOM     17  C   UNL     1      44.614  21.744  19.965  0.00  0.00    -0.095 C 
ATOM     18  C   UNL     1      45.179  22.497  18.754  0.00  0.00    +0.048 C 
ATOM     19  C   UNL     1      43.216  22.332  20.259  0.00  0.00    +0.047 C 
ATOM     20  C   UNL     1      45.504  22.041  21.147  0.00  0.00    +0.380 C 
ATOM     21  O   UNL     1      46.410  22.842  21.040  0.00  0.00    -0.460 OA
ATOM     22  C   UNL     1      45.252  21.346  22.458  0.00  0.00    +0.017 C 
ATOM     23  C   UNL     1      44.606  19.995  22.226  0.00  0.00    +0.032 C 
ATOM     24  C   UNL     1      44.903  19.356  20.864  0.00  0.00    -0.038 C 
ATOM     25  C   UNL     1      43.928  18.141  20.862  0.00  0.00    +0.016 C 
ATOM     26  C   UNL     1      46.330  18.837  20.777  0.00  0.00    +0.019 C 
ATOM     27  C   UNL     1      47.281  19.956  21.222  0.00  0.00    +0.001 C 
ATOM     28  C   UNL     1      48.741  19.523  21.183  0.00  0.00    +0.002 C 
ATOM     29  C   UNL     1      49.131  19.079  19.765  0.00  0.00    +0.013 C 
ATOM     30  C   UNL     1      50.598  18.724  19.784  0.00  0.00    +0.001 C 
ENDROOT
BRANCH   3   2
ATOM      1  C   UNL     1      51.465  21.152  17.055  0.00  0.00    +0.070 C 
ATOM      2  C   UNL     1      51.753  20.395  18.326  0.00  0.00    -0.113 C 
ATOM     31  C   UNL     1      52.371  20.990  19.316  0.00  0.00    -0.010 C 
ENDBRANCH   3   2
TORSDOF 1
ENDMDL
MODEL 6
REMARK VINA RESULT:      -6.2      3.015      5.672
REMARK  Name = ZINC95486139
REMARK  8 active torsions:
REMARK  status: ('A' for Active; 'I' for Inactive)
REMARK    1  A    between atoms: C1_1  and  C2_2
REMARK    2  A    between atoms: C2_2  and  C4_4
REMARK    3  A    between atoms: C7_8  and  C30_36
REMARK    4  A    between atoms: C13_17  and  C29_35
REMARK    5  A    between atoms: C17_22  and  C27_33
REMARK    6  A    between atoms: C17_22  and  C28_34
REMARK    7  A    between atoms: C21_27  and  C26_32
REMARK    8  A    between atoms: C22_28  and  C25_31
REMARK                            x       y       z     vdW  Elec       q    Type
REMARK                         _______ _______ _______ _____ _____    ______ ____
ROOT
ATOM      3  C   UNL     1      51.674  19.263  17.894  0.00  0.00    +0.033 C 
ATOM      4  C   UNL     1      51.962  20.741  18.237  0.00  0.00    +0.010 C 
ATOM      5  C   UNL     1      51.083  21.069  19.451  0.00  0.00    +0.004 C 
ATOM      6  C   UNL     1      49.922  20.035  19.469  0.00  0.00    -0.044 C 
ATOM      7  C   UNL     1      48.584  20.760  19.198  0.00  0.00    +0.024 C 
ATOM      8  C   UNL     1      49.920  19.445  20.875  0.00  0.00    +0.005 C 
ATOM      9  C   UNL     1      49.347  18.038  20.960  0.00  0.00    +0.015 C 
ATOM     10  C   UNL     1      50.124  17.117  20.016  0.00  0.00    -0.029 C 
ATOM     11  C   UNL     1      51.616  17.207  20.358  0.00  0.00    +0.020 C 
ATOM     12  C   UNL     1      49.689  15.656  20.201  0.00  0.00    -0.029 C 
ATOM     13  C   UNL     1      50.036  15.313  21.658  0.00  0.00    +0.018 C 
ATOM     14  C   UNL     1      50.500  14.735  19.285  0.00  0.00    +0.019 C 
ATOM     15  C   UNL     1      50.125  13.284  19.573  0.00  0.00    +0.010 C 
ATOM     16  C   UNL     1      48.658  13.002  19.316  0.00  0.00    +0.013 C 
ATOM     17  C   UNL     1      48.332  12.628  17.884  0.00  0.00    -0.095 C 
ATOM     18  C   UNL     1      49.578  12.532  16.994  0.00  0.00    +0.048 C 
ATOM     19  C   UNL     1      47.655  11.241  17.878  0.00  0.00    +0.047 C 
ATOM     20  C   UNL     1      47.385  13.614  17.244  0.00  0.00    +0.380 C 
ATOM     21  O   UNL     1      47.645  14.088  16.158  0.00  0.00    -0.460 OA
ATOM     22  C   UNL     1      46.115  13.993  17.957  0.00  0.00    +0.017 C 
ATOM     23  C   UNL     1      46.293  13.869  19.458  0.00  0.00    +0.032 C 
ATOM     24  C   UNL     1      47.734  14.022  19.957  0.00  0.00    -0.038 C 
ATOM     25  C   UNL     1      47.598  13.614  21.455  0.00  0.00    +0.016 C 
ATOM     26  C   UNL     1      48.213  15.463  19.885  0.00  0.00    +0.019 C 
ATOM     27  C   UNL     1      47.925  16.001  18.478  0.00  0.00    +0.001 C 
ATOM     28  C   UNL     1      48.358  17.451  18.313  0.00  0.00    +0.002 C 
ATOM     29  C   UNL     1      49.860  17.599  18.599  0.00  0.00    +0.013 C 
ATOM     30  C   UNL     1      50.233  19.042  18.358  0.00  0.00    +0.001 C 
ENDROOT
BRANCH   3   2
ATOM      1  C   UNL     1      51.929  17.666  15.837  0.00  0.00    +0.070 C 
ATOM      2  C   UNL     1      51.786  19.058  16.398  0.00  0.00    -0.113 C 
ATOM     31  C   UNL     1      51.759  20.090  15.591  0.00  0.00    -0.010 C 
ENDBRANCH   3   2
TORSDOF 1
ENDMDL
MODEL 7
REMARK VINA RESULT:      -6.1      2.897      6.054
REMARK  Name = ZINC95486139
REMARK  8 active torsions:
REMARK  status: ('A' for Active; 'I' for Inactive)
REMARK    1  A    between atoms: C1_1  and  C2_2
REMARK    2  A    between atoms: C2_2  and  C4_4
REMARK    3  A    between atoms: C7_8  and  C30_36
REMARK    4  A    between atoms: C13_17  and  C29_35
REMARK    5  A    between atoms: C17_22  and  C27_33
REMARK    6  A    between atoms: C17_22  and  C28_34
REMARK    7  A    between atoms: C21_27  and  C26_32
REMARK    8  A    between atoms: C22_28  and  C25_31
REMARK                            x       y       z     vdW  Elec       q    Type
REMARK                         _______ _______ _______ _____ _____    ______ ____
ROOT
ATOM      3  C   UNL     1      46.428  14.426  18.370  0.00  0.00    +0.033 C 
ATOM      4  C   UNL     1      45.464  13.279  18.748  0.00  0.00    +0.010 C 
ATOM      5  C   UNL     1      45.015  13.565  20.187  0.00  0.00    +0.004 C 
ATOM      6  C   UNL     1      46.086  14.493  20.826  0.00  0.00    -0.044 C 
ATOM      7  C   UNL     1      46.815  13.734  21.957  0.00  0.00    +0.024 C 
ATOM      8  C   UNL     1      45.313  15.674  21.403  0.00  0.00    +0.005 C 
ATOM      9  C   UNL     1      46.120  16.960  21.501  0.00  0.00    +0.015 C 
ATOM     10  C   UNL     1      46.660  17.325  20.116  0.00  0.00    -0.029 C 
ATOM     11  C   UNL     1      45.486  17.397  19.134  0.00  0.00    +0.020 C 
ATOM     12  C   UNL     1      47.334  18.705  20.142  0.00  0.00    -0.029 C 
ATOM     13  C   UNL     1      46.223  19.690  20.539  0.00  0.00    +0.018 C 
ATOM     14  C   UNL     1      47.834  19.084  18.744  0.00  0.00    +0.019 C 
ATOM     15  C   UNL     1      48.395  20.502  18.779  0.00  0.00    +0.010 C 
ATOM     16  C   UNL     1      49.565  20.640  19.733  0.00  0.00    +0.013 C 
ATOM     17  C   UNL     1      50.912  20.300  19.126  0.00  0.00    -0.095 C 
ATOM     18  C   UNL     1      50.825  19.960  17.632  0.00  0.00    +0.048 C 
ATOM     19  C   UNL     1      51.840  21.526  19.264  0.00  0.00    +0.047 C 
ATOM     20  C   UNL     1      51.569  19.135  19.825  0.00  0.00    +0.380 C 
ATOM     21  O   UNL     1      52.004  18.205  19.178  0.00  0.00    -0.460 OA
ATOM     22  C   UNL     1      51.691  19.143  21.325  0.00  0.00    +0.017 C 
ATOM     23  C   UNL     1      50.570  19.955  21.943  0.00  0.00    +0.032 C 
ATOM     24  C   UNL     1      49.292  20.046  21.102  0.00  0.00    -0.038 C 
ATOM     25  C   UNL     1      48.468  21.109  21.887  0.00  0.00    +0.016 C 
ATOM     26  C   UNL     1      48.519  18.736  21.096  0.00  0.00    +0.019 C 
ATOM     27  C   UNL     1      49.487  17.603  20.734  0.00  0.00    +0.001 C 
ATOM     28  C   UNL     1      48.804  16.242  20.717  0.00  0.00    +0.002 C 
ATOM     29  C   UNL     1      47.642  16.236  19.713  0.00  0.00    +0.013 C 
ATOM     30  C   UNL     1      47.052  14.847  19.703  0.00  0.00    +0.001 C 
ENDROOT
BRANCH   3   2
ATOM      1  C   UNL     1      48.733  13.251  17.984  0.00  0.00    +0.070 C 
ATOM      2  C   UNL     1      47.493  13.904  17.430  0.00  0.00    -0.113 C 
ATOM     31  C   UNL     1      47.338  14.022  16.134  0.00  0.00    -0.010 C 
ENDBRANCH   3   2
TORSDOF 1
ENDMDL
MODEL 8
REMARK VINA RESULT:      -6.0      3.272      6.164
REMARK  Name = ZINC95486139
REMARK  8 active torsions:
REMARK  status: ('A' for Active; 'I' for Inactive)
REMARK    1  A    between atoms: C1_1  and  C2_2
REMARK    2  A    between atoms: C2_2  and  C4_4
REMARK    3  A    between atoms: C7_8  and  C30_36
REMARK    4  A    between atoms: C13_17  and  C29_35
REMARK    5  A    between atoms: C17_22  and  C27_33
REMARK    6  A    between atoms: C17_22  and  C28_34
REMARK    7  A    between atoms: C21_27  and  C26_32
REMARK    8  A    between atoms: C22_28  and  C25_31
REMARK                            x       y       z     vdW  Elec       q    Type
REMARK                         _______ _______ _______ _____ _____    ______ ____
ROOT
ATOM      3  C   UNL     1      48.953  13.470  20.292  0.00  0.00    +0.033 C 
ATOM      4  C   UNL     1      48.098  12.252  19.876  0.00  0.00    +0.010 C 
ATOM      5  C   UNL     1      47.591  12.559  18.461  0.00  0.00    +0.004 C 
ATOM      6  C   UNL     1      47.655  14.101  18.275  0.00  0.00    -0.044 C 
ATOM      7  C   UNL     1      46.222  14.664  18.145  0.00  0.00    +0.024 C 
ATOM      8  C   UNL     1      48.424  14.324  16.977  0.00  0.00    +0.005 C 
ATOM      9  C   UNL     1      49.148  15.660  16.904  0.00  0.00    +0.015 C 
ATOM     10  C   UNL     1      50.102  15.785  18.095  0.00  0.00    -0.029 C 
ATOM     11  C   UNL     1      51.033  14.568  18.109  0.00  0.00    +0.020 C 
ATOM     12  C   UNL     1      50.975  17.042  17.963  0.00  0.00    -0.029 C 
ATOM     13  C   UNL     1      51.785  16.837  16.674  0.00  0.00    +0.018 C 
ATOM     14  C   UNL     1      51.956  17.138  19.136  0.00  0.00    +0.019 C 
ATOM     15  C   UNL     1      52.883  18.331  18.918  0.00  0.00    +0.010 C 
ATOM     16  C   UNL     1      52.130  19.645  18.847  0.00  0.00    +0.013 C 
ATOM     17  C   UNL     1      51.879  20.297  20.191  0.00  0.00    -0.095 C 
ATOM     18  C   UNL     1      52.514  19.528  21.356  0.00  0.00    +0.048 C 
ATOM     19  C   UNL     1      52.503  21.710  20.180  0.00  0.00    +0.047 C 
ATOM     20  C   UNL     1      50.405  20.439  20.483  0.00  0.00    +0.380 C 
ATOM     21  O   UNL     1      49.956  20.061  21.546  0.00  0.00    -0.460 OA
ATOM     22  C   UNL     1      49.501  21.064  19.454  0.00  0.00    +0.017 C 
ATOM     23  C   UNL     1      50.052  20.839  18.060  0.00  0.00    +0.032 C 
ATOM     24  C   UNL     1      50.942  19.601  17.903  0.00  0.00    -0.038 C 
ATOM     25  C   UNL     1      51.512  19.796  16.467  0.00  0.00    +0.016 C 
ATOM     26  C   UNL     1      50.137  18.311  17.938  0.00  0.00    +0.019 C 
ATOM     27  C   UNL     1      49.228  18.339  19.174  0.00  0.00    +0.001 C 
ATOM     28  C   UNL     1      48.367  17.089  19.287  0.00  0.00    +0.002 C 
ATOM     29  C   UNL     1      49.248  15.833  19.352  0.00  0.00    +0.013 C 
ATOM     30  C   UNL     1      48.337  14.642  19.524  0.00  0.00    +0.001 C 
ENDROOT
BRANCH   3   2
ATOM      1  C   UNL     1      47.473  13.659  22.441  0.00  0.00    +0.070 C 
ATOM      2  C   UNL     1      48.829  13.691  21.785  0.00  0.00    -0.113 C 
ATOM     31  C   UNL     1      49.901  13.914  22.505  0.00  0.00    -0.010 C 
ENDBRANCH   3   2
TORSDOF 1
ENDMDL
MODEL 9
REMARK VINA RESULT:      -5.9      2.584      6.593
REMARK  Name = ZINC95486139
REMARK  8 active torsions:
REMARK  status: ('A' for Active; 'I' for Inactive)
REMARK    1  A    between atoms: C1_1  and  C2_2
REMARK    2  A    between atoms: C2_2  and  C4_4
REMARK    3  A    between atoms: C7_8  and  C30_36
REMARK    4  A    between atoms: C13_17  and  C29_35
REMARK    5  A    between atoms: C17_22  and  C27_33
REMARK    6  A    between atoms: C17_22  and  C28_34
REMARK    7  A    between atoms: C21_27  and  C26_32
REMARK    8  A    between atoms: C22_28  and  C25_31
REMARK                            x       y       z     vdW  Elec       q    Type
REMARK                         _______ _______ _______ _____ _____    ______ ____
ROOT
ATOM      3  C   UNL     1      44.300  19.706  20.618  0.00  0.00    +0.033 C 
ATOM      4  C   UNL     1      44.263  21.176  21.095  0.00  0.00    +0.010 C 
ATOM      5  C   UNL     1      45.715  21.668  21.053  0.00  0.00    +0.004 C 
ATOM      6  C   UNL     1      46.627  20.411  21.108  0.00  0.00    -0.044 C 
ATOM      7  C   UNL     1      47.414  20.405  22.438  0.00  0.00    +0.024 C 
ATOM      8  C   UNL     1      47.590  20.551  19.933  0.00  0.00    +0.005 C 
ATOM      9  C   UNL     1      48.124  19.229  19.403  0.00  0.00    +0.015 C 
ATOM     10  C   UNL     1      46.949  18.333  19.003  0.00  0.00    -0.029 C 
ATOM     11  C   UNL     1      46.065  19.095  18.009  0.00  0.00    +0.020 C 
ATOM     12  C   UNL     1      47.449  17.060  18.304  0.00  0.00    -0.029 C 
ATOM     13  C   UNL     1      48.177  17.551  17.043  0.00  0.00    +0.018 C 
ATOM     14  C   UNL     1      46.268  16.188  17.868  0.00  0.00    +0.019 C 
ATOM     15  C   UNL     1      46.791  14.991  17.080  0.00  0.00    +0.010 C 
ATOM     16  C   UNL     1      47.721  14.118  17.900  0.00  0.00    +0.013 C 
ATOM     17  C   UNL     1      47.020  13.058  18.725  0.00  0.00    -0.095 C 
ATOM     18  C   UNL     1      45.503  13.031  18.498  0.00  0.00    +0.048 C 
ATOM     19  C   UNL     1      47.569  11.673  18.320  0.00  0.00    +0.047 C 
ATOM     20  C   UNL     1      47.260  13.242  20.204  0.00  0.00    +0.380 C 
ATOM     21  O   UNL     1      46.324  13.241  20.976  0.00  0.00    -0.460 OA
ATOM     22  C   UNL     1      48.667  13.413  20.711  0.00  0.00    +0.017 C 
ATOM     23  C   UNL     1      49.541  14.043  19.645  0.00  0.00    +0.032 C 
ATOM     24  C   UNL     1      48.798  14.908  18.620  0.00  0.00    -0.038 C 
ATOM     25  C   UNL     1      49.915  15.190  17.571  0.00  0.00    +0.016 C 
ATOM     26  C   UNL     1      48.342  16.231  19.215  0.00  0.00    +0.019 C 
ATOM     27  C   UNL     1      47.596  15.943  20.525  0.00  0.00    +0.001 C 
ATOM     28  C   UNL     1      47.111  17.215  21.206  0.00  0.00    +0.002 C 
ATOM     29  C   UNL     1      46.180  18.003  20.272  0.00  0.00    +0.013 C 
ATOM     30  C   UNL     1      45.690  19.214  21.029  0.00  0.00    +0.001 C 
ENDROOT
BRANCH   3   2
ATOM      1  C   UNL     1      41.811  18.926  20.812  0.00  0.00    +0.070 C 
ATOM      2  C   UNL     1      43.226  18.913  21.331  0.00  0.00    -0.113 C 
ATOM     31  C   UNL     1      43.526  18.218  22.400  0.00  0.00    -0.010 C 
ENDBRANCH   3   2
TORSDOF 1
ENDMDL
