MODEL 1
REMARK VINA RESULT:      -4.6      0.000      0.000
REMARK  Name = ZINC03860433
REMARK  20 active torsions:
REMARK  status: ('A' for Active; 'I' for Inactive)
REMARK    1  A    between atoms: C1_1  and  C2_2
REMARK    2  A    between atoms: C2_2  and  C3_3
REMARK    3  A    between atoms: C3_3  and  C4_4
REMARK    4  A    between atoms: C4_4  and  C5_5
REMARK    5  A    between atoms: C5_5  and  C6_7
REMARK    6  A    between atoms: C5_5  and  C8_9
REMARK    7  A    between atoms: C6_7  and  C7_8
REMARK    8  A    between atoms: C8_9  and  O1_10
REMARK    9  A    between atoms: O1_10  and  C9_11
REMARK   10  A    between atoms: C9_11  and  C10_13
REMARK   11  A    between atoms: C15_18  and  C16_19
REMARK   12  A    between atoms: C16_19  and  O4_21
REMARK   13  A    between atoms: O4_21  and  C17_22
REMARK   14  A    between atoms: C17_22  and  C18_23
REMARK   15  A    between atoms: C18_23  and  C19_25
REMARK   16  A    between atoms: C18_23  and  C21_27
REMARK   17  A    between atoms: C19_25  and  C20_26
REMARK   18  A    between atoms: C21_27  and  C22_28
REMARK   19  A    between atoms: C22_28  and  C23_29
REMARK   20  A    between atoms: C23_29  and  C24_30
REMARK                            x       y       z     vdW  Elec       q    Type
REMARK                         _______ _______ _______ _____ _____    ______ ____
ROOT
ATOM      9  C   UNL     1      51.385  19.875  18.309  0.00  0.00    -0.048 A 
ATOM     10  C   UNL     1      51.263  21.122  17.702  0.00  0.00    +0.057 A 
ATOM     11  C   UNL     1      51.468  21.252  16.341  0.00  0.00    +0.056 A 
ATOM     12  C   UNL     1      51.794  20.147  15.573  0.00  0.00    +0.034 A 
ATOM     13  C   UNL     1      51.920  18.901  16.158  0.00  0.00    +0.086 A 
ATOM     14  C   UNL     1      51.722  18.752  17.529  0.00  0.00    -0.083 A 
ENDROOT
BRANCH   9   8
ATOM      8  C   UNL     1      51.167  19.731  19.764  0.00  0.00    +0.508 C 
ATOM     26  O   UNL     1      52.108  19.797  20.529  0.00  0.00    -0.466 OA
BRANCH   8   7
ATOM      7  O   UNL     1      49.924  19.526  20.241  0.00  0.00    -0.344 OA
BRANCH   7   6
ATOM      6  C   UNL     1      49.270  20.642  20.848  0.00  0.00    +0.210 C 
BRANCH   6   5
ATOM      5  C   UNL     1      47.776  20.598  20.520  0.00  0.00    -0.003 C 
BRANCH   5  27
ATOM     27  C   UNL     1      47.075  21.792  21.171  0.00  0.00    +0.010 C 
ATOM     28  C   UNL     1      47.889  22.266  22.376  0.00  0.00    +0.012 C 
ENDBRANCH   5  27
BRANCH   5   4
ATOM      4  C   UNL     1      47.586  20.661  19.003  0.00  0.00    +0.028 C 
BRANCH   4   3
ATOM      3  C   UNL     1      46.136  21.032  18.684  0.00  0.00    -0.000 C 
BRANCH   3   2
ATOM      1  C   UNL     1      43.881  19.972  18.856  0.00  0.00    +0.006 C 
ATOM      2  C   UNL     1      45.331  19.759  18.418  0.00  0.00    -0.002 C 
ENDBRANCH   3   2
ENDBRANCH   4   3
ENDBRANCH   5   4
ENDBRANCH   6   5
ENDBRANCH   7   6
ENDBRANCH   8   7
ENDBRANCH   9   8
BRANCH  14  15
ATOM     15  C   UNL     1      51.861  17.422  18.160  0.00  0.00    +0.498 C 
ATOM     25  O   UNL     1      52.951  17.037  18.532  0.00  0.00    -0.479 OA
BRANCH  15  16
ATOM     16  O   UNL     1      50.778  16.639  18.324  0.00  0.00    -0.343 OA
BRANCH  16  17
ATOM     17  C   UNL     1      49.752  16.735  17.334  0.00  0.00    +0.211 C 
BRANCH  17  18
ATOM     18  C   UNL     1      48.436  17.143  18.000  0.00  0.00    -0.002 C 
BRANCH  18  23
ATOM     23  C   UNL     1      47.286  16.968  17.006  0.00  0.00    +0.011 C 
ATOM     24  C   UNL     1      46.939  15.483  16.886  0.00  0.00    +0.012 C 
ENDBRANCH  18  23
BRANCH  18  19
ATOM     19  C   UNL     1      48.190  16.260  19.225  0.00  0.00    +0.028 C 
BRANCH  19  20
ATOM     20  C   UNL     1      47.315  17.014  20.229  0.00  0.00    -0.000 C 
BRANCH  20  21
ATOM     21  C   UNL     1      46.206  16.088  20.733  0.00  0.00    -0.002 C 
ATOM     22  C   UNL     1      44.843  16.703  20.409  0.00  0.00    +0.007 C 
ENDBRANCH  20  21
ENDBRANCH  19  20
ENDBRANCH  18  19
ENDBRANCH  17  18
ENDBRANCH  16  17
ENDBRANCH  15  16
ENDBRANCH  14  15
TORSDOF 16
ENDMDL
MODEL 2
REMARK VINA RESULT:      -4.6      1.229      4.845
REMARK  Name = ZINC03860433
REMARK  20 active torsions:
REMARK  status: ('A' for Active; 'I' for Inactive)
REMARK    1  A    between atoms: C1_1  and  C2_2
REMARK    2  A    between atoms: C2_2  and  C3_3
REMARK    3  A    between atoms: C3_3  and  C4_4
REMARK    4  A    between atoms: C4_4  and  C5_5
REMARK    5  A    between atoms: C5_5  and  C6_7
REMARK    6  A    between atoms: C5_5  and  C8_9
REMARK    7  A    between atoms: C6_7  and  C7_8
REMARK    8  A    between atoms: C8_9  and  O1_10
REMARK    9  A    between atoms: O1_10  and  C9_11
REMARK   10  A    between atoms: C9_11  and  C10_13
REMARK   11  A    between atoms: C15_18  and  C16_19
REMARK   12  A    between atoms: C16_19  and  O4_21
REMARK   13  A    between atoms: O4_21  and  C17_22
REMARK   14  A    between atoms: C17_22  and  C18_23
REMARK   15  A    between atoms: C18_23  and  C19_25
REMARK   16  A    between atoms: C18_23  and  C21_27
REMARK   17  A    between atoms: C19_25  and  C20_26
REMARK   18  A    between atoms: C21_27  and  C22_28
REMARK   19  A    between atoms: C22_28  and  C23_29
REMARK   20  A    between atoms: C23_29  and  C24_30
REMARK                            x       y       z     vdW  Elec       q    Type
REMARK                         _______ _______ _______ _____ _____    ______ ____
ROOT
ATOM      9  C   UNL     1      51.016  18.988  17.851  0.00  0.00    -0.048 A 
ATOM     10  C   UNL     1      51.740  18.677  16.703  0.00  0.00    +0.057 A 
ATOM     11  C   UNL     1      52.113  19.681  15.829  0.00  0.00    +0.056 A 
ATOM     12  C   UNL     1      51.772  20.997  16.087  0.00  0.00    +0.034 A 
ATOM     13  C   UNL     1      51.054  21.325  17.222  0.00  0.00    +0.086 A 
ATOM     14  C   UNL     1      50.665  20.326  18.111  0.00  0.00    -0.083 A 
ENDROOT
BRANCH   9   8
ATOM      8  C   UNL     1      50.614  17.918  18.790  0.00  0.00    +0.508 C 
ATOM     26  O   UNL     1      51.399  17.516  19.624  0.00  0.00    -0.466 OA
BRANCH   8   7
ATOM      7  O   UNL     1      49.377  17.390  18.718  0.00  0.00    -0.344 OA
BRANCH   7   6
ATOM      6  C   UNL     1      49.159  16.378  17.733  0.00  0.00    +0.210 C 
BRANCH   6   5
ATOM      5  C   UNL     1      47.869  16.679  16.969  0.00  0.00    -0.003 C 
BRANCH   5  27
ATOM     27  C   UNL     1      47.047  15.396  16.830  0.00  0.00    +0.010 C 
ATOM     28  C   UNL     1      47.989  14.198  16.705  0.00  0.00    +0.012 C 
ENDBRANCH   5  27
BRANCH   5   4
ATOM      4  C   UNL     1      47.056  17.725  17.734  0.00  0.00    +0.028 C 
BRANCH   4   3
ATOM      3  C   UNL     1      45.772  17.085  18.267  0.00  0.00    -0.000 C 
BRANCH   3   2
ATOM      1  C   UNL     1      45.086  15.843  20.323  0.00  0.00    +0.006 C 
ATOM      2  C   UNL     1      45.796  17.091  19.797  0.00  0.00    -0.002 C 
ENDBRANCH   3   2
ENDBRANCH   4   3
ENDBRANCH   5   4
ENDBRANCH   6   5
ENDBRANCH   7   6
ENDBRANCH   8   7
ENDBRANCH   9   8
BRANCH  14  15
ATOM     15  C   UNL     1      49.891  20.670  19.324  0.00  0.00    +0.498 C 
ATOM     25  O   UNL     1      50.466  20.884  20.371  0.00  0.00    -0.479 OA
BRANCH  15  16
ATOM     16  O   UNL     1      48.548  20.747  19.265  0.00  0.00    -0.343 OA
BRANCH  16  17
ATOM     17  C   UNL     1      47.819  20.225  20.378  0.00  0.00    +0.211 C 
BRANCH  17  18
ATOM     18  C   UNL     1      46.546  21.048  20.586  0.00  0.00    -0.002 C 
BRANCH  18  23
ATOM     23  C   UNL     1      46.873  22.292  21.414  0.00  0.00    +0.011 C 
ATOM     24  C   UNL     1      45.845  23.385  21.121  0.00  0.00    +0.012 C 
ENDBRANCH  18  23
BRANCH  18  19
ATOM     19  C   UNL     1      45.986  21.473  19.227  0.00  0.00    +0.028 C 
BRANCH  19  20
ATOM     20  C   UNL     1      44.868  20.514  18.813  0.00  0.00    -0.000 C 
BRANCH  20  21
ATOM     21  C   UNL     1      43.775  20.515  19.884  0.00  0.00    -0.002 C 
ATOM     22  C   UNL     1      42.421  20.795  19.229  0.00  0.00    +0.007 C 
ENDBRANCH  20  21
ENDBRANCH  19  20
ENDBRANCH  18  19
ENDBRANCH  17  18
ENDBRANCH  16  17
ENDBRANCH  15  16
ENDBRANCH  14  15
TORSDOF 16
ENDMDL
MODEL 3
REMARK VINA RESULT:      -4.5      2.893      6.554
REMARK  Name = ZINC03860433
REMARK  20 active torsions:
REMARK  status: ('A' for Active; 'I' for Inactive)
REMARK    1  A    between atoms: C1_1  and  C2_2
REMARK    2  A    between atoms: C2_2  and  C3_3
REMARK    3  A    between atoms: C3_3  and  C4_4
REMARK    4  A    between atoms: C4_4  and  C5_5
REMARK    5  A    between atoms: C5_5  and  C6_7
REMARK    6  A    between atoms: C5_5  and  C8_9
REMARK    7  A    between atoms: C6_7  and  C7_8
REMARK    8  A    between atoms: C8_9  and  O1_10
REMARK    9  A    between atoms: O1_10  and  C9_11
REMARK   10  A    between atoms: C9_11  and  C10_13
REMARK   11  A    between atoms: C15_18  and  C16_19
REMARK   12  A    between atoms: C16_19  and  O4_21
REMARK   13  A    between atoms: O4_21  and  C17_22
REMARK   14  A    between atoms: C17_22  and  C18_23
REMARK   15  A    between atoms: C18_23  and  C19_25
REMARK   16  A    between atoms: C18_23  and  C21_27
REMARK   17  A    between atoms: C19_25  and  C20_26
REMARK   18  A    between atoms: C21_27  and  C22_28
REMARK   19  A    between atoms: C22_28  and  C23_29
REMARK   20  A    between atoms: C23_29  and  C24_30
REMARK                            x       y       z     vdW  Elec       q    Type
REMARK                         _______ _______ _______ _____ _____    ______ ____
ROOT
ATOM      9  C   UNL     1      43.334  21.013  19.676  0.00  0.00    -0.048 A 
ATOM     10  C   UNL     1      42.571  22.053  19.151  0.00  0.00    +0.057 A 
ATOM     11  C   UNL     1      41.267  21.820  18.755  0.00  0.00    +0.056 A 
ATOM     12  C   UNL     1      40.712  20.558  18.877  0.00  0.00    +0.034 A 
ATOM     13  C   UNL     1      41.455  19.514  19.396  0.00  0.00    +0.086 A 
ATOM     14  C   UNL     1      42.771  19.729  19.796  0.00  0.00    -0.083 A 
ENDROOT
BRANCH   9   8
ATOM      8  C   UNL     1      44.730  21.257  20.101  0.00  0.00    +0.508 C 
ATOM     26  O   UNL     1      44.985  21.432  21.275  0.00  0.00    -0.466 OA
BRANCH   8   7
ATOM      7  O   UNL     1      45.717  21.285  19.185  0.00  0.00    -0.344 OA
BRANCH   7   6
ATOM      6  C   UNL     1      46.766  20.326  19.332  0.00  0.00    +0.210 C 
BRANCH   6   5
ATOM      5  C   UNL     1      48.023  21.020  19.858  0.00  0.00    -0.003 C 
BRANCH   5  27
ATOM     27  C   UNL     1      48.368  20.470  21.243  0.00  0.00    +0.010 C 
ATOM     28  C   UNL     1      47.658  19.131  21.452  0.00  0.00    +0.012 C 
ENDBRANCH   5  27
BRANCH   5   4
ATOM      4  C   UNL     1      49.188  20.759  18.901  0.00  0.00    +0.028 C 
BRANCH   4   3
ATOM      3  C   UNL     1      50.501  20.739  19.686  0.00  0.00    -0.000 C 
BRANCH   3   2
ATOM      1  C   UNL     1      51.156  21.099  17.303  0.00  0.00    +0.006 C 
ATOM      2  C   UNL     1      51.679  20.826  18.714  0.00  0.00    -0.002 C 
ENDBRANCH   3   2
ENDBRANCH   4   3
ENDBRANCH   5   4
ENDBRANCH   6   5
ENDBRANCH   7   6
ENDBRANCH   8   7
ENDBRANCH   9   8
BRANCH  14  15
ATOM     15  C   UNL     1      43.573  18.614  20.347  0.00  0.00    +0.498 C 
ATOM     25  O   UNL     1      43.517  18.353  21.531  0.00  0.00    -0.479 OA
BRANCH  15  16
ATOM     16  O   UNL     1      44.364  17.889  19.533  0.00  0.00    -0.343 OA
BRANCH  16  17
ATOM     17  C   UNL     1      44.988  16.733  20.097  0.00  0.00    +0.211 C 
BRANCH  17  18
ATOM     18  C   UNL     1      46.325  16.483  19.397  0.00  0.00    -0.002 C 
BRANCH  18  23
ATOM     23  C   UNL     1      46.700  15.005  19.528  0.00  0.00    +0.011 C 
ATOM     24  C   UNL     1      45.444  14.145  19.374  0.00  0.00    +0.012 C 
ENDBRANCH  18  23
BRANCH  18  19
ATOM     19  C   UNL     1      46.201  16.848  17.916  0.00  0.00    +0.028 C 
BRANCH  19  20
ATOM     20  C   UNL     1      47.495  16.475  17.189  0.00  0.00    -0.000 C 
BRANCH  20  21
ATOM     21  C   UNL     1      48.513  17.605  17.349  0.00  0.00    -0.002 C 
ATOM     22  C   UNL     1      49.778  17.061  18.017  0.00  0.00    +0.007 C 
ENDBRANCH  20  21
ENDBRANCH  19  20
ENDBRANCH  18  19
ENDBRANCH  17  18
ENDBRANCH  16  17
ENDBRANCH  15  16
ENDBRANCH  14  15
TORSDOF 16
ENDMDL
MODEL 4
REMARK VINA RESULT:      -4.5      3.005      7.717
REMARK  Name = ZINC03860433
REMARK  20 active torsions:
REMARK  status: ('A' for Active; 'I' for Inactive)
REMARK    1  A    between atoms: C1_1  and  C2_2
REMARK    2  A    between atoms: C2_2  and  C3_3
REMARK    3  A    between atoms: C3_3  and  C4_4
REMARK    4  A    between atoms: C4_4  and  C5_5
REMARK    5  A    between atoms: C5_5  and  C6_7
REMARK    6  A    between atoms: C5_5  and  C8_9
REMARK    7  A    between atoms: C6_7  and  C7_8
REMARK    8  A    between atoms: C8_9  and  O1_10
REMARK    9  A    between atoms: O1_10  and  C9_11
REMARK   10  A    between atoms: C9_11  and  C10_13
REMARK   11  A    between atoms: C15_18  and  C16_19
REMARK   12  A    between atoms: C16_19  and  O4_21
REMARK   13  A    between atoms: O4_21  and  C17_22
REMARK   14  A    between atoms: C17_22  and  C18_23
REMARK   15  A    between atoms: C18_23  and  C19_25
REMARK   16  A    between atoms: C18_23  and  C21_27
REMARK   17  A    between atoms: C19_25  and  C20_26
REMARK   18  A    between atoms: C21_27  and  C22_28
REMARK   19  A    between atoms: C22_28  and  C23_29
REMARK   20  A    between atoms: C23_29  and  C24_30
REMARK                            x       y       z     vdW  Elec       q    Type
REMARK                         _______ _______ _______ _____ _____    ______ ____
ROOT
ATOM      9  C   UNL     1      42.517  19.920  19.876  0.00  0.00    -0.048 A 
ATOM     10  C   UNL     1      41.197  19.682  19.503  0.00  0.00    +0.057 A 
ATOM     11  C   UNL     1      40.469  20.671  18.869  0.00  0.00    +0.056 A 
ATOM     12  C   UNL     1      41.044  21.901  18.601  0.00  0.00    +0.034 A 
ATOM     13  C   UNL     1      42.353  22.156  18.964  0.00  0.00    +0.086 A 
ATOM     14  C   UNL     1      43.100  21.173  19.608  0.00  0.00    -0.083 A 
ENDROOT
BRANCH   9   8
ATOM      8  C   UNL     1      43.300  18.865  20.555  0.00  0.00    +0.508 C 
ATOM     26  O   UNL     1      43.279  18.777  21.766  0.00  0.00    -0.466 OA
BRANCH   8   7
ATOM      7  O   UNL     1      44.036  18.001  19.829  0.00  0.00    -0.344 OA
BRANCH   7   6
ATOM      6  C   UNL     1      44.924  17.143  20.547  0.00  0.00    +0.210 C 
BRANCH   6   5
ATOM      5  C   UNL     1      45.445  16.049  19.612  0.00  0.00    -0.003 C 
BRANCH   5  27
ATOM     27  C   UNL     1      46.945  16.246  19.383  0.00  0.00    +0.010 C 
ATOM     28  C   UNL     1      47.173  16.867  18.004  0.00  0.00    +0.012 C 
ENDBRANCH   5  27
BRANCH   5   4
ATOM      4  C   UNL     1      45.201  14.678  20.246  0.00  0.00    +0.028 C 
BRANCH   4   3
ATOM      3  C   UNL     1      46.096  13.637  19.570  0.00  0.00    -0.000 C 
BRANCH   3   2
ATOM      1  C   UNL     1      46.128  13.052  17.142  0.00  0.00    +0.006 C 
ATOM      2  C   UNL     1      45.323  12.956  18.439  0.00  0.00    -0.002 C 
ENDBRANCH   3   2
ENDBRANCH   4   3
ENDBRANCH   5   4
ENDBRANCH   6   5
ENDBRANCH   7   6
ENDBRANCH   8   7
ENDBRANCH   9   8
BRANCH  14  15
ATOM     15  C   UNL     1      44.500  21.442  20.004  0.00  0.00    +0.498 C 
ATOM     25  O   UNL     1      44.759  21.738  21.152  0.00  0.00    -0.479 OA
BRANCH  15  16
ATOM     16  O   UNL     1      45.486  21.357  19.090  0.00  0.00    -0.343 OA
BRANCH  16  17
ATOM     17  C   UNL     1      46.433  20.301  19.255  0.00  0.00    +0.211 C 
BRANCH  17  18
ATOM     18  C   UNL     1      47.810  20.894  19.562  0.00  0.00    -0.002 C 
BRANCH  18  23
ATOM     23  C   UNL     1      48.055  20.859  21.072  0.00  0.00    +0.011 C 
ATOM     24  C   UNL     1      47.600  19.510  21.631  0.00  0.00    +0.012 C 
ENDBRANCH  18  23
BRANCH  18  19
ATOM     19  C   UNL     1      48.889  20.074  18.851  0.00  0.00    +0.028 C 
BRANCH  19  20
ATOM     20  C   UNL     1      50.117  20.953  18.604  0.00  0.00    -0.000 C 
BRANCH  20  21
ATOM     21  C   UNL     1      51.054  20.254  17.617  0.00  0.00    -0.002 C 
ATOM     22  C   UNL     1      51.428  21.224  16.495  0.00  0.00    +0.007 C 
ENDBRANCH  20  21
ENDBRANCH  19  20
ENDBRANCH  18  19
ENDBRANCH  17  18
ENDBRANCH  16  17
ENDBRANCH  15  16
ENDBRANCH  14  15
TORSDOF 16
ENDMDL
MODEL 5
REMARK VINA RESULT:      -4.4      1.533      2.381
REMARK  Name = ZINC03860433
REMARK  20 active torsions:
REMARK  status: ('A' for Active; 'I' for Inactive)
REMARK    1  A    between atoms: C1_1  and  C2_2
REMARK    2  A    between atoms: C2_2  and  C3_3
REMARK    3  A    between atoms: C3_3  and  C4_4
REMARK    4  A    between atoms: C4_4  and  C5_5
REMARK    5  A    between atoms: C5_5  and  C6_7
REMARK    6  A    between atoms: C5_5  and  C8_9
REMARK    7  A    between atoms: C6_7  and  C7_8
REMARK    8  A    between atoms: C8_9  and  O1_10
REMARK    9  A    between atoms: O1_10  and  C9_11
REMARK   10  A    between atoms: C9_11  and  C10_13
REMARK   11  A    between atoms: C15_18  and  C16_19
REMARK   12  A    between atoms: C16_19  and  O4_21
REMARK   13  A    between atoms: O4_21  and  C17_22
REMARK   14  A    between atoms: C17_22  and  C18_23
REMARK   15  A    between atoms: C18_23  and  C19_25
REMARK   16  A    between atoms: C18_23  and  C21_27
REMARK   17  A    between atoms: C19_25  and  C20_26
REMARK   18  A    between atoms: C21_27  and  C22_28
REMARK   19  A    between atoms: C22_28  and  C23_29
REMARK   20  A    between atoms: C23_29  and  C24_30
REMARK                            x       y       z     vdW  Elec       q    Type
REMARK                         _______ _______ _______ _____ _____    ______ ____
ROOT
ATOM      9  C   UNL     1      50.565  20.241  18.094  0.00  0.00    -0.048 A 
ATOM     10  C   UNL     1      51.161  21.266  17.364  0.00  0.00    +0.057 A 
ATOM     11  C   UNL     1      51.905  20.970  16.237  0.00  0.00    +0.056 A 
ATOM     12  C   UNL     1      52.063  19.657  15.827  0.00  0.00    +0.034 A 
ATOM     13  C   UNL     1      51.478  18.627  16.539  0.00  0.00    +0.086 A 
ATOM     14  C   UNL     1      50.729  18.906  17.679  0.00  0.00    -0.083 A 
ENDROOT
BRANCH   9   8
ATOM      8  C   UNL     1      49.768  20.553  19.300  0.00  0.00    +0.508 C 
ATOM     26  O   UNL     1      50.308  20.613  20.386  0.00  0.00    -0.466 OA
BRANCH   8   7
ATOM      7  O   UNL     1      48.443  20.771  19.193  0.00  0.00    -0.344 OA
BRANCH   7   6
ATOM      6  C   UNL     1      47.591  20.025  20.065  0.00  0.00    +0.210 C 
BRANCH   6   5
ATOM      5  C   UNL     1      46.289  20.798  20.290  0.00  0.00    -0.003 C 
BRANCH   5  27
ATOM     27  C   UNL     1      46.595  22.116  21.003  0.00  0.00    +0.010 C 
ATOM     28  C   UNL     1      45.318  22.953  21.097  0.00  0.00    +0.012 C 
ENDBRANCH   5  27
BRANCH   5   4
ATOM      4  C   UNL     1      45.630  21.089  18.940  0.00  0.00    +0.028 C 
BRANCH   4   3
ATOM      3  C   UNL     1      44.545  20.045  18.665  0.00  0.00    -0.000 C 
BRANCH   3   2
ATOM      1  C   UNL     1      42.356  19.538  19.755  0.00  0.00    +0.006 C 
ATOM      2  C   UNL     1      43.864  19.660  19.980  0.00  0.00    -0.002 C 
ENDBRANCH   3   2
ENDBRANCH   4   3
ENDBRANCH   5   4
ENDBRANCH   6   5
ENDBRANCH   7   6
ENDBRANCH   8   7
ENDBRANCH   9   8
BRANCH  14  15
ATOM     15  C   UNL     1      50.107  17.807  18.448  0.00  0.00    +0.498 C 
ATOM     25  O   UNL     1      50.737  17.242  19.319  0.00  0.00    -0.479 OA
BRANCH  15  16
ATOM     16  O   UNL     1      48.840  17.433  18.183  0.00  0.00    -0.343 OA
BRANCH  16  17
ATOM     17  C   UNL     1      48.664  16.239  17.417  0.00  0.00    +0.211 C 
BRANCH  17  18
ATOM     18  C   UNL     1      47.308  15.613  17.754  0.00  0.00    -0.002 C 
BRANCH  18  23
ATOM     23  C   UNL     1      46.281  16.721  17.993  0.00  0.00    +0.011 C 
ATOM     24  C   UNL     1      45.543  16.458  19.307  0.00  0.00    +0.012 C 
ENDBRANCH  18  23
BRANCH  18  19
ATOM     19  C   UNL     1      46.849  14.734  16.589  0.00  0.00    +0.028 C 
BRANCH  19  20
ATOM     20  C   UNL     1      47.541  13.372  16.674  0.00  0.00    -0.000 C 
BRANCH  20  21
ATOM     21  C   UNL     1      46.881  12.533  17.769  0.00  0.00    -0.002 C 
ATOM     22  C   UNL     1      45.361  12.573  17.594  0.00  0.00    +0.007 C 
ENDBRANCH  20  21
ENDBRANCH  19  20
ENDBRANCH  18  19
ENDBRANCH  17  18
ENDBRANCH  16  17
ENDBRANCH  15  16
ENDBRANCH  14  15
TORSDOF 16
ENDMDL
MODEL 6
REMARK VINA RESULT:      -4.3      3.153      6.592
REMARK  Name = ZINC03860433
REMARK  20 active torsions:
REMARK  status: ('A' for Active; 'I' for Inactive)
REMARK    1  A    between atoms: C1_1  and  C2_2
REMARK    2  A    between atoms: C2_2  and  C3_3
REMARK    3  A    between atoms: C3_3  and  C4_4
REMARK    4  A    between atoms: C4_4  and  C5_5
REMARK    5  A    between atoms: C5_5  and  C6_7
REMARK    6  A    between atoms: C5_5  and  C8_9
REMARK    7  A    between atoms: C6_7  and  C7_8
REMARK    8  A    between atoms: C8_9  and  O1_10
REMARK    9  A    between atoms: O1_10  and  C9_11
REMARK   10  A    between atoms: C9_11  and  C10_13
REMARK   11  A    between atoms: C15_18  and  C16_19
REMARK   12  A    between atoms: C16_19  and  O4_21
REMARK   13  A    between atoms: O4_21  and  C17_22
REMARK   14  A    between atoms: C17_22  and  C18_23
REMARK   15  A    between atoms: C18_23  and  C19_25
REMARK   16  A    between atoms: C18_23  and  C21_27
REMARK   17  A    between atoms: C19_25  and  C20_26
REMARK   18  A    between atoms: C21_27  and  C22_28
REMARK   19  A    between atoms: C22_28  and  C23_29
REMARK   20  A    between atoms: C23_29  and  C24_30
REMARK                            x       y       z     vdW  Elec       q    Type
REMARK                         _______ _______ _______ _____ _____    ______ ____
ROOT
ATOM      9  C   UNL     1      43.077  21.271  19.624  0.00  0.00    -0.048 A 
ATOM     10  C   UNL     1      42.274  22.285  19.109  0.00  0.00    +0.057 A 
ATOM     11  C   UNL     1      41.017  21.988  18.615  0.00  0.00    +0.056 A 
ATOM     12  C   UNL     1      40.549  20.685  18.629  0.00  0.00    +0.034 A 
ATOM     13  C   UNL     1      41.332  19.666  19.137  0.00  0.00    +0.086 A 
ATOM     14  C   UNL     1      42.603  19.946  19.635  0.00  0.00    -0.083 A 
ENDROOT
BRANCH   9   8
ATOM      8  C   UNL     1      44.422  21.585  20.154  0.00  0.00    +0.508 C 
ATOM     26  O   UNL     1      44.606  21.632  21.353  0.00  0.00    -0.466 OA
BRANCH   8   7
ATOM      7  O   UNL     1      45.442  21.817  19.305  0.00  0.00    -0.344 OA
BRANCH   7   6
ATOM      6  C   UNL     1      46.242  20.694  18.930  0.00  0.00    +0.210 C 
BRANCH   6   5
ATOM      5  C   UNL     1      47.576  20.746  19.677  0.00  0.00    -0.003 C 
BRANCH   5  27
ATOM     27  C   UNL     1      47.772  19.449  20.463  0.00  0.00    +0.010 C 
ATOM     28  C   UNL     1      47.175  19.606  21.863  0.00  0.00    +0.012 C 
ENDBRANCH   5  27
BRANCH   5   4
ATOM      4  C   UNL     1      48.717  20.910  18.671  0.00  0.00    +0.028 C 
BRANCH   4   3
ATOM      3  C   UNL     1      50.058  20.718  19.383  0.00  0.00    -0.000 C 
BRANCH   3   2
ATOM      1  C   UNL     1      52.460  20.356  18.803  0.00  0.00    +0.006 C 
ATOM      2  C   UNL     1      51.196  21.141  18.452  0.00  0.00    -0.002 C 
ENDBRANCH   3   2
ENDBRANCH   4   3
ENDBRANCH   5   4
ENDBRANCH   6   5
ENDBRANCH   7   6
ENDBRANCH   8   7
ENDBRANCH   9   8
BRANCH  14  15
ATOM     15  C   UNL     1      43.447  18.858  20.173  0.00  0.00    +0.498 C 
ATOM     25  O   UNL     1      43.372  18.555  21.347  0.00  0.00    -0.479 OA
BRANCH  15  16
ATOM     16  O   UNL     1      44.299  18.203  19.362  0.00  0.00    -0.343 OA
BRANCH  16  17
ATOM     17  C   UNL     1      45.047  17.130  19.937  0.00  0.00    +0.211 C 
BRANCH  17  18
ATOM     18  C   UNL     1      45.798  16.382  18.833  0.00  0.00    -0.002 C 
BRANCH  18  23
ATOM     23  C   UNL     1      46.129  17.351  17.696  0.00  0.00    +0.011 C 
ATOM     24  C   UNL     1      47.643  17.392  17.485  0.00  0.00    +0.012 C 
ENDBRANCH  18  23
BRANCH  18  19
ATOM     19  C   UNL     1      47.095  15.802  19.402  0.00  0.00    +0.028 C 
BRANCH  19  20
ATOM     20  C   UNL     1      46.977  14.279  19.488  0.00  0.00    -0.000 C 
BRANCH  20  21
ATOM     21  C   UNL     1      46.246  13.753  18.252  0.00  0.00    -0.002 C 
ATOM     22  C   UNL     1      45.080  12.864  18.689  0.00  0.00    +0.007 C 
ENDBRANCH  20  21
ENDBRANCH  19  20
ENDBRANCH  18  19
ENDBRANCH  17  18
ENDBRANCH  16  17
ENDBRANCH  15  16
ENDBRANCH  14  15
TORSDOF 16
ENDMDL
MODEL 7
REMARK VINA RESULT:      -4.3      1.528      4.916
REMARK  Name = ZINC03860433
REMARK  20 active torsions:
REMARK  status: ('A' for Active; 'I' for Inactive)
REMARK    1  A    between atoms: C1_1  and  C2_2
REMARK    2  A    between atoms: C2_2  and  C3_3
REMARK    3  A    between atoms: C3_3  and  C4_4
REMARK    4  A    between atoms: C4_4  and  C5_5
REMARK    5  A    between atoms: C5_5  and  C6_7
REMARK    6  A    between atoms: C5_5  and  C8_9
REMARK    7  A    between atoms: C6_7  and  C7_8
REMARK    8  A    between atoms: C8_9  and  O1_10
REMARK    9  A    between atoms: O1_10  and  C9_11
REMARK   10  A    between atoms: C9_11  and  C10_13
REMARK   11  A    between atoms: C15_18  and  C16_19
REMARK   12  A    between atoms: C16_19  and  O4_21
REMARK   13  A    between atoms: O4_21  and  C17_22
REMARK   14  A    between atoms: C17_22  and  C18_23
REMARK   15  A    between atoms: C18_23  and  C19_25
REMARK   16  A    between atoms: C18_23  and  C21_27
REMARK   17  A    between atoms: C19_25  and  C20_26
REMARK   18  A    between atoms: C21_27  and  C22_28
REMARK   19  A    between atoms: C22_28  and  C23_29
REMARK   20  A    between atoms: C23_29  and  C24_30
REMARK                            x       y       z     vdW  Elec       q    Type
REMARK                         _______ _______ _______ _____ _____    ______ ____
ROOT
ATOM      9  C   UNL     1      50.562  18.944  17.698  0.00  0.00    -0.048 A 
ATOM     10  C   UNL     1      51.234  18.590  16.531  0.00  0.00    +0.057 A 
ATOM     11  C   UNL     1      51.882  19.557  15.787  0.00  0.00    +0.056 A 
ATOM     12  C   UNL     1      51.868  20.880  16.192  0.00  0.00    +0.034 A 
ATOM     13  C   UNL     1      51.206  21.250  17.348  0.00  0.00    +0.086 A 
ATOM     14  C   UNL     1      50.543  20.290  18.108  0.00  0.00    -0.083 A 
ENDROOT
BRANCH   9   8
ATOM      8  C   UNL     1      49.867  17.912  18.498  0.00  0.00    +0.508 C 
ATOM     26  O   UNL     1      50.467  17.311  19.366  0.00  0.00    -0.466 OA
BRANCH   8   7
ATOM      7  O   UNL     1      48.569  17.640  18.264  0.00  0.00    -0.344 OA
BRANCH   7   6
ATOM      6  C   UNL     1      48.051  16.427  18.813  0.00  0.00    +0.210 C 
BRANCH   6   5
ATOM      5  C   UNL     1      47.015  16.756  19.890  0.00  0.00    -0.003 C 
BRANCH   5  27
ATOM     27  C   UNL     1      45.672  16.125  19.516  0.00  0.00    +0.010 C 
ATOM     28  C   UNL     1      44.763  16.095  20.745  0.00  0.00    +0.012 C 
ENDBRANCH   5  27
BRANCH   5   4
ATOM      4  C   UNL     1      47.483  16.197  21.235  0.00  0.00    +0.028 C 
BRANCH   4   3
ATOM      3  C   UNL     1      48.431  15.020  20.997  0.00  0.00    -0.000 C 
BRANCH   3   2
ATOM      1  C   UNL     1      46.884  13.409  22.116  0.00  0.00    +0.006 C 
ATOM      2  C   UNL     1      48.289  14.011  22.139  0.00  0.00    -0.002 C 
ENDBRANCH   3   2
ENDBRANCH   4   3
ENDBRANCH   5   4
ENDBRANCH   6   5
ENDBRANCH   7   6
ENDBRANCH   8   7
ENDBRANCH   9   8
BRANCH  14  15
ATOM     15  C   UNL     1      49.828  20.682  19.342  0.00  0.00    +0.498 C 
ATOM     25  O   UNL     1      50.441  20.824  20.380  0.00  0.00    -0.479 OA
BRANCH  15  16
ATOM     16  O   UNL     1      48.496  20.880  19.313  0.00  0.00    -0.343 OA
BRANCH  16  17
ATOM     17  C   UNL     1      47.751  20.444  20.452  0.00  0.00    +0.211 C 
BRANCH  17  18
ATOM     18  C   UNL     1      46.279  20.825  20.274  0.00  0.00    -0.002 C 
BRANCH  18  23
ATOM     23  C   UNL     1      46.027  22.195  20.907  0.00  0.00    +0.011 C 
ATOM     24  C   UNL     1      45.022  22.972  20.055  0.00  0.00    +0.012 C 
ENDBRANCH  18  23
BRANCH  18  19
ATOM     19  C   UNL     1      45.944  20.883  18.782  0.00  0.00    +0.028 C 
BRANCH  19  20
ATOM     20  C   UNL     1      45.155  19.632  18.388  0.00  0.00    -0.000 C 
BRANCH  20  21
ATOM     21  C   UNL     1      43.967  19.459  19.336  0.00  0.00    -0.002 C 
ATOM     22  C   UNL     1      42.765  20.236  18.794  0.00  0.00    +0.007 C 
ENDBRANCH  20  21
ENDBRANCH  19  20
ENDBRANCH  18  19
ENDBRANCH  17  18
ENDBRANCH  16  17
ENDBRANCH  15  16
ENDBRANCH  14  15
TORSDOF 16
ENDMDL
MODEL 8
REMARK VINA RESULT:      -4.1      1.533      2.194
REMARK  Name = ZINC03860433
REMARK  20 active torsions:
REMARK  status: ('A' for Active; 'I' for Inactive)
REMARK    1  A    between atoms: C1_1  and  C2_2
REMARK    2  A    between atoms: C2_2  and  C3_3
REMARK    3  A    between atoms: C3_3  and  C4_4
REMARK    4  A    between atoms: C4_4  and  C5_5
REMARK    5  A    between atoms: C5_5  and  C6_7
REMARK    6  A    between atoms: C5_5  and  C8_9
REMARK    7  A    between atoms: C6_7  and  C7_8
REMARK    8  A    between atoms: C8_9  and  O1_10
REMARK    9  A    between atoms: O1_10  and  C9_11
REMARK   10  A    between atoms: C9_11  and  C10_13
REMARK   11  A    between atoms: C15_18  and  C16_19
REMARK   12  A    between atoms: C16_19  and  O4_21
REMARK   13  A    between atoms: O4_21  and  C17_22
REMARK   14  A    between atoms: C17_22  and  C18_23
REMARK   15  A    between atoms: C18_23  and  C19_25
REMARK   16  A    between atoms: C18_23  and  C21_27
REMARK   17  A    between atoms: C19_25  and  C20_26
REMARK   18  A    between atoms: C21_27  and  C22_28
REMARK   19  A    between atoms: C22_28  and  C23_29
REMARK   20  A    between atoms: C23_29  and  C24_30
REMARK                            x       y       z     vdW  Elec       q    Type
REMARK                         _______ _______ _______ _____ _____    ______ ____
ROOT
ATOM      9  C   UNL     1      50.431  20.195  18.031  0.00  0.00    -0.048 A 
ATOM     10  C   UNL     1      51.231  21.161  17.427  0.00  0.00    +0.057 A 
ATOM     11  C   UNL     1      52.053  20.816  16.371  0.00  0.00    +0.056 A 
ATOM     12  C   UNL     1      52.088  19.513  15.906  0.00  0.00    +0.034 A 
ATOM     13  C   UNL     1      51.301  18.540  16.493  0.00  0.00    +0.086 A 
ATOM     14  C   UNL     1      50.470  18.868  17.561  0.00  0.00    -0.083 A 
ENDROOT
BRANCH   9   8
ATOM      8  C   UNL     1      49.550  20.558  19.161  0.00  0.00    +0.508 C 
ATOM     26  O   UNL     1      50.001  20.622  20.287  0.00  0.00    -0.466 OA
BRANCH   8   7
ATOM      7  O   UNL     1      48.247  20.819  18.941  0.00  0.00    -0.344 OA
BRANCH   7   6
ATOM      6  C   UNL     1      47.405  20.933  20.091  0.00  0.00    +0.210 C 
BRANCH   6   5
ATOM      5  C   UNL     1      46.195  20.010  19.930  0.00  0.00    -0.003 C 
BRANCH   5  27
ATOM     27  C   UNL     1      45.718  19.550  21.309  0.00  0.00    +0.010 C 
ATOM     28  C   UNL     1      46.849  18.803  22.017  0.00  0.00    +0.012 C 
ENDBRANCH   5  27
BRANCH   5   4
ATOM      4  C   UNL     1      45.067  20.767  19.226  0.00  0.00    +0.028 C 
BRANCH   4   3
ATOM      3  C   UNL     1      43.776  19.949  19.304  0.00  0.00    -0.000 C 
BRANCH   3   2
ATOM      1  C   UNL     1      41.284  20.088  19.392  0.00  0.00    +0.006 C 
ATOM      2  C   UNL     1      42.572  20.881  19.165  0.00  0.00    -0.002 C 
ENDBRANCH   3   2
ENDBRANCH   4   3
ENDBRANCH   5   4
ENDBRANCH   6   5
ENDBRANCH   7   6
ENDBRANCH   8   7
ENDBRANCH   9   8
BRANCH  14  15
ATOM     15  C   UNL     1      49.630  17.830  18.197  0.00  0.00    +0.498 C 
ATOM     25  O   UNL     1      49.749  17.593  19.382  0.00  0.00    -0.479 OA
BRANCH  15  16
ATOM     16  O   UNL     1      48.733  17.146  17.460  0.00  0.00    -0.343 OA
BRANCH  16  17
ATOM     17  C   UNL     1      47.399  17.657  17.426  0.00  0.00    +0.211 C 
BRANCH  17  18
ATOM     18  C   UNL     1      46.406  16.502  17.576  0.00  0.00    -0.002 C 
BRANCH  18  23
ATOM     23  C   UNL     1      47.174  15.191  17.754  0.00  0.00    +0.011 C 
ATOM     24  C   UNL     1      46.936  14.292  16.540  0.00  0.00    +0.012 C 
ENDBRANCH  18  23
BRANCH  18  19
ATOM     19  C   UNL     1      45.522  16.746  18.802  0.00  0.00    +0.028 C 
BRANCH  19  20
ATOM     20  C   UNL     1      45.937  15.795  19.927  0.00  0.00    -0.000 C 
BRANCH  20  21
ATOM     21  C   UNL     1      44.851  15.775  21.003  0.00  0.00    -0.002 C 
ATOM     22  C   UNL     1      45.189  14.710  22.049  0.00  0.00    +0.007 C 
ENDBRANCH  20  21
ENDBRANCH  19  20
ENDBRANCH  18  19
ENDBRANCH  17  18
ENDBRANCH  16  17
ENDBRANCH  15  16
ENDBRANCH  14  15
TORSDOF 16
ENDMDL
MODEL 9
REMARK VINA RESULT:      -4.0      1.616      4.939
REMARK  Name = ZINC03860433
REMARK  20 active torsions:
REMARK  status: ('A' for Active; 'I' for Inactive)
REMARK    1  A    between atoms: C1_1  and  C2_2
REMARK    2  A    between atoms: C2_2  and  C3_3
REMARK    3  A    between atoms: C3_3  and  C4_4
REMARK    4  A    between atoms: C4_4  and  C5_5
REMARK    5  A    between atoms: C5_5  and  C6_7
REMARK    6  A    between atoms: C5_5  and  C8_9
REMARK    7  A    between atoms: C6_7  and  C7_8
REMARK    8  A    between atoms: C8_9  and  O1_10
REMARK    9  A    between atoms: O1_10  and  C9_11
REMARK   10  A    between atoms: C9_11  and  C10_13
REMARK   11  A    between atoms: C15_18  and  C16_19
REMARK   12  A    between atoms: C16_19  and  O4_21
REMARK   13  A    between atoms: O4_21  and  C17_22
REMARK   14  A    between atoms: C17_22  and  C18_23
REMARK   15  A    between atoms: C18_23  and  C19_25
REMARK   16  A    between atoms: C18_23  and  C21_27
REMARK   17  A    between atoms: C19_25  and  C20_26
REMARK   18  A    between atoms: C21_27  and  C22_28
REMARK   19  A    between atoms: C22_28  and  C23_29
REMARK   20  A    between atoms: C23_29  and  C24_30
REMARK                            x       y       z     vdW  Elec       q    Type
REMARK                         _______ _______ _______ _____ _____    ______ ____
ROOT
ATOM      9  C   UNL     1      50.927  18.772  17.555  0.00  0.00    -0.048 A 
ATOM     10  C   UNL     1      51.516  18.700  16.295  0.00  0.00    +0.057 A 
ATOM     11  C   UNL     1      51.905  19.857  15.648  0.00  0.00    +0.056 A 
ATOM     12  C   UNL     1      51.714  21.092  16.242  0.00  0.00    +0.034 A 
ATOM     13  C   UNL     1      51.131  21.183  17.493  0.00  0.00    +0.086 A 
ATOM     14  C   UNL     1      50.728  20.029  18.159  0.00  0.00    -0.083 A 
ENDROOT
BRANCH   9   8
ATOM      8  C   UNL     1      50.509  17.537  18.253  0.00  0.00    +0.508 C 
ATOM     26  O   UNL     1      51.059  17.205  19.283  0.00  0.00    -0.466 OA
BRANCH   8   7
ATOM      7  O   UNL     1      49.517  16.781  17.745  0.00  0.00    -0.344 OA
BRANCH   7   6
ATOM      6  C   UNL     1      48.217  17.371  17.684  0.00  0.00    +0.210 C 
BRANCH   6   5
ATOM      5  C   UNL     1      47.417  16.976  18.927  0.00  0.00    -0.003 C 
BRANCH   5  27
ATOM     27  C   UNL     1      45.966  17.434  18.768  0.00  0.00    +0.010 C 
ATOM     28  C   UNL     1      45.921  18.688  17.893  0.00  0.00    +0.012 C 
ENDBRANCH   5  27
BRANCH   5   4
ATOM      4  C   UNL     1      47.457  15.456  19.096  0.00  0.00    +0.028 C 
BRANCH   4   3
ATOM      3  C   UNL     1      46.197  14.841  18.483  0.00  0.00    -0.000 C 
BRANCH   3   2
ATOM      1  C   UNL     1      48.048  13.582  17.376  0.00  0.00    +0.006 C 
ATOM      2  C   UNL     1      46.580  13.998  17.265  0.00  0.00    -0.002 C 
ENDBRANCH   3   2
ENDBRANCH   4   3
ENDBRANCH   5   4
ENDBRANCH   6   5
ENDBRANCH   7   6
ENDBRANCH   8   7
ENDBRANCH   9   8
BRANCH  14  15
ATOM     15  C   UNL     1      50.099  20.121  19.494  0.00  0.00    +0.498 C 
ATOM     25  O   UNL     1      50.791  20.172  20.490  0.00  0.00    -0.479 OA
BRANCH  15  16
ATOM     16  O   UNL     1      48.756  20.149  19.604  0.00  0.00    -0.343 OA
BRANCH  16  17
ATOM     17  C   UNL     1      48.218  20.553  20.864  0.00  0.00    +0.211 C 
BRANCH  17  18
ATOM     18  C   UNL     1      46.690  20.569  20.784  0.00  0.00    -0.002 C 
BRANCH  18  23
ATOM     23  C   UNL     1      46.106  19.985  22.073  0.00  0.00    +0.011 C 
ATOM     24  C   UNL     1      44.780  19.289  21.762  0.00  0.00    +0.012 C 
ENDBRANCH  18  23
BRANCH  18  19
ATOM     19  C   UNL     1      46.203  22.009  20.611  0.00  0.00    +0.028 C 
BRANCH  19  20
ATOM     20  C   UNL     1      45.265  22.089  19.405  0.00  0.00    -0.000 C 
BRANCH  20  21
ATOM     21  C   UNL     1      44.164  23.115  19.683  0.00  0.00    -0.002 C 
ATOM     22  C   UNL     1      44.462  24.403  18.912  0.00  0.00    +0.007 C 
ENDBRANCH  20  21
ENDBRANCH  19  20
ENDBRANCH  18  19
ENDBRANCH  17  18
ENDBRANCH  16  17
ENDBRANCH  15  16
ENDBRANCH  14  15
TORSDOF 16
ENDMDL
