MODEL 1
REMARK VINA RESULT:      -5.9      0.000      0.000
REMARK  Name = ZINC95486046
REMARK  16 active torsions:
REMARK  status: ('A' for Active; 'I' for Inactive)
REMARK    1  A    between atoms: C1_1  and  C2_2
REMARK    2  A    between atoms: C3_4  and  C4_6
REMARK    3  A    between atoms: C3_4  and  C33_57
REMARK    4  A    between atoms: C5_8  and  O10_56
REMARK    5  A    between atoms: C6_10  and  C8_15
REMARK    6  A    between atoms: C12_21  and  C32_55
REMARK    7  A    between atoms: C20_31  and  C31_54
REMARK    8  A    between atoms: C23_34  and  O4_37
REMARK    9  A    between atoms: O4_37  and  C25_38
REMARK   10  A    between atoms: C26_40  and  O9_53
REMARK   11  A    between atoms: C27_42  and  O8_52
REMARK   12  A    between atoms: C28_44  and  O7_51
REMARK   13  A    between atoms: C29_46  and  C30_49
REMARK   14  A    between atoms: C30_49  and  O6_50
REMARK   15  A    between atoms: C33_57  and  C34_58
REMARK   16  A    between atoms: C33_57  and  C35_59
REMARK                            x       y       z     vdW  Elec       q    Type
REMARK                         _______ _______ _______ _____ _____    ______ ____
ROOT
ATOM     12  C   UNL     1      52.752  16.642  19.999  0.00  0.00    +0.019 C 
ATOM     13  C   UNL     1      52.598  15.375  19.117  0.00  0.00    +0.027 C 
ATOM     14  C   UNL     1      51.140  15.394  18.577  0.00  0.00    +0.027 C 
ATOM     15  C   UNL     1      50.776  16.880  18.638  0.00  0.00    +0.027 C 
ATOM     16  C   UNL     1      49.308  17.205  18.716  0.00  0.00    -0.089 C 
ATOM     17  C   UNL     1      48.421  16.285  18.508  0.00  0.00    -0.057 C 
ATOM     18  C   UNL     1      46.944  16.540  18.584  0.00  0.00    +0.059 C 
ATOM     19  C   UNL     1      46.669  18.018  18.281  0.00  0.00    +0.006 C 
ATOM     20  C   UNL     1      47.503  18.885  19.275  0.00  0.00    -0.043 C 
ATOM     21  C   UNL     1      47.144  18.537  20.720  0.00  0.00    +0.026 C 
ATOM     22  C   UNL     1      47.191  20.366  19.041  0.00  0.00    +0.020 C 
ATOM     23  C   UNL     1      45.705  20.626  19.287  0.00  0.00    +0.020 C 
ATOM     24  C   UNL     1      44.879  19.778  18.317  0.00  0.00    +0.144 C 
ATOM     41  C   UNL     1      45.177  18.290  18.494  0.00  0.00    +0.025 C 
ATOM     42  C   UNL     1      48.989  18.645  19.057  0.00  0.00    +0.029 C 
ATOM     43  C   UNL     1      49.788  19.146  20.257  0.00  0.00    +0.027 C 
ATOM     44  C   UNL     1      51.278  18.785  20.139  0.00  0.00    +0.020 C 
ATOM     45  C   UNL     1      51.373  17.282  20.018  0.00  0.00    -0.055 C 
ATOM     46  C   UNL     1      50.537  16.645  21.130  0.00  0.00    +0.030 C 
ENDROOT
BRANCH  12  11
ATOM      7  C   UNL     1      55.297  15.221  21.929  0.00  0.00    +0.180 C 
ATOM      8  C   UNL     1      53.879  14.875  21.416  0.00  0.00    +0.182 C 
ATOM     11  C   UNL     1      53.178  16.255  21.417  0.00  0.00    -0.006 C 
ATOM     47  C   UNL     1      54.249  17.203  21.933  0.00  0.00    +0.487 C 
ATOM     48  O   UNL     1      54.075  18.256  22.499  0.00  0.00    -0.414 OA
ATOM     49  O   UNL     1      55.441  16.628  21.636  0.00  0.00    -0.332 OA
BRANCH   7   3
ATOM      1  C   UNL     1      58.140  15.790  22.505  0.00  0.00    +0.070 C 
ATOM      2  C   UNL     1      57.825  14.700  21.478  0.00  0.00    +0.134 C 
ATOM      3  C   UNL     1      56.353  14.406  21.180  0.00  0.00    +0.014 C 
ATOM     50  O   UNL     1      57.174  13.516  21.943  0.00  0.00    -0.316 OA
BRANCH   3   4
ATOM      4  C   UNL     1      55.984  13.989  19.755  0.00  0.00    +0.023 C 
ATOM      5  C   UNL     1      56.502  12.575  19.486  0.00  0.00    +0.034 C 
ATOM      6  C   UNL     1      56.620  14.962  18.759  0.00  0.00    +0.040 C 
ENDBRANCH   3   4
ENDBRANCH   7   3
BRANCH   8   9
ATOM      9  O   UNL     1      53.225  13.968  22.306  0.00  0.00    -0.543 OA
ATOM     10  H   UNL     1      53.717  13.788  23.118  0.00  0.00    +0.386 HD
ENDBRANCH   8   9
ENDBRANCH  12  11
BRANCH  24  25
ATOM     25  O   UNL     1      43.488  20.027  18.531  0.00  0.00    -0.360 OA
BRANCH  25  26
ATOM     26  C   UNL     1      43.217  20.919  19.614  0.00  0.00    +0.316 C 
ATOM     27  C   UNL     1      41.765  21.395  19.533  0.00  0.00    +0.140 C 
ATOM     30  C   UNL     1      40.831  20.190  19.679  0.00  0.00    +0.153 C 
ATOM     33  C   UNL     1      41.135  19.478  21.000  0.00  0.00    +0.166 C 
ATOM     36  C   UNL     1      42.613  19.076  21.026  0.00  0.00    +0.200 C 
ATOM     40  O   UNL     1      43.425  20.239  20.854  0.00  0.00    -0.372 OA
BRANCH  27  28
ATOM     28  O   UNL     1      41.539  22.026  18.270  0.00  0.00    -0.548 OA
ATOM     29  H   UNL     1      41.089  21.465  17.626  0.00  0.00    +0.386 HD
ENDBRANCH  27  28
BRANCH  30  31
ATOM     31  O   UNL     1      41.040  19.288  18.589  0.00  0.00    -0.529 OA
ATOM     32  H   UNL     1      41.140  18.364  18.856  0.00  0.00    +0.384 HD
ENDBRANCH  30  31
BRANCH  33  34
ATOM     34  O   UNL     1      40.320  18.311  21.114  0.00  0.00    -0.543 OA
ATOM     35  H   UNL     1      40.667  17.648  21.727  0.00  0.00    +0.384 HD
ENDBRANCH  33  34
BRANCH  36  37
ATOM     37  C   UNL     1      42.940  18.418  22.367  0.00  0.00    +0.207 C 
BRANCH  37  38
ATOM     38  O   UNL     1      42.729  17.008  22.269  0.00  0.00    -0.563 OA
ATOM     39  H   UNL     1      41.801  16.753  22.178  0.00  0.00    +0.380 HD
ENDBRANCH  37  38
ENDBRANCH  36  37
ENDBRANCH  25  26
ENDBRANCH  24  25
TORSDOF 11
ENDMDL
MODEL 2
REMARK VINA RESULT:      -5.9      1.934     11.854
REMARK  Name = ZINC95486046
REMARK  16 active torsions:
REMARK  status: ('A' for Active; 'I' for Inactive)
REMARK    1  A    between atoms: C1_1  and  C2_2
REMARK    2  A    between atoms: C3_4  and  C4_6
REMARK    3  A    between atoms: C3_4  and  C33_57
REMARK    4  A    between atoms: C5_8  and  O10_56
REMARK    5  A    between atoms: C6_10  and  C8_15
REMARK    6  A    between atoms: C12_21  and  C32_55
REMARK    7  A    between atoms: C20_31  and  C31_54
REMARK    8  A    between atoms: C23_34  and  O4_37
REMARK    9  A    between atoms: O4_37  and  C25_38
REMARK   10  A    between atoms: C26_40  and  O9_53
REMARK   11  A    between atoms: C27_42  and  O8_52
REMARK   12  A    between atoms: C28_44  and  O7_51
REMARK   13  A    between atoms: C29_46  and  C30_49
REMARK   14  A    between atoms: C30_49  and  O6_50
REMARK   15  A    between atoms: C33_57  and  C34_58
REMARK   16  A    between atoms: C33_57  and  C35_59
REMARK                            x       y       z     vdW  Elec       q    Type
REMARK                         _______ _______ _______ _____ _____    ______ ____
ROOT
ATOM     12  C   UNL     1      45.327  17.087  20.078  0.00  0.00    +0.019 C 
ATOM     13  C   UNL     1      45.517  17.906  18.774  0.00  0.00    +0.027 C 
ATOM     14  C   UNL     1      46.943  17.571  18.253  0.00  0.00    +0.027 C 
ATOM     15  C   UNL     1      47.215  16.197  18.873  0.00  0.00    +0.027 C 
ATOM     16  C   UNL     1      48.661  15.815  19.039  0.00  0.00    -0.089 C 
ATOM     17  C   UNL     1      49.594  16.515  18.474  0.00  0.00    -0.057 C 
ATOM     18  C   UNL     1      51.054  16.196  18.612  0.00  0.00    +0.059 C 
ATOM     19  C   UNL     1      51.220  14.697  18.894  0.00  0.00    +0.006 C 
ATOM     20  C   UNL     1      50.383  14.343  20.162  0.00  0.00    -0.043 C 
ATOM     21  C   UNL     1      50.833  15.188  21.355  0.00  0.00    +0.026 C 
ATOM     22  C   UNL     1      50.590  12.865  20.510  0.00  0.00    +0.020 C 
ATOM     23  C   UNL     1      52.067  12.606  20.805  0.00  0.00    +0.020 C 
ATOM     24  C   UNL     1      52.897  12.953  19.566  0.00  0.00    +0.144 C 
ATOM     41  C   UNL     1      52.701  14.415  19.163  0.00  0.00    +0.025 C 
ATOM     42  C   UNL     1      48.906  14.594  19.900  0.00  0.00    +0.029 C 
ATOM     43  C   UNL     1      48.137  14.652  21.217  0.00  0.00    +0.027 C 
ATOM     44  C   UNL     1      46.669  15.054  21.001  0.00  0.00    +0.020 C 
ATOM     45  C   UNL     1      46.662  16.399  20.313  0.00  0.00    -0.055 C 
ATOM     46  C   UNL     1      47.589  17.347  21.077  0.00  0.00    +0.030 C 
ENDROOT
BRANCH  12  11
ATOM      7  C   UNL     1      43.657  20.012  21.016  0.00  0.00    +0.180 C 
ATOM      8  C   UNL     1      45.102  19.499  20.810  0.00  0.00    +0.182 C 
ATOM     11  C   UNL     1      44.995  18.018  21.247  0.00  0.00    -0.006 C 
ATOM     47  C   UNL     1      43.538  17.867  21.658  0.00  0.00    +0.487 C 
ATOM     48  O   UNL     1      43.084  17.066  22.440  0.00  0.00    -0.414 OA
ATOM     49  O   UNL     1      42.851  18.814  20.972  0.00  0.00    -0.332 OA
BRANCH   7   3
ATOM      1  C   UNL     1      44.428  22.853  21.285  0.00  0.00    +0.070 C 
ATOM      2  C   UNL     1      43.660  22.439  20.028  0.00  0.00    +0.134 C 
ATOM      3  C   UNL     1      43.260  20.968  19.889  0.00  0.00    +0.014 C 
ATOM     50  O   UNL     1      44.308  21.555  19.112  0.00  0.00    -0.316 OA
BRANCH   3   4
ATOM      4  C   UNL     1      41.941  20.651  19.183  0.00  0.00    +0.023 C 
ATOM      5  C   UNL     1      42.213  19.755  17.973  0.00  0.00    +0.034 C 
ATOM      6  C   UNL     1      41.288  21.954  18.715  0.00  0.00    +0.040 C 
ENDBRANCH   3   4
ENDBRANCH   7   3
BRANCH   8   9
ATOM      9  O   UNL     1      46.018  20.213  21.642  0.00  0.00    -0.543 OA
ATOM     10  H   UNL     1      46.947  20.088  21.403  0.00  0.00    +0.386 HD
ENDBRANCH   8   9
ENDBRANCH  12  11
BRANCH  24  25
ATOM     25  O   UNL     1      54.278  12.699  19.830  0.00  0.00    -0.360 OA
BRANCH  25  26
ATOM     26  C   UNL     1      54.578  12.501  21.213  0.00  0.00    +0.316 C 
ATOM     27  C   UNL     1      55.774  11.555  21.346  0.00  0.00    +0.140 C 
ATOM     30  C   UNL     1      57.000  12.199  20.691  0.00  0.00    +0.153 C 
ATOM     33  C   UNL     1      57.260  13.559  21.347  0.00  0.00    +0.166 C 
ATOM     36  C   UNL     1      56.006  14.428  21.215  0.00  0.00    +0.200 C 
ATOM     40  O   UNL     1      54.897  13.756  21.816  0.00  0.00    -0.372 OA
BRANCH  27  28
ATOM     28  O   UNL     1      55.479  10.317  20.694  0.00  0.00    -0.548 OA
ATOM     29  H   UNL     1      55.634   9.537  21.242  0.00  0.00    +0.386 HD
ENDBRANCH  27  28
BRANCH  30  31
ATOM     31  O   UNL     1      56.758  12.379  19.294  0.00  0.00    -0.529 OA
ATOM     32  H   UNL     1      56.898  11.581  18.765  0.00  0.00    +0.384 HD
ENDBRANCH  30  31
BRANCH  33  34
ATOM     34  O   UNL     1      58.358  14.201  20.697  0.00  0.00    -0.543 OA
ATOM     35  H   UNL     1      58.232  14.326  19.746  0.00  0.00    +0.384 HD
ENDBRANCH  33  34
BRANCH  36  37
ATOM     37  C   UNL     1      56.236  15.766  21.920  0.00  0.00    +0.207 C 
BRANCH  37  38
ATOM     38  O   UNL     1      57.133  16.564  21.145  0.00  0.00    -0.563 OA
ATOM     39  H   UNL     1      57.034  16.452  20.189  0.00  0.00    +0.380 HD
ENDBRANCH  37  38
ENDBRANCH  36  37
ENDBRANCH  25  26
ENDBRANCH  24  25
TORSDOF 11
ENDMDL
MODEL 3
REMARK VINA RESULT:      -5.8      1.847     12.058
REMARK  Name = ZINC95486046
REMARK  16 active torsions:
REMARK  status: ('A' for Active; 'I' for Inactive)
REMARK    1  A    between atoms: C1_1  and  C2_2
REMARK    2  A    between atoms: C3_4  and  C4_6
REMARK    3  A    between atoms: C3_4  and  C33_57
REMARK    4  A    between atoms: C5_8  and  O10_56
REMARK    5  A    between atoms: C6_10  and  C8_15
REMARK    6  A    between atoms: C12_21  and  C32_55
REMARK    7  A    between atoms: C20_31  and  C31_54
REMARK    8  A    between atoms: C23_34  and  O4_37
REMARK    9  A    between atoms: O4_37  and  C25_38
REMARK   10  A    between atoms: C26_40  and  O9_53
REMARK   11  A    between atoms: C27_42  and  O8_52
REMARK   12  A    between atoms: C28_44  and  O7_51
REMARK   13  A    between atoms: C29_46  and  C30_49
REMARK   14  A    between atoms: C30_49  and  O6_50
REMARK   15  A    between atoms: C33_57  and  C34_58
REMARK   16  A    between atoms: C33_57  and  C35_59
REMARK                            x       y       z     vdW  Elec       q    Type
REMARK                         _______ _______ _______ _____ _____    ______ ____
ROOT
ATOM     12  C   UNL     1      45.818  19.723  21.253  0.00  0.00    +0.019 C 
ATOM     13  C   UNL     1      45.075  18.368  21.397  0.00  0.00    +0.027 C 
ATOM     14  C   UNL     1      46.176  17.279  21.535  0.00  0.00    +0.027 C 
ATOM     15  C   UNL     1      47.369  18.071  22.079  0.00  0.00    +0.027 C 
ATOM     16  C   UNL     1      48.731  17.484  21.824  0.00  0.00    -0.089 C 
ATOM     17  C   UNL     1      48.851  16.274  21.379  0.00  0.00    -0.057 C 
ATOM     18  C   UNL     1      50.179  15.636  21.092  0.00  0.00    +0.059 C 
ATOM     19  C   UNL     1      51.256  16.291  21.966  0.00  0.00    +0.006 C 
ATOM     20  C   UNL     1      51.233  17.828  21.699  0.00  0.00    -0.043 C 
ATOM     21  C   UNL     1      51.467  18.118  20.215  0.00  0.00    +0.026 C 
ATOM     22  C   UNL     1      52.349  18.500  22.505  0.00  0.00    +0.020 C 
ATOM     23  C   UNL     1      53.706  17.943  22.072  0.00  0.00    +0.020 C 
ATOM     24  C   UNL     1      53.736  16.435  22.329  0.00  0.00    +0.144 C 
ATOM     41  C   UNL     1      52.620  15.723  21.565  0.00  0.00    +0.025 C 
ATOM     42  C   UNL     1      49.892  18.411  22.117  0.00  0.00    +0.029 C 
ATOM     43  C   UNL     1      49.699  19.793  21.497  0.00  0.00    +0.027 C 
ATOM     44  C   UNL     1      48.292  20.349  21.775  0.00  0.00    +0.020 C 
ATOM     45  C   UNL     1      47.295  19.363  21.214  0.00  0.00    -0.055 C 
ATOM     46  C   UNL     1      47.693  19.025  19.775  0.00  0.00    +0.030 C 
ENDROOT
BRANCH  12  11
ATOM      7  C   UNL     1      43.108  20.727  19.286  0.00  0.00    +0.180 C 
ATOM      8  C   UNL     1      44.235  19.667  19.280  0.00  0.00    +0.182 C 
ATOM     11  C   UNL     1      45.406  20.421  19.956  0.00  0.00    -0.006 C 
ATOM     47  C   UNL     1      44.828  21.798  20.246  0.00  0.00    +0.487 C 
ATOM     48  O   UNL     1      45.441  22.832  20.362  0.00  0.00    -0.414 OA
ATOM     49  O   UNL     1      43.486  21.633  20.346  0.00  0.00    -0.332 OA
BRANCH   7   3
ATOM      1  C   UNL     1      40.669  22.100  18.337  0.00  0.00    +0.070 C 
ATOM      2  C   UNL     1      40.496  20.785  19.101  0.00  0.00    +0.134 C 
ATOM      3  C   UNL     1      41.759  20.074  19.592  0.00  0.00    +0.014 C 
ATOM     50  O   UNL     1      40.986  19.591  18.489  0.00  0.00    -0.316 OA
BRANCH   3   4
ATOM      4  C   UNL     1      41.676  19.306  20.912  0.00  0.00    +0.023 C 
ATOM      5  C   UNL     1      41.743  17.803  20.631  0.00  0.00    +0.034 C 
ATOM      6  C   UNL     1      40.356  19.635  21.612  0.00  0.00    +0.040 C 
ENDBRANCH   3   4
ENDBRANCH   7   3
BRANCH   8   9
ATOM      9  O   UNL     1      44.572  19.291  17.944  0.00  0.00    -0.543 OA
ATOM     10  H   UNL     1      45.146  18.514  17.886  0.00  0.00    +0.386 HD
ENDBRANCH   8   9
ENDBRANCH  12  11
BRANCH  24  25
ATOM     25  O   UNL     1      55.007  15.910  21.940  0.00  0.00    -0.360 OA
BRANCH  25  26
ATOM     26  C   UNL     1      54.928  14.796  21.050  0.00  0.00    +0.316 C 
ATOM     27  C   UNL     1      55.559  15.170  19.706  0.00  0.00    +0.140 C 
ATOM     30  C   UNL     1      57.042  15.491  19.918  0.00  0.00    +0.153 C 
ATOM     33  C   UNL     1      57.727  14.285  20.565  0.00  0.00    +0.166 C 
ATOM     36  C   UNL     1      57.012  13.944  21.877  0.00  0.00    +0.200 C 
ATOM     40  O   UNL     1      55.632  13.687  21.612  0.00  0.00    -0.372 OA
BRANCH  27  28
ATOM     28  O   UNL     1      54.893  16.314  19.168  0.00  0.00    -0.548 OA
ATOM     29  H   UNL     1      53.930  16.280  19.242  0.00  0.00    +0.386 HD
ENDBRANCH  27  28
BRANCH  30  31
ATOM     31  O   UNL     1      57.166  16.631  20.773  0.00  0.00    -0.529 OA
ATOM     32  H   UNL     1      57.412  17.444  20.312  0.00  0.00    +0.384 HD
ENDBRANCH  30  31
BRANCH  33  34
ATOM     34  O   UNL     1      59.095  14.599  20.834  0.00  0.00    -0.543 OA
ATOM     35  H   UNL     1      59.249  15.530  21.047  0.00  0.00    +0.384 HD
ENDBRANCH  33  34
BRANCH  36  37
ATOM     37  C   UNL     1      57.654  12.703  22.499  0.00  0.00    +0.207 C 
BRANCH  37  38
ATOM     38  O   UNL     1      58.144  11.850  21.463  0.00  0.00    -0.563 OA
ATOM     39  H   UNL     1      57.770  12.035  20.591  0.00  0.00    +0.380 HD
ENDBRANCH  37  38
ENDBRANCH  36  37
ENDBRANCH  25  26
ENDBRANCH  24  25
TORSDOF 11
ENDMDL
MODEL 4
REMARK VINA RESULT:      -5.3      2.129      3.906
REMARK  Name = ZINC95486046
REMARK  16 active torsions:
REMARK  status: ('A' for Active; 'I' for Inactive)
REMARK    1  A    between atoms: C1_1  and  C2_2
REMARK    2  A    between atoms: C3_4  and  C4_6
REMARK    3  A    between atoms: C3_4  and  C33_57
REMARK    4  A    between atoms: C5_8  and  O10_56
REMARK    5  A    between atoms: C6_10  and  C8_15
REMARK    6  A    between atoms: C12_21  and  C32_55
REMARK    7  A    between atoms: C20_31  and  C31_54
REMARK    8  A    between atoms: C23_34  and  O4_37
REMARK    9  A    between atoms: O4_37  and  C25_38
REMARK   10  A    between atoms: C26_40  and  O9_53
REMARK   11  A    between atoms: C27_42  and  O8_52
REMARK   12  A    between atoms: C28_44  and  O7_51
REMARK   13  A    between atoms: C29_46  and  C30_49
REMARK   14  A    between atoms: C30_49  and  O6_50
REMARK   15  A    between atoms: C33_57  and  C34_58
REMARK   16  A    between atoms: C33_57  and  C35_59
REMARK                            x       y       z     vdW  Elec       q    Type
REMARK                         _______ _______ _______ _____ _____    ______ ____
ROOT
ATOM     12  C   UNL     1      51.815  13.158  20.001  0.00  0.00    +0.019 C 
ATOM     13  C   UNL     1      52.164  13.384  21.496  0.00  0.00    +0.027 C 
ATOM     14  C   UNL     1      51.235  14.529  21.991  0.00  0.00    +0.027 C 
ATOM     15  C   UNL     1      50.054  14.451  21.020  0.00  0.00    +0.027 C 
ATOM     16  C   UNL     1      49.249  15.711  20.847  0.00  0.00    -0.089 C 
ATOM     17  C   UNL     1      49.417  16.713  21.651  0.00  0.00    -0.057 C 
ATOM     18  C   UNL     1      48.656  18.000  21.524  0.00  0.00    +0.059 C 
ATOM     19  C   UNL     1      47.314  17.729  20.832  0.00  0.00    +0.006 C 
ATOM     20  C   UNL     1      47.601  17.039  19.463  0.00  0.00    -0.043 C 
ATOM     21  C   UNL     1      48.507  17.917  18.598  0.00  0.00    +0.026 C 
ATOM     22  C   UNL     1      46.281  16.823  18.717  0.00  0.00    +0.020 C 
ATOM     23  C   UNL     1      45.608  18.171  18.458  0.00  0.00    +0.020 C 
ATOM     24  C   UNL     1      45.324  18.857  19.797  0.00  0.00    +0.144 C 
ATOM     41  C   UNL     1      46.612  19.069  20.591  0.00  0.00    +0.025 C 
ATOM     42  C   UNL     1      48.275  15.694  19.687  0.00  0.00    +0.029 C 
ATOM     43  C   UNL     1      48.924  15.204  18.395  0.00  0.00    +0.027 C 
ATOM     44  C   UNL     1      49.743  13.922  18.621  0.00  0.00    +0.020 C 
ATOM     45  C   UNL     1      50.789  14.228  19.666  0.00  0.00    -0.055 C 
ATOM     46  C   UNL     1      51.514  15.517  19.272  0.00  0.00    +0.030 C 
ENDROOT
BRANCH  12  11
ATOM      7  C   UNL     1      55.246  12.523  19.774  0.00  0.00    +0.180 C 
ATOM      8  C   UNL     1      54.284  13.713  20.003  0.00  0.00    +0.182 C 
ATOM     11  C   UNL     1      53.064  13.329  19.132  0.00  0.00    -0.006 C 
ATOM     47  C   UNL     1      53.469  12.002  18.508  0.00  0.00    +0.487 C 
ATOM     48  O   UNL     1      53.066  11.536  17.469  0.00  0.00    -0.414 OA
ATOM     49  O   UNL     1      54.378  11.448  19.350  0.00  0.00    -0.332 OA
BRANCH   7   3
ATOM      1  C   UNL     1      57.613  14.118  20.542  0.00  0.00    +0.070 C 
ATOM      2  C   UNL     1      57.188  12.978  21.471  0.00  0.00    +0.134 C 
ATOM      3  C   UNL     1      55.963  12.153  21.073  0.00  0.00    +0.014 C 
ATOM     50  O   UNL     1      55.934  13.100  22.145  0.00  0.00    -0.316 OA
BRANCH   3   4
ATOM      4  C   UNL     1      55.957  10.666  21.435  0.00  0.00    +0.023 C 
ATOM      5  C   UNL     1      54.869  10.400  22.477  0.00  0.00    +0.034 C 
ATOM      6  C   UNL     1      57.320  10.277  22.012  0.00  0.00    +0.040 C 
ENDBRANCH   3   4
ENDBRANCH   7   3
BRANCH   8   9
ATOM      9  O   UNL     1      54.871  14.935  19.551  0.00  0.00    -0.543 OA
ATOM     10  H   UNL     1      55.830  14.893  19.439  0.00  0.00    +0.386 HD
ENDBRANCH   8   9
ENDBRANCH  12  11
BRANCH  24  25
ATOM     25  O   UNL     1      44.681  20.111  19.563  0.00  0.00    -0.360 OA
BRANCH  25  26
ATOM     26  C   UNL     1      43.838  20.541  20.633  0.00  0.00    +0.316 C 
ATOM     27  C   UNL     1      44.188  21.983  21.012  0.00  0.00    +0.140 C 
ATOM     30  C   UNL     1      43.919  22.897  19.812  0.00  0.00    +0.153 C 
ATOM     33  C   UNL     1      42.455  22.747  19.387  0.00  0.00    +0.166 C 
ATOM     36  C   UNL     1      42.172  21.275  19.072  0.00  0.00    +0.200 C 
ATOM     40  O   UNL     1      42.472  20.478  20.219  0.00  0.00    -0.372 OA
BRANCH  27  28
ATOM     28  O   UNL     1      45.569  22.060  21.373  0.00  0.00    -0.548 OA
ATOM     29  H   UNL     1      46.080  21.273  21.143  0.00  0.00    +0.386 HD
ENDBRANCH  27  28
BRANCH  30  31
ATOM     31  O   UNL     1      44.774  22.527  18.728  0.00  0.00    -0.529 OA
ATOM     32  H   UNL     1      45.683  22.845  18.818  0.00  0.00    +0.384 HD
ENDBRANCH  30  31
BRANCH  33  34
ATOM     34  O   UNL     1      42.211  23.541  18.225  0.00  0.00    -0.543 OA
ATOM     35  H   UNL     1      42.454  24.471  18.327  0.00  0.00    +0.384 HD
ENDBRANCH  33  34
BRANCH  36  37
ATOM     37  C   UNL     1      40.697  21.107  18.705  0.00  0.00    +0.207 C 
BRANCH  37  38
ATOM     38  O   UNL     1      40.225  22.298  18.071  0.00  0.00    -0.563 OA
ATOM     39  H   UNL     1      40.424  22.347  17.126  0.00  0.00    +0.380 HD
ENDBRANCH  37  38
ENDBRANCH  36  37
ENDBRANCH  25  26
ENDBRANCH  24  25
TORSDOF 11
ENDMDL
MODEL 5
REMARK VINA RESULT:      -5.2      1.369      1.915
REMARK  Name = ZINC95486046
REMARK  16 active torsions:
REMARK  status: ('A' for Active; 'I' for Inactive)
REMARK    1  A    between atoms: C1_1  and  C2_2
REMARK    2  A    between atoms: C3_4  and  C4_6
REMARK    3  A    between atoms: C3_4  and  C33_57
REMARK    4  A    between atoms: C5_8  and  O10_56
REMARK    5  A    between atoms: C6_10  and  C8_15
REMARK    6  A    between atoms: C12_21  and  C32_55
REMARK    7  A    between atoms: C20_31  and  C31_54
REMARK    8  A    between atoms: C23_34  and  O4_37
REMARK    9  A    between atoms: O4_37  and  C25_38
REMARK   10  A    between atoms: C26_40  and  O9_53
REMARK   11  A    between atoms: C27_42  and  O8_52
REMARK   12  A    between atoms: C28_44  and  O7_51
REMARK   13  A    between atoms: C29_46  and  C30_49
REMARK   14  A    between atoms: C30_49  and  O6_50
REMARK   15  A    between atoms: C33_57  and  C34_58
REMARK   16  A    between atoms: C33_57  and  C35_59
REMARK                            x       y       z     vdW  Elec       q    Type
REMARK                         _______ _______ _______ _____ _____    ______ ____
ROOT
ATOM     12  C   UNL     1      52.727  15.554  19.935  0.00  0.00    +0.019 C 
ATOM     13  C   UNL     1      52.452  14.389  18.947  0.00  0.00    +0.027 C 
ATOM     14  C   UNL     1      51.021  14.620  18.387  0.00  0.00    +0.027 C 
ATOM     15  C   UNL     1      50.827  16.129  18.566  0.00  0.00    +0.027 C 
ATOM     16  C   UNL     1      49.404  16.613  18.647  0.00  0.00    -0.089 C 
ATOM     17  C   UNL     1      48.423  15.822  18.347  0.00  0.00    -0.057 C 
ATOM     18  C   UNL     1      46.984  16.240  18.421  0.00  0.00    +0.059 C 
ATOM     19  C   UNL     1      46.887  17.759  18.237  0.00  0.00    +0.006 C 
ATOM     20  C   UNL     1      47.788  18.440  19.314  0.00  0.00    -0.043 C 
ATOM     21  C   UNL     1      47.354  18.019  20.719  0.00  0.00    +0.026 C 
ATOM     22  C   UNL     1      47.653  19.961  19.201  0.00  0.00    +0.020 C 
ATOM     23  C   UNL     1      46.200  20.370  19.443  0.00  0.00    +0.020 C 
ATOM     24  C   UNL     1      45.308  19.705  18.391  0.00  0.00    +0.144 C 
ATOM     41  C   UNL     1      45.431  18.183  18.448  0.00  0.00    +0.025 C 
ATOM     42  C   UNL     1      49.242  18.049  19.102  0.00  0.00    +0.029 C 
ATOM     43  C   UNL     1      50.061  18.355  20.353  0.00  0.00    +0.027 C 
ATOM     44  C   UNL     1      51.503  17.834  20.230  0.00  0.00    +0.020 C 
ATOM     45  C   UNL     1      51.430  16.346  19.985  0.00  0.00    -0.055 C 
ATOM     46  C   UNL     1      50.498  15.721  21.026  0.00  0.00    +0.030 C 
ENDROOT
BRANCH  12  11
ATOM      7  C   UNL     1      54.840  13.417  21.720  0.00  0.00    +0.180 C 
ATOM      8  C   UNL     1      53.368  13.489  21.249  0.00  0.00    +0.182 C 
ATOM     11  C   UNL     1      53.069  15.006  21.322  0.00  0.00    -0.006 C 
ATOM     47  C   UNL     1      54.371  15.606  21.830  0.00  0.00    +0.487 C 
ATOM     48  O   UNL     1      54.504  16.643  22.437  0.00  0.00    -0.414 OA
ATOM     49  O   UNL     1      55.354  14.744  21.470  0.00  0.00    -0.332 OA
BRANCH   7   3
ATOM      1  C   UNL     1      54.582  10.578  22.505  0.00  0.00    +0.070 C 
ATOM      2  C   UNL     1      55.481  10.909  21.312  0.00  0.00    +0.134 C 
ATOM      3  C   UNL     1      55.615  12.378  20.906  0.00  0.00    +0.014 C 
ATOM     50  O   UNL     1      54.861  11.436  20.137  0.00  0.00    -0.316 OA
BRANCH   3   4
ATOM      4  C   UNL     1      56.959  12.843  20.344  0.00  0.00    +0.023 C 
ATOM      5  C   UNL     1      57.837  13.361  21.485  0.00  0.00    +0.034 C 
ATOM      6  C   UNL     1      56.727  13.966  19.330  0.00  0.00    +0.040 C 
ENDBRANCH   3   4
ENDBRANCH   7   3
BRANCH   8   9
ATOM      9  O   UNL     1      52.516  12.757  22.131  0.00  0.00    -0.543 OA
ATOM     10  H   UNL     1      52.527  11.801  21.987  0.00  0.00    +0.386 HD
ENDBRANCH   8   9
ENDBRANCH  12  11
BRANCH  24  25
ATOM     25  O   UNL     1      43.950  20.095  18.603  0.00  0.00    -0.360 OA
BRANCH  25  26
ATOM     26  C   UNL     1      43.718  20.740  19.857  0.00  0.00    +0.316 C 
ATOM     27  C   UNL     1      42.987  22.064  19.623  0.00  0.00    +0.140 C 
ATOM     30  C   UNL     1      41.622  21.780  18.988  0.00  0.00    +0.153 C 
ATOM     33  C   UNL     1      40.834  20.834  19.898  0.00  0.00    +0.166 C 
ATOM     36  C   UNL     1      41.649  19.557  20.123  0.00  0.00    +0.200 C 
ATOM     40  O   UNL     1      42.917  19.896  20.686  0.00  0.00    -0.372 OA
BRANCH  27  28
ATOM     28  O   UNL     1      43.760  22.889  18.748  0.00  0.00    -0.548 OA
ATOM     29  H   UNL     1      44.614  23.157  19.113  0.00  0.00    +0.386 HD
ENDBRANCH  27  28
BRANCH  30  31
ATOM     31  O   UNL     1      41.808  21.170  17.708  0.00  0.00    -0.529 OA
ATOM     32  H   UNL     1      42.723  21.188  17.393  0.00  0.00    +0.384 HD
ENDBRANCH  30  31
BRANCH  33  34
ATOM     34  O   UNL     1      39.588  20.505  19.282  0.00  0.00    -0.543 OA
ATOM     35  H   UNL     1      39.166  19.715  19.648  0.00  0.00    +0.384 HD
ENDBRANCH  33  34
BRANCH  36  37
ATOM     37  C   UNL     1      40.894  18.632  21.079  0.00  0.00    +0.207 C 
BRANCH  37  38
ATOM     38  O   UNL     1      40.210  19.416  22.058  0.00  0.00    -0.563 OA
ATOM     39  H   UNL     1      40.593  20.293  22.199  0.00  0.00    +0.380 HD
ENDBRANCH  37  38
ENDBRANCH  36  37
ENDBRANCH  25  26
ENDBRANCH  24  25
TORSDOF 11
ENDMDL
MODEL 6
REMARK VINA RESULT:      -4.8      2.014     12.113
REMARK  Name = ZINC95486046
REMARK  16 active torsions:
REMARK  status: ('A' for Active; 'I' for Inactive)
REMARK    1  A    between atoms: C1_1  and  C2_2
REMARK    2  A    between atoms: C3_4  and  C4_6
REMARK    3  A    between atoms: C3_4  and  C33_57
REMARK    4  A    between atoms: C5_8  and  O10_56
REMARK    5  A    between atoms: C6_10  and  C8_15
REMARK    6  A    between atoms: C12_21  and  C32_55
REMARK    7  A    between atoms: C20_31  and  C31_54
REMARK    8  A    between atoms: C23_34  and  O4_37
REMARK    9  A    between atoms: O4_37  and  C25_38
REMARK   10  A    between atoms: C26_40  and  O9_53
REMARK   11  A    between atoms: C27_42  and  O8_52
REMARK   12  A    between atoms: C28_44  and  O7_51
REMARK   13  A    between atoms: C29_46  and  C30_49
REMARK   14  A    between atoms: C30_49  and  O6_50
REMARK   15  A    between atoms: C33_57  and  C34_58
REMARK   16  A    between atoms: C33_57  and  C35_59
REMARK                            x       y       z     vdW  Elec       q    Type
REMARK                         _______ _______ _______ _____ _____    ______ ____
ROOT
ATOM     12  C   UNL     1      47.368  19.832  19.132  0.00  0.00    +0.019 C 
ATOM     13  C   UNL     1      47.981  21.129  19.722  0.00  0.00    +0.027 C 
ATOM     14  C   UNL     1      49.425  20.765  20.168  0.00  0.00    +0.027 C 
ATOM     15  C   UNL     1      49.759  19.559  19.285  0.00  0.00    +0.027 C 
ATOM     16  C   UNL     1      50.820  18.626  19.802  0.00  0.00    -0.089 C 
ATOM     17  C   UNL     1      51.555  18.965  20.814  0.00  0.00    -0.057 C 
ATOM     18  C   UNL     1      52.620  18.075  21.386  0.00  0.00    +0.059 C 
ATOM     19  C   UNL     1      53.128  17.127  20.293  0.00  0.00    +0.006 C 
ATOM     20  C   UNL     1      51.908  16.345  19.718  0.00  0.00    -0.043 C 
ATOM     21  C   UNL     1      51.188  15.579  20.829  0.00  0.00    +0.026 C 
ATOM     22  C   UNL     1      52.397  15.337  18.673  0.00  0.00    +0.020 C 
ATOM     23  C   UNL     1      53.357  14.342  19.327  0.00  0.00    +0.020 C 
ATOM     24  C   UNL     1      54.558  15.101  19.897  0.00  0.00    +0.144 C 
ATOM     41  C   UNL     1      54.115  16.141  20.926  0.00  0.00    +0.025 C 
ATOM     42  C   UNL     1      50.931  17.310  19.062  0.00  0.00    +0.029 C 
ATOM     43  C   UNL     1      49.574  16.639  18.869  0.00  0.00    +0.027 C 
ATOM     44  C   UNL     1      48.519  17.631  18.348  0.00  0.00    +0.020 C 
ATOM     45  C   UNL     1      48.425  18.760  19.347  0.00  0.00    -0.055 C 
ATOM     46  C   UNL     1      48.262  18.165  20.747  0.00  0.00    +0.030 C 
ENDROOT
BRANCH  12  11
ATOM      7  C   UNL     1      44.160  20.921  19.995  0.00  0.00    +0.180 C 
ATOM      8  C   UNL     1      45.539  20.687  20.657  0.00  0.00    +0.182 C 
ATOM     11  C   UNL     1      46.081  19.466  19.875  0.00  0.00    -0.006 C 
ATOM     47  C   UNL     1      44.966  19.143  18.891  0.00  0.00    +0.487 C 
ATOM     48  O   UNL     1      44.732  18.071  18.387  0.00  0.00    -0.414 OA
ATOM     49  O   UNL     1      44.285  20.300  18.696  0.00  0.00    -0.332 OA
BRANCH   7   3
ATOM      1  C   UNL     1      41.562  21.731  18.841  0.00  0.00    +0.070 C 
ATOM      2  C   UNL     1      42.536  22.838  19.252  0.00  0.00    +0.134 C 
ATOM      3  C   UNL     1      43.881  22.418  19.849  0.00  0.00    +0.014 C 
ATOM     50  O   UNL     1      42.832  22.981  20.643  0.00  0.00    -0.316 OA
BRANCH   3   4
ATOM      4  C   UNL     1      45.098  23.295  19.551  0.00  0.00    +0.023 C 
ATOM      5  C   UNL     1      45.565  23.975  20.840  0.00  0.00    +0.034 C 
ATOM      6  C   UNL     1      44.718  24.361  18.522  0.00  0.00    +0.040 C 
ENDBRANCH   3   4
ENDBRANCH   7   3
BRANCH   8   9
ATOM      9  O   UNL     1      45.391  20.381  22.044  0.00  0.00    -0.543 OA
ATOM     10  H   UNL     1      45.222  19.446  22.226  0.00  0.00    +0.386 HD
ENDBRANCH   8   9
ENDBRANCH  12  11
BRANCH  24  25
ATOM     25  O   UNL     1      55.466  14.176  20.497  0.00  0.00    -0.360 OA
BRANCH  25  26
ATOM     26  C   UNL     1      55.513  14.248  21.923  0.00  0.00    +0.316 C 
ATOM     27  C   UNL     1      55.561  12.833  22.505  0.00  0.00    +0.140 C 
ATOM     30  C   UNL     1      56.842  12.138  22.033  0.00  0.00    +0.153 C 
ATOM     33  C   UNL     1      58.051  12.979  22.451  0.00  0.00    +0.166 C 
ATOM     36  C   UNL     1      57.907  14.390  21.871  0.00  0.00    +0.200 C 
ATOM     40  O   UNL     1      56.681  14.966  22.325  0.00  0.00    -0.372 OA
BRANCH  27  28
ATOM     28  O   UNL     1      54.422  12.094  22.059  0.00  0.00    -0.548 OA
ATOM     29  H   UNL     1      54.610  11.169  21.852  0.00  0.00    +0.386 HD
ENDBRANCH  27  28
BRANCH  30  31
ATOM     31  O   UNL     1      56.817  12.007  20.609  0.00  0.00    -0.529 OA
ATOM     32  H   UNL     1      56.395  12.748  20.153  0.00  0.00    +0.384 HD
ENDBRANCH  30  31
BRANCH  33  34
ATOM     34  O   UNL     1      59.248  12.377  21.953  0.00  0.00    -0.543 OA
ATOM     35  H   UNL     1      59.482  11.548  22.392  0.00  0.00    +0.384 HD
ENDBRANCH  33  34
BRANCH  36  37
ATOM     37  C   UNL     1      59.081  15.253  22.334  0.00  0.00    +0.207 C 
BRANCH  37  38
ATOM     38  O   UNL     1      58.699  16.630  22.307  0.00  0.00    -0.563 OA
ATOM     39  H   UNL     1      59.415  17.233  22.061  0.00  0.00    +0.380 HD
ENDBRANCH  37  38
ENDBRANCH  36  37
ENDBRANCH  25  26
ENDBRANCH  24  25
TORSDOF 11
ENDMDL
MODEL 7
REMARK VINA RESULT:      -4.4      1.819     11.889
REMARK  Name = ZINC95486046
REMARK  16 active torsions:
REMARK  status: ('A' for Active; 'I' for Inactive)
REMARK    1  A    between atoms: C1_1  and  C2_2
REMARK    2  A    between atoms: C3_4  and  C4_6
REMARK    3  A    between atoms: C3_4  and  C33_57
REMARK    4  A    between atoms: C5_8  and  O10_56
REMARK    5  A    between atoms: C6_10  and  C8_15
REMARK    6  A    between atoms: C12_21  and  C32_55
REMARK    7  A    between atoms: C20_31  and  C31_54
REMARK    8  A    between atoms: C23_34  and  O4_37
REMARK    9  A    between atoms: O4_37  and  C25_38
REMARK   10  A    between atoms: C26_40  and  O9_53
REMARK   11  A    between atoms: C27_42  and  O8_52
REMARK   12  A    between atoms: C28_44  and  O7_51
REMARK   13  A    between atoms: C29_46  and  C30_49
REMARK   14  A    between atoms: C30_49  and  O6_50
REMARK   15  A    between atoms: C33_57  and  C34_58
REMARK   16  A    between atoms: C33_57  and  C35_59
REMARK                            x       y       z     vdW  Elec       q    Type
REMARK                         _______ _______ _______ _____ _____    ______ ____
ROOT
ATOM     12  C   UNL     1      46.027  19.306  21.282  0.00  0.00    +0.019 C 
ATOM     13  C   UNL     1      45.128  18.052  21.445  0.00  0.00    +0.027 C 
ATOM     14  C   UNL     1      46.092  16.840  21.586  0.00  0.00    +0.027 C 
ATOM     15  C   UNL     1      47.376  17.488  22.111  0.00  0.00    +0.027 C 
ATOM     16  C   UNL     1      48.655  16.739  21.851  0.00  0.00    -0.089 C 
ATOM     17  C   UNL     1      48.625  15.519  21.417  0.00  0.00    -0.057 C 
ATOM     18  C   UNL     1      49.864  14.723  21.126  0.00  0.00    +0.059 C 
ATOM     19  C   UNL     1      51.020  15.253  21.983  0.00  0.00    +0.006 C 
ATOM     20  C   UNL     1      51.179  16.779  21.700  0.00  0.00    -0.043 C 
ATOM     21  C   UNL     1      51.432  17.025  20.212  0.00  0.00    +0.026 C 
ATOM     22  C   UNL     1      52.375  17.319  22.490  0.00  0.00    +0.020 C 
ATOM     23  C   UNL     1      53.651  16.599  22.052  0.00  0.00    +0.020 C 
ATOM     24  C   UNL     1      53.502  15.101  22.324  0.00  0.00    +0.144 C 
ATOM     41  C   UNL     1      52.302  14.521  21.577  0.00  0.00    +0.025 C 
ATOM     42  C   UNL     1      49.922  17.523  22.124  0.00  0.00    +0.029 C 
ATOM     43  C   UNL     1      49.891  18.912  21.492  0.00  0.00    +0.027 C 
ATOM     44  C   UNL     1      48.563  19.635  21.775  0.00  0.00    +0.020 C 
ATOM     45  C   UNL     1      47.449  18.771  21.233  0.00  0.00    -0.055 C 
ATOM     46  C   UNL     1      47.790  18.375  19.795  0.00  0.00    +0.030 C 
ENDROOT
BRANCH  12  11
ATOM      7  C   UNL     1      43.431  20.502  19.268  0.00  0.00    +0.180 C 
ATOM      8  C   UNL     1      44.483  19.368  19.278  0.00  0.00    +0.182 C 
ATOM     11  C   UNL     1      45.689  20.037  19.980  0.00  0.00    -0.006 C 
ATOM     47  C   UNL     1      45.201  21.449  20.268  0.00  0.00    +0.487 C 
ATOM     48  O   UNL     1      45.880  22.438  20.402  0.00  0.00    -0.414 OA
ATOM     49  O   UNL     1      43.848  21.375  20.341  0.00  0.00    -0.332 OA
BRANCH   7   3
ATOM      1  C   UNL     1      41.108  22.188  18.563  0.00  0.00    +0.070 C 
ATOM      2  C   UNL     1      40.832  20.815  19.179  0.00  0.00    +0.134 C 
ATOM      3  C   UNL     1      42.034  19.942  19.544  0.00  0.00    +0.014 C 
ATOM     50  O   UNL     1      41.195  19.660  18.420  0.00  0.00    -0.316 OA
BRANCH   3   4
ATOM      4  C   UNL     1      41.912  19.036  20.770  0.00  0.00    +0.023 C 
ATOM      5  C   UNL     1      40.462  18.574  20.921  0.00  0.00    +0.034 C 
ATOM      6  C   UNL     1      42.332  19.812  22.021  0.00  0.00    +0.040 C 
ENDBRANCH   3   4
ENDBRANCH   7   3
BRANCH   8   9
ATOM      9  O   UNL     1      44.820  18.976  17.946  0.00  0.00    -0.543 OA
ATOM     10  H   UNL     1      44.495  18.099  17.699  0.00  0.00    +0.386 HD
ENDBRANCH   8   9
ENDBRANCH  12  11
BRANCH  24  25
ATOM     25  O   UNL     1      54.698  14.424  21.930  0.00  0.00    -0.360 OA
BRANCH  25  26
ATOM     26  C   UNL     1      54.963  14.482  20.527  0.00  0.00    +0.316 C 
ATOM     27  C   UNL     1      56.475  14.436  20.290  0.00  0.00    +0.140 C 
ATOM     30  C   UNL     1      57.026  13.105  20.813  0.00  0.00    +0.153 C 
ATOM     33  C   UNL     1      56.294  11.954  20.118  0.00  0.00    +0.166 C 
ATOM     36  C   UNL     1      54.788  12.095  20.360  0.00  0.00    +0.200 C 
ATOM     40  O   UNL     1      54.347  13.367  19.879  0.00  0.00    -0.372 OA
BRANCH  27  28
ATOM     28  O   UNL     1      57.099  15.519  20.983  0.00  0.00    -0.548 OA
ATOM     29  H   UNL     1      56.519  15.971  21.610  0.00  0.00    +0.386 HD
ENDBRANCH  27  28
BRANCH  30  31
ATOM     31  O   UNL     1      56.817  13.024  22.225  0.00  0.00    -0.529 OA
ATOM     32  H   UNL     1      56.848  13.878  22.677  0.00  0.00    +0.384 HD
ENDBRANCH  30  31
BRANCH  33  34
ATOM     34  O   UNL     1      56.749  10.708  20.649  0.00  0.00    -0.543 OA
ATOM     35  H   UNL     1      56.516  10.569  21.577  0.00  0.00    +0.384 HD
ENDBRANCH  33  34
BRANCH  36  37
ATOM     37  C   UNL     1      54.045  10.983  19.619  0.00  0.00    +0.207 C 
BRANCH  37  38
ATOM     38  O   UNL     1      54.257  11.123  18.213  0.00  0.00    -0.563 OA
ATOM     39  H   UNL     1      53.751  10.499  17.675  0.00  0.00    +0.380 HD
ENDBRANCH  37  38
ENDBRANCH  36  37
ENDBRANCH  25  26
ENDBRANCH  24  25
TORSDOF 11
ENDMDL
MODEL 8
REMARK VINA RESULT:      -4.1      2.339      3.869
REMARK  Name = ZINC95486046
REMARK  16 active torsions:
REMARK  status: ('A' for Active; 'I' for Inactive)
REMARK    1  A    between atoms: C1_1  and  C2_2
REMARK    2  A    between atoms: C3_4  and  C4_6
REMARK    3  A    between atoms: C3_4  and  C33_57
REMARK    4  A    between atoms: C5_8  and  O10_56
REMARK    5  A    between atoms: C6_10  and  C8_15
REMARK    6  A    between atoms: C12_21  and  C32_55
REMARK    7  A    between atoms: C20_31  and  C31_54
REMARK    8  A    between atoms: C23_34  and  O4_37
REMARK    9  A    between atoms: O4_37  and  C25_38
REMARK   10  A    between atoms: C26_40  and  O9_53
REMARK   11  A    between atoms: C27_42  and  O8_52
REMARK   12  A    between atoms: C28_44  and  O7_51
REMARK   13  A    between atoms: C29_46  and  C30_49
REMARK   14  A    between atoms: C30_49  and  O6_50
REMARK   15  A    between atoms: C33_57  and  C34_58
REMARK   16  A    between atoms: C33_57  and  C35_59
REMARK                            x       y       z     vdW  Elec       q    Type
REMARK                         _______ _______ _______ _____ _____    ______ ____
ROOT
ATOM     12  C   UNL     1      53.508  15.711  21.229  0.00  0.00    +0.019 C 
ATOM     13  C   UNL     1      53.836  15.412  19.743  0.00  0.00    +0.027 C 
ATOM     14  C   UNL     1      52.790  16.194  18.899  0.00  0.00    +0.027 C 
ATOM     15  C   UNL     1      52.369  17.323  19.845  0.00  0.00    +0.027 C 
ATOM     16  C   UNL     1      51.016  17.933  19.594  0.00  0.00    -0.089 C 
ATOM     17  C   UNL     1      50.368  17.667  18.504  0.00  0.00    -0.057 C 
ATOM     18  C   UNL     1      49.011  18.231  18.201  0.00  0.00    +0.059 C 
ATOM     19  C   UNL     1      48.836  19.560  18.947  0.00  0.00    +0.006 C 
ATOM     20  C   UNL     1      49.078  19.303  20.466  0.00  0.00    -0.043 C 
ATOM     21  C   UNL     1      48.112  18.239  20.991  0.00  0.00    +0.026 C 
ATOM     22  C   UNL     1      48.838  20.600  21.245  0.00  0.00    +0.020 C 
ATOM     23  C   UNL     1      47.394  21.062  21.046  0.00  0.00    +0.020 C 
ATOM     24  C   UNL     1      47.148  21.315  19.557  0.00  0.00    +0.144 C 
ATOM     41  C   UNL     1      47.402  20.053  18.734  0.00  0.00    +0.025 C 
ATOM     42  C   UNL     1      50.507  18.838  20.697  0.00  0.00    +0.029 C 
ATOM     43  C   UNL     1      50.640  18.199  22.076  0.00  0.00    +0.027 C 
ATOM     44  C   UNL     1      52.034  17.581  22.285  0.00  0.00    +0.020 C 
ATOM     45  C   UNL     1      52.246  16.558  21.195  0.00  0.00    -0.055 C 
ATOM     46  C   UNL     1      51.023  15.638  21.139  0.00  0.00    +0.030 C 
ENDROOT
BRANCH  12  11
ATOM      7  C   UNL     1      52.661  12.334  20.908  0.00  0.00    +0.180 C 
ATOM      8  C   UNL     1      52.034  13.661  21.398  0.00  0.00    +0.182 C 
ATOM     11  C   UNL     1      53.253  14.408  21.990  0.00  0.00    -0.006 C 
ATOM     47  C   UNL     1      54.405  13.434  21.789  0.00  0.00    +0.487 C 
ATOM     48  O   UNL     1      55.421  13.369  22.437  0.00  0.00    -0.414 OA
ATOM     49  O   UNL     1      54.060  12.651  20.736  0.00  0.00    -0.332 OA
BRANCH   7   3
ATOM      1  C   UNL     1      50.539  10.277  20.976  0.00  0.00    +0.070 C 
ATOM      2  C   UNL     1      50.942  10.841  19.612  0.00  0.00    +0.134 C 
ATOM      3  C   UNL     1      52.040  11.906  19.576  0.00  0.00    +0.014 C 
ATOM     50  O   UNL     1      50.662  12.218  19.351  0.00  0.00    -0.316 OA
BRANCH   3   4
ATOM      4  C   UNL     1      52.980  11.921  18.370  0.00  0.00    +0.023 C 
ATOM      5  C   UNL     1      52.169  12.155  17.094  0.00  0.00    +0.034 C 
ATOM      6  C   UNL     1      53.705  10.576  18.272  0.00  0.00    +0.040 C 
ENDBRANCH   3   4
ENDBRANCH   7   3
BRANCH   8   9
ATOM      9  O   UNL     1      51.046  13.417  22.401  0.00  0.00    -0.543 OA
ATOM     10  H   UNL     1      51.045  12.511  22.740  0.00  0.00    +0.386 HD
ENDBRANCH   8   9
ENDBRANCH  12  11
BRANCH  24  25
ATOM     25  O   UNL     1      45.804  21.762  19.365  0.00  0.00    -0.360 OA
BRANCH  25  26
ATOM     26  C   UNL     1      44.973  21.617  20.519  0.00  0.00    +0.316 C 
ATOM     27  C   UNL     1      44.400  22.982  20.910  0.00  0.00    +0.140 C 
ATOM     30  C   UNL     1      43.523  23.506  19.768  0.00  0.00    +0.153 C 
ATOM     33  C   UNL     1      42.426  22.479  19.470  0.00  0.00    +0.166 C 
ATOM     36  C   UNL     1      43.076  21.133  19.134  0.00  0.00    +0.200 C 
ATOM     40  O   UNL     1      43.902  20.720  20.225  0.00  0.00    -0.372 OA
BRANCH  27  28
ATOM     28  O   UNL     1      45.471  23.898  21.150  0.00  0.00    -0.548 OA
ATOM     29  H   UNL     1      46.277  23.699  20.657  0.00  0.00    +0.386 HD
ENDBRANCH  27  28
BRANCH  30  31
ATOM     31  O   UNL     1      44.326  23.704  18.602  0.00  0.00    -0.529 OA
ATOM     32  H   UNL     1      44.565  22.886  18.145  0.00  0.00    +0.384 HD
ENDBRANCH  30  31
BRANCH  33  34
ATOM     34  O   UNL     1      41.646  22.923  18.359  0.00  0.00    -0.543 OA
ATOM     35  H   UNL     1      40.728  23.132  18.582  0.00  0.00    +0.384 HD
ENDBRANCH  33  34
BRANCH  36  37
ATOM     37  C   UNL     1      41.986  20.088  18.893  0.00  0.00    +0.207 C 
BRANCH  37  38
ATOM     38  O   UNL     1      40.923  20.284  19.828  0.00  0.00    -0.563 OA
ATOM     39  H   UNL     1      40.138  19.746  19.650  0.00  0.00    +0.380 HD
ENDBRANCH  37  38
ENDBRANCH  36  37
ENDBRANCH  25  26
ENDBRANCH  24  25
TORSDOF 11
ENDMDL
MODEL 9
REMARK VINA RESULT:      -3.0      1.669     11.828
REMARK  Name = ZINC95486046
REMARK  16 active torsions:
REMARK  status: ('A' for Active; 'I' for Inactive)
REMARK    1  A    between atoms: C1_1  and  C2_2
REMARK    2  A    between atoms: C3_4  and  C4_6
REMARK    3  A    between atoms: C3_4  and  C33_57
REMARK    4  A    between atoms: C5_8  and  O10_56
REMARK    5  A    between atoms: C6_10  and  C8_15
REMARK    6  A    between atoms: C12_21  and  C32_55
REMARK    7  A    between atoms: C20_31  and  C31_54
REMARK    8  A    between atoms: C23_34  and  O4_37
REMARK    9  A    between atoms: O4_37  and  C25_38
REMARK   10  A    between atoms: C26_40  and  O9_53
REMARK   11  A    between atoms: C27_42  and  O8_52
REMARK   12  A    between atoms: C28_44  and  O7_51
REMARK   13  A    between atoms: C29_46  and  C30_49
REMARK   14  A    between atoms: C30_49  and  O6_50
REMARK   15  A    between atoms: C33_57  and  C34_58
REMARK   16  A    between atoms: C33_57  and  C35_59
REMARK                            x       y       z     vdW  Elec       q    Type
REMARK                         _______ _______ _______ _____ _____    ______ ____
ROOT
ATOM     12  C   UNL     1      46.286  21.000  20.419  0.00  0.00    +0.019 C 
ATOM     13  C   UNL     1      45.430  20.265  21.484  0.00  0.00    +0.027 C 
ATOM     14  C   UNL     1      46.248  19.014  21.913  0.00  0.00    +0.027 C 
ATOM     15  C   UNL     1      47.687  19.421  21.585  0.00  0.00    +0.027 C 
ATOM     16  C   UNL     1      48.662  18.298  21.355  0.00  0.00    -0.089 C 
ATOM     17  C   UNL     1      48.340  17.079  21.651  0.00  0.00    -0.057 C 
ATOM     18  C   UNL     1      49.261  15.914  21.433  0.00  0.00    +0.059 C 
ATOM     19  C   UNL     1      50.714  16.403  21.471  0.00  0.00    +0.006 C 
ATOM     20  C   UNL     1      50.878  17.532  20.407  0.00  0.00    -0.043 C 
ATOM     21  C   UNL     1      50.498  17.019  19.017  0.00  0.00    +0.026 C 
ATOM     22  C   UNL     1      52.340  17.989  20.372  0.00  0.00    +0.020 C 
ATOM     23  C   UNL     1      53.239  16.814  19.987  0.00  0.00    +0.020 C 
ATOM     24  C   UNL     1      53.083  15.700  21.025  0.00  0.00    +0.144 C 
ATOM     41  C   UNL     1      51.631  15.230  21.115  0.00  0.00    +0.025 C 
ATOM     42  C   UNL     1      49.991  18.716  20.762  0.00  0.00    +0.029 C 
ATOM     43  C   UNL     1      49.822  19.632  19.553  0.00  0.00    +0.027 C 
ATOM     44  C   UNL     1      48.812  20.758  19.829  0.00  0.00    +0.020 C 
ATOM     45  C   UNL     1      47.499  20.110  20.201  0.00  0.00    -0.055 C 
ATOM     46  C   UNL     1      47.162  19.046  19.154  0.00  0.00    +0.030 C 
ENDROOT
BRANCH  12  11
ATOM      7  C   UNL     1      43.127  20.741  18.945  0.00  0.00    +0.180 C 
ATOM      8  C   UNL     1      44.482  19.996  18.956  0.00  0.00    +0.182 C 
ATOM     11  C   UNL     1      45.498  21.152  19.116  0.00  0.00    -0.006 C 
ATOM     47  C   UNL     1      44.624  22.397  19.160  0.00  0.00    +0.487 C 
ATOM     48  O   UNL     1      44.944  23.520  18.852  0.00  0.00    -0.414 OA
ATOM     49  O   UNL     1      43.410  21.992  19.610  0.00  0.00    -0.332 OA
BRANCH   7   3
ATOM      1  C   UNL     1      43.898  18.094  20.009  0.00  0.00    +0.070 C 
ATOM      2  C   UNL     1      42.470  18.578  20.269  0.00  0.00    +0.134 C 
ATOM      3  C   UNL     1      42.071  19.949  19.718  0.00  0.00    +0.014 C 
ATOM     50  O   UNL     1      42.297  19.719  21.112  0.00  0.00    -0.316 OA
BRANCH   3   4
ATOM      4  C   UNL     1      40.626  20.136  19.252  0.00  0.00    +0.023 C 
ATOM      5  C   UNL     1      40.422  19.411  17.920  0.00  0.00    +0.034 C 
ATOM      6  C   UNL     1      40.340  21.629  19.069  0.00  0.00    +0.040 C 
ENDBRANCH   3   4
ENDBRANCH   7   3
BRANCH   8   9
ATOM      9  O   UNL     1      44.690  19.300  17.726  0.00  0.00    -0.543 OA
ATOM     10  H   UNL     1      45.448  19.616  17.217  0.00  0.00    +0.386 HD
ENDBRANCH   8   9
ENDBRANCH  12  11
BRANCH  24  25
ATOM     25  O   UNL     1      53.932  14.604  20.679  0.00  0.00    -0.360 OA
BRANCH  25  26
ATOM     26  C   UNL     1      54.450  13.892  21.804  0.00  0.00    +0.316 C 
ATOM     27  C   UNL     1      55.136  12.609  21.326  0.00  0.00    +0.140 C 
ATOM     30  C   UNL     1      56.318  12.977  20.423  0.00  0.00    +0.153 C 
ATOM     33  C   UNL     1      57.272  13.891  21.197  0.00  0.00    +0.166 C 
ATOM     36  C   UNL     1      56.504  15.125  21.681  0.00  0.00    +0.200 C 
ATOM     40  O   UNL     1      55.401  14.711  22.488  0.00  0.00    -0.372 OA
BRANCH  27  28
ATOM     28  O   UNL     1      54.201  11.814  20.592  0.00  0.00    -0.548 OA
ATOM     29  H   UNL     1      53.406  11.582  21.090  0.00  0.00    +0.386 HD
ENDBRANCH  27  28
BRANCH  30  31
ATOM     31  O   UNL     1      55.838  13.657  19.260  0.00  0.00    -0.529 OA
ATOM     32  H   UNL     1      55.213  14.370  19.452  0.00  0.00    +0.384 HD
ENDBRANCH  30  31
BRANCH  33  34
ATOM     34  O   UNL     1      58.342  14.298  20.342  0.00  0.00    -0.543 OA
ATOM     35  H   UNL     1      58.060  14.544  19.450  0.00  0.00    +0.384 HD
ENDBRANCH  33  34
BRANCH  36  37
ATOM     37  C   UNL     1      57.436  16.014  22.505  0.00  0.00    +0.207 C 
BRANCH  37  38
ATOM     38  O   UNL     1      58.221  16.825  21.628  0.00  0.00    -0.563 OA
ATOM     39  H   UNL     1      58.252  16.502  20.717  0.00  0.00    +0.380 HD
ENDBRANCH  37  38
ENDBRANCH  36  37
ENDBRANCH  25  26
ENDBRANCH  24  25
TORSDOF 11
ENDMDL
