MODEL 1
REMARK VINA RESULT:      -4.4      0.000      0.000
REMARK  Name = ZINC00002054
REMARK  3 active torsions:
REMARK  status: ('A' for Active; 'I' for Inactive)
REMARK    1  A    between atoms: C4_4  and  O2_9
REMARK    2  A    between atoms: C5_5  and  C7_7
REMARK    3  A    between atoms: C7_7  and  O1_8
REMARK                            x       y       z     vdW  Elec       q    Type
REMARK                         _______ _______ _______ _____ _____    ______ ____
ROOT
ATOM      1  C   UNL     1      42.503  19.377  20.105  0.00  0.00    -0.003 A 
ATOM      2  C   UNL     1      43.411  20.420  20.130  0.00  0.00    +0.024 A 
ATOM      3  C   UNL     1      43.105  21.619  19.517  0.00  0.00    -0.014 A 
ATOM      4  C   UNL     1      41.883  21.777  18.876  0.00  0.00    +0.106 A 
ATOM      7  C   UNL     1      40.974  20.729  18.853  0.00  0.00    -0.120 A 
ATOM     11  C   UNL     1      41.287  19.532  19.468  0.00  0.00    +0.054 A 
ENDROOT
BRANCH   4   5
ATOM      5  O   UNL     1      41.579  22.957  18.274  0.00  0.00    -0.498 OA
ATOM      6  H   UNL     1      42.030  23.722  18.656  0.00  0.00    +0.390 HD
ENDBRANCH   4   5
BRANCH   7   8
ATOM      8  C   UNL     1      39.647  20.897  18.158  0.00  0.00    +0.245 C 
BRANCH   8   9
ATOM      9  O   UNL     1      38.940  21.992  18.744  0.00  0.00    -0.571 OA
ATOM     10  H   UNL     1      39.298  22.281  19.595  0.00  0.00    +0.386 HD
ENDBRANCH   8   9
ENDBRANCH   7   8
TORSDOF 3
ENDMDL
MODEL 2
REMARK VINA RESULT:      -4.4     19.499     20.436
REMARK  Name = ZINC00002054
REMARK  3 active torsions:
REMARK  status: ('A' for Active; 'I' for Inactive)
REMARK    1  A    between atoms: C4_4  and  O2_9
REMARK    2  A    between atoms: C5_5  and  C7_7
REMARK    3  A    between atoms: C7_7  and  O1_8
REMARK                            x       y       z     vdW  Elec       q    Type
REMARK                         _______ _______ _______ _____ _____    ______ ____
ROOT
ATOM      1  C   UNL     1      44.576  33.408   2.509  0.00  0.00    -0.003 A 
ATOM      2  C   UNL     1      43.709  34.473   2.677  0.00  0.00    +0.024 A 
ATOM      3  C   UNL     1      42.345  34.272   2.602  0.00  0.00    -0.014 A 
ATOM      4  C   UNL     1      41.844  33.001   2.358  0.00  0.00    +0.106 A 
ATOM      7  C   UNL     1      42.716  31.935   2.189  0.00  0.00    -0.120 A 
ATOM     11  C   UNL     1      44.080  32.141   2.266  0.00  0.00    +0.054 A 
ENDROOT
BRANCH   4   5
ATOM      5  O   UNL     1      40.501  32.800   2.284  0.00  0.00    -0.498 OA
ATOM      6  H   UNL     1      40.242  31.869   2.292  0.00  0.00    +0.390 HD
ENDBRANCH   4   5
BRANCH   7   8
ATOM      8  C   UNL     1      42.176  30.553   1.925  0.00  0.00    +0.245 C 
BRANCH   8   9
ATOM      9  O   UNL     1      41.801  29.944   3.162  0.00  0.00    -0.571 OA
ATOM     10  H   UNL     1      42.337  30.226   3.917  0.00  0.00    +0.386 HD
ENDBRANCH   8   9
ENDBRANCH   7   8
TORSDOF 3
ENDMDL
MODEL 3
REMARK VINA RESULT:      -4.1      1.308      2.966
REMARK  Name = ZINC00002054
REMARK  3 active torsions:
REMARK  status: ('A' for Active; 'I' for Inactive)
REMARK    1  A    between atoms: C4_4  and  O2_9
REMARK    2  A    between atoms: C5_5  and  C7_7
REMARK    3  A    between atoms: C7_7  and  O1_8
REMARK                            x       y       z     vdW  Elec       q    Type
REMARK                         _______ _______ _______ _____ _____    ______ ____
ROOT
ATOM      1  C   UNL     1      41.403  19.498  19.421  0.00  0.00    -0.003 A 
ATOM      2  C   UNL     1      40.401  20.173  18.747  0.00  0.00    +0.024 A 
ATOM      3  C   UNL     1      40.566  21.501  18.409  0.00  0.00    -0.014 A 
ATOM      4  C   UNL     1      41.741  22.160  18.746  0.00  0.00    +0.106 A 
ATOM      7  C   UNL     1      42.745  21.482  19.422  0.00  0.00    -0.120 A 
ATOM     11  C   UNL     1      42.573  20.152  19.757  0.00  0.00    +0.054 A 
ENDROOT
BRANCH   4   5
ATOM      5  O   UNL     1      41.907  23.468  18.414  0.00  0.00    -0.498 OA
ATOM      6  H   UNL     1      42.528  23.942  18.983  0.00  0.00    +0.390 HD
ENDBRANCH   4   5
BRANCH   7   8
ATOM      8  C   UNL     1      44.021  22.194  19.789  0.00  0.00    +0.245 C 
BRANCH   8   9
ATOM      9  O   UNL     1      43.741  23.199  20.765  0.00  0.00    -0.571 OA
ATOM     10  H   UNL     1      42.858  23.586  20.688  0.00  0.00    +0.386 HD
ENDBRANCH   8   9
ENDBRANCH   7   8
TORSDOF 3
ENDMDL
MODEL 4
REMARK VINA RESULT:      -4.1     20.509     21.588
REMARK  Name = ZINC00002054
REMARK  3 active torsions:
REMARK  status: ('A' for Active; 'I' for Inactive)
REMARK    1  A    between atoms: C4_4  and  O2_9
REMARK    2  A    between atoms: C5_5  and  C7_7
REMARK    3  A    between atoms: C7_7  and  O1_8
REMARK                            x       y       z     vdW  Elec       q    Type
REMARK                         _______ _______ _______ _____ _____    ______ ____
ROOT
ATOM      1  C   UNL     1      54.847  32.997   5.690  0.00  0.00    -0.003 A 
ATOM      2  C   UNL     1      55.147  34.224   6.254  0.00  0.00    +0.024 A 
ATOM      3  C   UNL     1      54.135  35.030   6.735  0.00  0.00    -0.014 A 
ATOM      4  C   UNL     1      52.815  34.609   6.653  0.00  0.00    +0.106 A 
ATOM      7  C   UNL     1      52.517  33.378   6.086  0.00  0.00    -0.120 A 
ATOM     11  C   UNL     1      53.533  32.575   5.607  0.00  0.00    +0.054 A 
ENDROOT
BRANCH   4   5
ATOM      5  O   UNL     1      51.817  35.401   7.126  0.00  0.00    -0.498 OA
ATOM      6  H   UNL     1      50.993  35.337   6.625  0.00  0.00    +0.390 HD
ENDBRANCH   4   5
BRANCH   7   8
ATOM      8  C   UNL     1      51.084  32.918   5.996  0.00  0.00    +0.245 C 
BRANCH   8   9
ATOM      9  O   UNL     1      50.336  33.845   5.208  0.00  0.00    -0.571 OA
ATOM     10  H   UNL     1      49.462  33.524   4.946  0.00  0.00    +0.386 HD
ENDBRANCH   8   9
ENDBRANCH   7   8
TORSDOF 3
ENDMDL
MODEL 5
REMARK VINA RESULT:      -4.1     19.959     20.906
REMARK  Name = ZINC00002054
REMARK  3 active torsions:
REMARK  status: ('A' for Active; 'I' for Inactive)
REMARK    1  A    between atoms: C4_4  and  O2_9
REMARK    2  A    between atoms: C5_5  and  C7_7
REMARK    3  A    between atoms: C7_7  and  O1_8
REMARK                            x       y       z     vdW  Elec       q    Type
REMARK                         _______ _______ _______ _____ _____    ______ ____
ROOT
ATOM      1  C   UNL     1      42.314  31.723  -0.677  0.00  0.00    -0.003 A 
ATOM      2  C   UNL     1      42.610  30.448  -0.232  0.00  0.00    +0.024 A 
ATOM      3  C   UNL     1      42.564  30.157   1.117  0.00  0.00    -0.014 A 
ATOM      4  C   UNL     1      42.219  31.147   2.027  0.00  0.00    +0.106 A 
ATOM      7  C   UNL     1      41.922  32.426   1.578  0.00  0.00    -0.120 A 
ATOM     11  C   UNL     1      41.970  32.710   0.227  0.00  0.00    +0.054 A 
ENDROOT
BRANCH   4   5
ATOM      5  O   UNL     1      42.172  30.864   3.356  0.00  0.00    -0.498 OA
ATOM      6  H   UNL     1      42.099  29.920   3.554  0.00  0.00    +0.390 HD
ENDBRANCH   4   5
BRANCH   7   8
ATOM      8  C   UNL     1      41.547  33.503   2.564  0.00  0.00    +0.245 C 
BRANCH   8   9
ATOM      9  O   UNL     1      40.192  33.317   2.978  0.00  0.00    -0.571 OA
ATOM     10  H   UNL     1      40.009  33.628   3.875  0.00  0.00    +0.386 HD
ENDBRANCH   8   9
ENDBRANCH   7   8
TORSDOF 3
ENDMDL
MODEL 6
REMARK VINA RESULT:      -4.0     10.479     11.150
REMARK  Name = ZINC00002054
REMARK  3 active torsions:
REMARK  status: ('A' for Active; 'I' for Inactive)
REMARK    1  A    between atoms: C4_4  and  O2_9
REMARK    2  A    between atoms: C5_5  and  C7_7
REMARK    3  A    between atoms: C7_7  and  O1_8
REMARK                            x       y       z     vdW  Elec       q    Type
REMARK                         _______ _______ _______ _____ _____    ______ ____
ROOT
ATOM      1  C   UNL     1      51.110  21.052  17.733  0.00  0.00    -0.003 A 
ATOM      2  C   UNL     1      51.439  21.243  16.403  0.00  0.00    +0.024 A 
ATOM      3  C   UNL     1      51.839  20.173  15.628  0.00  0.00    -0.014 A 
ATOM      4  C   UNL     1      51.909  18.903  16.184  0.00  0.00    +0.106 A 
ATOM      7  C   UNL     1      51.578  18.713  17.518  0.00  0.00    -0.120 A 
ATOM     11  C   UNL     1      51.179  19.789  18.289  0.00  0.00    +0.054 A 
ENDROOT
BRANCH   4   5
ATOM      5  O   UNL     1      52.301  17.847  15.423  0.00  0.00    -0.498 OA
ATOM      6  H   UNL     1      51.912  17.835  14.538  0.00  0.00    +0.390 HD
ENDBRANCH   4   5
BRANCH   7   8
ATOM      8  C   UNL     1      51.653  17.336  18.125  0.00  0.00    +0.245 C 
BRANCH   8   9
ATOM      9  O   UNL     1      53.015  16.906  18.161  0.00  0.00    -0.571 OA
ATOM     10  H   UNL     1      53.146  15.993  17.870  0.00  0.00    +0.386 HD
ENDBRANCH   8   9
ENDBRANCH   7   8
TORSDOF 3
ENDMDL
MODEL 7
REMARK VINA RESULT:      -3.9     20.130     21.070
REMARK  Name = ZINC00002054
REMARK  3 active torsions:
REMARK  status: ('A' for Active; 'I' for Inactive)
REMARK    1  A    between atoms: C4_4  and  O2_9
REMARK    2  A    between atoms: C5_5  and  C7_7
REMARK    3  A    between atoms: C7_7  and  O1_8
REMARK                            x       y       z     vdW  Elec       q    Type
REMARK                         _______ _______ _______ _____ _____    ______ ____
ROOT
ATOM      1  C   UNL     1      44.017  34.924   1.732  0.00  0.00    -0.003 A 
ATOM      2  C   UNL     1      44.700  33.898   2.359  0.00  0.00    +0.024 A 
ATOM      3  C   UNL     1      44.015  32.792   2.822  0.00  0.00    -0.014 A 
ATOM      4  C   UNL     1      42.639  32.711   2.657  0.00  0.00    +0.106 A 
ATOM      7  C   UNL     1      41.956  33.742   2.027  0.00  0.00    -0.120 A 
ATOM     11  C   UNL     1      42.648  34.846   1.566  0.00  0.00    +0.054 A 
ENDROOT
BRANCH   4   5
ATOM      5  O   UNL     1      41.962  31.623   3.110  0.00  0.00    -0.498 OA
ATOM      6  H   UNL     1      41.825  30.938   2.441  0.00  0.00    +0.390 HD
ENDBRANCH   4   5
BRANCH   7   8
ATOM      8  C   UNL     1      40.463  33.656   1.845  0.00  0.00    +0.245 C 
BRANCH   8   9
ATOM      9  O   UNL     1      39.825  33.713   3.122  0.00  0.00    -0.571 OA
ATOM     10  H   UNL     1      40.335  33.305   3.835  0.00  0.00    +0.386 HD
ENDBRANCH   8   9
ENDBRANCH   7   8
TORSDOF 3
ENDMDL
MODEL 8
REMARK VINA RESULT:      -3.8      1.485      2.139
REMARK  Name = ZINC00002054
REMARK  3 active torsions:
REMARK  status: ('A' for Active; 'I' for Inactive)
REMARK    1  A    between atoms: C4_4  and  O2_9
REMARK    2  A    between atoms: C5_5  and  C7_7
REMARK    3  A    between atoms: C7_7  and  O1_8
REMARK                            x       y       z     vdW  Elec       q    Type
REMARK                         _______ _______ _______ _____ _____    ______ ____
ROOT
ATOM      1  C   UNL     1      41.090  18.839  21.219  0.00  0.00    -0.003 A 
ATOM      2  C   UNL     1      42.444  18.566  21.296  0.00  0.00    +0.024 A 
ATOM      3  C   UNL     1      43.323  19.174  20.423  0.00  0.00    -0.014 A 
ATOM      4  C   UNL     1      42.848  20.062  19.467  0.00  0.00    +0.106 A 
ATOM      7  C   UNL     1      41.490  20.334  19.391  0.00  0.00    -0.120 A 
ATOM     11  C   UNL     1      40.614  19.722  20.268  0.00  0.00    +0.054 A 
ENDROOT
BRANCH   4   5
ATOM      5  O   UNL     1      43.712  20.663  18.607  0.00  0.00    -0.498 OA
ATOM      6  H   UNL     1      43.962  20.113  17.852  0.00  0.00    +0.390 HD
ENDBRANCH   4   5
BRANCH   7   8
ATOM      8  C   UNL     1      40.970  21.297  18.355  0.00  0.00    +0.245 C 
BRANCH   8   9
ATOM      9  O   UNL     1      41.542  22.587  18.577  0.00  0.00    -0.571 OA
ATOM     10  H   UNL     1      41.379  22.943  19.461  0.00  0.00    +0.386 HD
ENDBRANCH   8   9
ENDBRANCH   7   8
TORSDOF 3
ENDMDL
MODEL 9
REMARK VINA RESULT:      -3.7      1.691      2.374
REMARK  Name = ZINC00002054
REMARK  3 active torsions:
REMARK  status: ('A' for Active; 'I' for Inactive)
REMARK    1  A    between atoms: C4_4  and  O2_9
REMARK    2  A    between atoms: C5_5  and  C7_7
REMARK    3  A    between atoms: C7_7  and  O1_8
REMARK                            x       y       z     vdW  Elec       q    Type
REMARK                         _______ _______ _______ _____ _____    ______ ____
ROOT
ATOM      1  C   UNL     1      43.451  19.790  18.705  0.00  0.00    -0.003 A 
ATOM      2  C   UNL     1      43.596  19.040  19.859  0.00  0.00    +0.024 A 
ATOM      3  C   UNL     1      42.556  18.954  20.763  0.00  0.00    -0.014 A 
ATOM      4  C   UNL     1      41.363  19.619  20.512  0.00  0.00    +0.106 A 
ATOM      7  C   UNL     1      41.221  20.370  19.355  0.00  0.00    -0.120 A 
ATOM     11  C   UNL     1      42.265  20.453  18.454  0.00  0.00    +0.054 A 
ENDROOT
BRANCH   4   5
ATOM      5  O   UNL     1      40.337  19.535  21.400  0.00  0.00    -0.498 OA
ATOM      6  H   UNL     1      39.660  18.889  21.157  0.00  0.00    +0.390 HD
ENDBRANCH   4   5
BRANCH   7   8
ATOM      8  C   UNL     1      39.927  21.094  19.080  0.00  0.00    +0.245 C 
BRANCH   8   9
ATOM      9  O   UNL     1      40.180  22.211  18.225  0.00  0.00    -0.571 OA
ATOM     10  H   UNL     1      39.384  22.695  17.966  0.00  0.00    +0.386 HD
ENDBRANCH   8   9
ENDBRANCH   7   8
TORSDOF 3
ENDMDL
