MODEL 1
REMARK VINA RESULT:      -6.2      0.000      0.000
REMARK  Name = ZINC95486259
REMARK  11 active torsions:
REMARK  status: ('A' for Active; 'I' for Inactive)
REMARK    1  A    between atoms: C1_1  and  C2_2
REMARK    2  A    between atoms: C2_2  and  C17_21
REMARK    3  A    between atoms: C7_7  and  O4_20
REMARK    4  A    between atoms: C13_14  and  C16_18
REMARK    5  A    between atoms: C15_16  and  O2_17
REMARK    6  A    between atoms: C16_18  and  O3_19
REMARK    7  A    between atoms: C17_21  and  O9_34
REMARK    8  A    between atoms: C19_23  and  O8_33
REMARK    9  A    between atoms: C20_25  and  O7_32
REMARK   10  A    between atoms: C21_27  and  C22_30
REMARK   11  A    between atoms: C22_30  and  O6_31
REMARK                            x       y       z     vdW  Elec       q    Type
REMARK                         _______ _______ _______ _____ _____    ______ ____
ROOT
ATOM      1  C   UNL     1      49.943  17.837  20.985  0.00  0.00    +0.078 C 
ATOM      2  C   UNL     1      49.416  18.852  19.969  0.00  0.00    +0.008 C 
ATOM     18  C   UNL     1      48.893  20.044  20.711  0.00  0.00    -0.030 A 
ATOM     19  C   UNL     1      49.604  20.519  21.801  0.00  0.00    +0.004 A 
ATOM     20  C   UNL     1      49.161  21.623  22.505  0.00  0.00    +0.067 A 
ATOM     21  C   UNL     1      47.999  22.273  22.136  0.00  0.00    -0.010 A 
ATOM     22  C   UNL     1      47.268  21.812  21.051  0.00  0.00    +0.169 A 
ATOM     25  C   UNL     1      47.717  20.693  20.340  0.00  0.00    -0.180 A 
ATOM     26  C   UNL     1      46.933  20.184  19.195  0.00  0.00    +0.441 C 
ATOM     27  C   UNL     1      47.210  18.810  18.727  0.00  0.00    -0.172 A 
ATOM     28  C   UNL     1      46.285  18.151  17.907  0.00  0.00    +0.162 A 
ATOM     31  C   UNL     1      46.549  16.859  17.477  0.00  0.00    +0.001 A 
ATOM     32  C   UNL     1      47.718  16.235  17.861  0.00  0.00    -0.045 A 
ATOM     36  C   UNL     1      48.634  16.887  18.668  0.00  0.00    +0.050 A 
ATOM     37  O   UNL     1      46.088  20.872  18.656  0.00  0.00    -0.422 OA
ATOM     38  C   UNL     1      48.394  18.178  19.105  0.00  0.00    -0.004 A 
ENDROOT
BRANCH   2   3
ATOM      3  C   UNL     1      50.580  19.304  19.084  0.00  0.00    +0.316 C 
ATOM      6  C   UNL     1      50.704  18.361  17.883  0.00  0.00    +0.023 C 
ATOM      7  C   UNL     1      51.831  18.855  16.972  0.00  0.00    +0.150 C 
ATOM     10  C   UNL     1      51.537  20.298  16.550  0.00  0.00    +0.127 C 
ATOM     13  C   UNL     1      51.380  21.166  17.801  0.00  0.00    +0.226 C 
ATOM     17  O   UNL     1      50.337  20.634  18.620  0.00  0.00    -0.323 OA
BRANCH   3   4
ATOM      4  O   UNL     1      51.792  19.276  19.839  0.00  0.00    -0.547 OA
ATOM      5  H   UNL     1      52.434  18.624  19.527  0.00  0.00    +0.376 HD
ENDBRANCH   3   4
BRANCH   7   8
ATOM      8  O   UNL     1      51.908  18.023  15.812  0.00  0.00    -0.558 OA
ATOM      9  H   UNL     1      52.615  18.266  15.199  0.00  0.00    +0.379 HD
ENDBRANCH   7   8
BRANCH  10  11
ATOM     11  O   UNL     1      52.618  20.794  15.756  0.00  0.00    -0.554 OA
ATOM     12  H   UNL     1      52.766  21.745  15.845  0.00  0.00    +0.381 HD
ENDBRANCH  10  11
BRANCH  13  14
ATOM     14  C   UNL     1      52.693  21.171  18.587  0.00  0.00    +0.182 C 
BRANCH  14  15
ATOM     15  O   UNL     1      52.581  22.063  19.698  0.00  0.00    -0.557 OA
ATOM     16  H   UNL     1      53.363  22.614  19.841  0.00  0.00    +0.375 HD
ENDBRANCH  14  15
ENDBRANCH  13  14
ENDBRANCH   2   3
BRANCH  22  23
ATOM     23  O   UNL     1      46.127  22.445  20.680  0.00  0.00    -0.481 OA
ATOM     24  H   UNL     1      46.169  22.853  19.805  0.00  0.00    +0.400 HD
ENDBRANCH  22  23
BRANCH  28  29
ATOM     29  O   UNL     1      45.137  18.772  17.538  0.00  0.00    -0.482 OA
ATOM     30  H   UNL     1      45.264  19.679  17.228  0.00  0.00    +0.397 HD
ENDBRANCH  28  29
BRANCH  32  33
ATOM     33  C   UNL     1      48.002  14.829  17.397  0.00  0.00    +0.234 C 
BRANCH  33  34
ATOM     34  O   UNL     1      47.508  14.658  16.067  0.00  0.00    -0.566 OA
ATOM     35  H   UNL     1      48.202  14.535  15.403  0.00  0.00    +0.384 HD
ENDBRANCH  33  34
ENDBRANCH  32  33
TORSDOF 10
ENDMDL
MODEL 2
REMARK VINA RESULT:      -6.2      1.601      2.816
REMARK  Name = ZINC95486259
REMARK  11 active torsions:
REMARK  status: ('A' for Active; 'I' for Inactive)
REMARK    1  A    between atoms: C1_1  and  C2_2
REMARK    2  A    between atoms: C2_2  and  C17_21
REMARK    3  A    between atoms: C7_7  and  O4_20
REMARK    4  A    between atoms: C13_14  and  C16_18
REMARK    5  A    between atoms: C15_16  and  O2_17
REMARK    6  A    between atoms: C16_18  and  O3_19
REMARK    7  A    between atoms: C17_21  and  O9_34
REMARK    8  A    between atoms: C19_23  and  O8_33
REMARK    9  A    between atoms: C20_25  and  O7_32
REMARK   10  A    between atoms: C21_27  and  C22_30
REMARK   11  A    between atoms: C22_30  and  O6_31
REMARK                            x       y       z     vdW  Elec       q    Type
REMARK                         _______ _______ _______ _____ _____    ______ ____
ROOT
ATOM      1  C   UNL     1      50.302  17.733  20.688  0.00  0.00    +0.078 C 
ATOM      2  C   UNL     1      49.841  17.982  19.250  0.00  0.00    +0.008 C 
ATOM     18  C   UNL     1      48.547  18.737  19.288  0.00  0.00    -0.030 A 
ATOM     19  C   UNL     1      48.394  19.759  20.209  0.00  0.00    +0.004 A 
ATOM     20  C   UNL     1      47.219  20.486  20.268  0.00  0.00    +0.067 A 
ATOM     21  C   UNL     1      46.175  20.205  19.409  0.00  0.00    -0.010 A 
ATOM     22  C   UNL     1      46.304  19.183  18.480  0.00  0.00    +0.169 A 
ATOM     25  C   UNL     1      47.493  18.446  18.423  0.00  0.00    -0.180 A 
ATOM     26  C   UNL     1      47.630  17.342  17.450  0.00  0.00    +0.441 C 
ATOM     27  C   UNL     1      48.708  16.357  17.674  0.00  0.00    -0.172 A 
ATOM     28  C   UNL     1      48.671  15.120  17.018  0.00  0.00    +0.162 A 
ATOM     31  C   UNL     1      49.684  14.197  17.239  0.00  0.00    +0.001 A 
ATOM     32  C   UNL     1      50.715  14.505  18.102  0.00  0.00    -0.045 A 
ATOM     36  C   UNL     1      50.753  15.729  18.748  0.00  0.00    +0.050 A 
ATOM     37  O   UNL     1      46.881  17.248  16.496  0.00  0.00    -0.422 OA
ATOM     38  C   UNL     1      49.757  16.666  18.539  0.00  0.00    -0.004 A 
ENDROOT
BRANCH   2   3
ATOM      3  C   UNL     1      50.887  18.849  18.547  0.00  0.00    +0.316 C 
ATOM      6  C   UNL     1      51.188  18.266  17.163  0.00  0.00    +0.023 C 
ATOM      7  C   UNL     1      52.190  19.172  16.442  0.00  0.00    +0.150 C 
ATOM     10  C   UNL     1      51.615  20.590  16.363  0.00  0.00    +0.127 C 
ATOM     13  C   UNL     1      51.298  21.084  17.778  0.00  0.00    +0.226 C 
ATOM     17  O   UNL     1      50.385  20.180  18.402  0.00  0.00    -0.323 OA
BRANCH   3   4
ATOM      4  O   UNL     1      52.086  18.874  19.324  0.00  0.00    -0.547 OA
ATOM      5  H   UNL     1      52.029  19.422  20.118  0.00  0.00    +0.376 HD
ENDBRANCH   3   4
BRANCH   7   8
ATOM      8  O   UNL     1      52.422  18.675  15.123  0.00  0.00    -0.558 OA
ATOM      9  H   UNL     1      53.270  18.222  15.017  0.00  0.00    +0.379 HD
ENDBRANCH   7   8
BRANCH  10  11
ATOM     11  O   UNL     1      52.572  21.461  15.756  0.00  0.00    -0.554 OA
ATOM     12  H   UNL     1      52.835  22.205  16.313  0.00  0.00    +0.381 HD
ENDBRANCH  10  11
BRANCH  13  14
ATOM     14  C   UNL     1      52.589  21.151  18.596  0.00  0.00    +0.182 C 
BRANCH  14  15
ATOM     15  O   UNL     1      52.367  21.930  19.774  0.00  0.00    -0.557 OA
ATOM     16  H   UNL     1      52.347  21.412  20.590  0.00  0.00    +0.375 HD
ENDBRANCH  14  15
ENDBRANCH  13  14
ENDBRANCH   2   3
BRANCH  22  23
ATOM     23  O   UNL     1      45.284  18.901  17.631  0.00  0.00    -0.481 OA
ATOM     24  H   UNL     1      44.531  19.502  17.706  0.00  0.00    +0.400 HD
ENDBRANCH  22  23
BRANCH  28  29
ATOM     29  O   UNL     1      47.652  14.825  16.173  0.00  0.00    -0.482 OA
ATOM     30  H   UNL     1      47.636  13.903  15.883  0.00  0.00    +0.397 HD
ENDBRANCH  28  29
BRANCH  32  33
ATOM     33  C   UNL     1      51.812  13.499  18.345  0.00  0.00    +0.234 C 
BRANCH  33  34
ATOM     34  O   UNL     1      51.935  12.646  17.205  0.00  0.00    -0.566 OA
ATOM     35  H   UNL     1      51.225  11.994  17.124  0.00  0.00    +0.384 HD
ENDBRANCH  33  34
ENDBRANCH  32  33
TORSDOF 10
ENDMDL
MODEL 3
REMARK VINA RESULT:      -6.0      2.727      6.310
REMARK  Name = ZINC95486259
REMARK  11 active torsions:
REMARK  status: ('A' for Active; 'I' for Inactive)
REMARK    1  A    between atoms: C1_1  and  C2_2
REMARK    2  A    between atoms: C2_2  and  C17_21
REMARK    3  A    between atoms: C7_7  and  O4_20
REMARK    4  A    between atoms: C13_14  and  C16_18
REMARK    5  A    between atoms: C15_16  and  O2_17
REMARK    6  A    between atoms: C16_18  and  O3_19
REMARK    7  A    between atoms: C17_21  and  O9_34
REMARK    8  A    between atoms: C19_23  and  O8_33
REMARK    9  A    between atoms: C20_25  and  O7_32
REMARK   10  A    between atoms: C21_27  and  C22_30
REMARK   11  A    between atoms: C22_30  and  O6_31
REMARK                            x       y       z     vdW  Elec       q    Type
REMARK                         _______ _______ _______ _____ _____    ______ ____
ROOT
ATOM      1  C   UNL     1      47.330  19.416  22.429  0.00  0.00    +0.078 C 
ATOM      2  C   UNL     1      46.652  19.131  21.087  0.00  0.00    +0.008 C 
ATOM     18  C   UNL     1      45.885  17.849  21.204  0.00  0.00    -0.030 A 
ATOM     19  C   UNL     1      45.171  17.599  22.364  0.00  0.00    +0.004 A 
ATOM     20  C   UNL     1      44.442  16.432  22.505  0.00  0.00    +0.067 A 
ATOM     21  C   UNL     1      44.412  15.494  21.492  0.00  0.00    -0.010 A 
ATOM     22  C   UNL     1      45.123  15.721  20.323  0.00  0.00    +0.169 A 
ATOM     25  C   UNL     1      45.864  16.901  20.182  0.00  0.00    -0.180 A 
ATOM     26  C   UNL     1      46.640  17.140  18.948  0.00  0.00    +0.441 C 
ATOM     27  C   UNL     1      47.695  18.174  18.988  0.00  0.00    -0.172 A 
ATOM     28  C   UNL     1      48.684  18.203  17.996  0.00  0.00    +0.162 A 
ATOM     31  C   UNL     1      49.675  19.173  18.044  0.00  0.00    +0.001 A 
ATOM     32  C   UNL     1      49.678  20.098  19.067  0.00  0.00    -0.045 A 
ATOM     36  C   UNL     1      48.699  20.072  20.046  0.00  0.00    +0.050 A 
ATOM     37  O   UNL     1      46.419  16.508  17.933  0.00  0.00    -0.422 OA
ATOM     38  C   UNL     1      47.699  19.117  20.015  0.00  0.00    -0.004 A 
ENDROOT
BRANCH   2   3
ATOM      3  C   UNL     1      45.665  20.261  20.791  0.00  0.00    +0.316 C 
ATOM      6  C   UNL     1      46.182  21.565  21.406  0.00  0.00    +0.023 C 
ATOM      7  C   UNL     1      45.220  22.703  21.053  0.00  0.00    +0.150 C 
ATOM     10  C   UNL     1      45.087  22.792  19.529  0.00  0.00    +0.127 C 
ATOM     13  C   UNL     1      44.613  21.441  18.987  0.00  0.00    +0.226 C 
ATOM     17  O   UNL     1      45.536  20.422  19.376  0.00  0.00    -0.323 OA
BRANCH   3   4
ATOM      4  O   UNL     1      44.391  19.942  21.353  0.00  0.00    -0.547 OA
ATOM      5  H   UNL     1      44.436  19.359  22.123  0.00  0.00    +0.376 HD
ENDBRANCH   3   4
BRANCH   7   8
ATOM      8  O   UNL     1      45.731  23.937  21.563  0.00  0.00    -0.558 OA
ATOM      9  H   UNL     1      46.168  24.486  20.898  0.00  0.00    +0.379 HD
ENDBRANCH   7   8
BRANCH  10  11
ATOM     11  O   UNL     1      44.137  23.804  19.190  0.00  0.00    -0.554 OA
ATOM     12  H   UNL     1      43.985  24.451  19.893  0.00  0.00    +0.381 HD
ENDBRANCH  10  11
BRANCH  13  14
ATOM     14  C   UNL     1      43.229  21.120  19.555  0.00  0.00    +0.182 C 
BRANCH  14  15
ATOM     15  O   UNL     1      42.239  21.876  18.855  0.00  0.00    -0.557 OA
ATOM     16  H   UNL     1      41.915  22.646  19.342  0.00  0.00    +0.375 HD
ENDBRANCH  14  15
ENDBRANCH  13  14
ENDBRANCH   2   3
BRANCH  22  23
ATOM     23  O   UNL     1      45.099  14.806  19.323  0.00  0.00    -0.481 OA
ATOM     24  H   UNL     1      44.936  13.900  19.620  0.00  0.00    +0.400 HD
ENDBRANCH  22  23
BRANCH  28  29
ATOM     29  O   UNL     1      48.673  17.287  16.995  0.00  0.00    -0.482 OA
ATOM     30  H   UNL     1      48.120  16.515  17.176  0.00  0.00    +0.397 HD
ENDBRANCH  28  29
BRANCH  32  33
ATOM     33  C   UNL     1      50.758  21.149  19.121  0.00  0.00    +0.234 C 
BRANCH  33  34
ATOM     34  O   UNL     1      51.341  21.299  17.824  0.00  0.00    -0.566 OA
ATOM     35  H   UNL     1      52.237  20.941  17.753  0.00  0.00    +0.384 HD
ENDBRANCH  33  34
ENDBRANCH  32  33
TORSDOF 10
ENDMDL
MODEL 4
REMARK VINA RESULT:      -6.0      2.427      6.761
REMARK  Name = ZINC95486259
REMARK  11 active torsions:
REMARK  status: ('A' for Active; 'I' for Inactive)
REMARK    1  A    between atoms: C1_1  and  C2_2
REMARK    2  A    between atoms: C2_2  and  C17_21
REMARK    3  A    between atoms: C7_7  and  O4_20
REMARK    4  A    between atoms: C13_14  and  C16_18
REMARK    5  A    between atoms: C15_16  and  O2_17
REMARK    6  A    between atoms: C16_18  and  O3_19
REMARK    7  A    between atoms: C17_21  and  O9_34
REMARK    8  A    between atoms: C19_23  and  O8_33
REMARK    9  A    between atoms: C20_25  and  O7_32
REMARK   10  A    between atoms: C21_27  and  C22_30
REMARK   11  A    between atoms: C22_30  and  O6_31
REMARK                            x       y       z     vdW  Elec       q    Type
REMARK                         _______ _______ _______ _____ _____    ______ ____
ROOT
ATOM      1  C   UNL     1      50.415  17.758  20.374  0.00  0.00    +0.078 C 
ATOM      2  C   UNL     1      50.075  17.047  19.063  0.00  0.00    +0.008 C 
ATOM     18  C   UNL     1      50.443  15.600  19.195  0.00  0.00    -0.030 A 
ATOM     19  C   UNL     1      50.168  14.946  20.384  0.00  0.00    +0.004 A 
ATOM     20  C   UNL     1      50.482  13.608  20.542  0.00  0.00    +0.067 A 
ATOM     21  C   UNL     1      51.077  12.900  19.516  0.00  0.00    -0.010 A 
ATOM     22  C   UNL     1      51.365  13.536  18.317  0.00  0.00    +0.169 A 
ATOM     25  C   UNL     1      51.049  14.891  18.160  0.00  0.00    -0.180 A 
ATOM     26  C   UNL     1      51.372  15.580  16.893  0.00  0.00    +0.441 C 
ATOM     27  C   UNL     1      51.390  17.058  16.899  0.00  0.00    -0.172 A 
ATOM     28  C   UNL     1      52.023  17.753  15.861  0.00  0.00    +0.162 A 
ATOM     31  C   UNL     1      52.041  19.140  15.876  0.00  0.00    +0.001 A 
ATOM     32  C   UNL     1      51.438  19.821  16.914  0.00  0.00    -0.045 A 
ATOM     36  C   UNL     1      50.810  19.134  17.938  0.00  0.00    +0.050 A 
ATOM     37  O   UNL     1      51.615  14.953  15.880  0.00  0.00    -0.422 OA
ATOM     38  C   UNL     1      50.775  17.751  17.941  0.00  0.00    -0.004 A 
ENDROOT
BRANCH   2   3
ATOM      3  C   UNL     1      48.566  17.144  18.834  0.00  0.00    +0.316 C 
ATOM      6  C   UNL     1      47.937  18.007  19.932  0.00  0.00    +0.023 C 
ATOM      7  C   UNL     1      46.436  18.150  19.662  0.00  0.00    +0.150 C 
ATOM     10  C   UNL     1      46.234  18.748  18.266  0.00  0.00    +0.127 C 
ATOM     13  C   UNL     1      46.929  17.857  17.232  0.00  0.00    +0.226 C 
ATOM     17  O   UNL     1      48.314  17.742  17.560  0.00  0.00    -0.323 OA
BRANCH   3   4
ATOM      4  O   UNL     1      47.992  15.836  18.868  0.00  0.00    -0.547 OA
ATOM      5  H   UNL     1      47.062  15.807  18.606  0.00  0.00    +0.376 HD
ENDBRANCH   3   4
BRANCH   7   8
ATOM      8  O   UNL     1      45.854  19.011  20.642  0.00  0.00    -0.558 OA
ATOM      9  H   UNL     1      45.184  18.584  21.193  0.00  0.00    +0.379 HD
ENDBRANCH   7   8
BRANCH  10  11
ATOM     11  O   UNL     1      44.837  18.820  17.975  0.00  0.00    -0.554 OA
ATOM     12  H   UNL     1      44.456  17.986  17.667  0.00  0.00    +0.381 HD
ENDBRANCH  10  11
BRANCH  13  14
ATOM     14  C   UNL     1      46.285  16.470  17.240  0.00  0.00    +0.182 C 
BRANCH  14  15
ATOM     15  O   UNL     1      46.710  15.741  16.086  0.00  0.00    -0.557 OA
ATOM     16  H   UNL     1      46.070  15.086  15.776  0.00  0.00    +0.375 HD
ENDBRANCH  14  15
ENDBRANCH  13  14
ENDBRANCH   2   3
BRANCH  22  23
ATOM     23  O   UNL     1      51.948  12.848  17.304  0.00  0.00    -0.481 OA
ATOM     24  H   UNL     1      52.753  12.377  17.558  0.00  0.00    +0.400 HD
ENDBRANCH  22  23
BRANCH  28  29
ATOM     29  O   UNL     1      52.615  17.074  14.847  0.00  0.00    -0.482 OA
ATOM     30  H   UNL     1      53.426  17.487  14.518  0.00  0.00    +0.397 HD
ENDBRANCH  28  29
BRANCH  32  33
ATOM     33  C   UNL     1      51.463  21.329  16.933  0.00  0.00    +0.234 C 
BRANCH  33  34
ATOM     34  O   UNL     1      51.892  21.813  15.658  0.00  0.00    -0.566 OA
ATOM     35  H   UNL     1      52.651  22.412  15.701  0.00  0.00    +0.384 HD
ENDBRANCH  33  34
ENDBRANCH  32  33
TORSDOF 10
ENDMDL
MODEL 5
REMARK VINA RESULT:      -5.9      1.984      6.157
REMARK  Name = ZINC95486259
REMARK  11 active torsions:
REMARK  status: ('A' for Active; 'I' for Inactive)
REMARK    1  A    between atoms: C1_1  and  C2_2
REMARK    2  A    between atoms: C2_2  and  C17_21
REMARK    3  A    between atoms: C7_7  and  O4_20
REMARK    4  A    between atoms: C13_14  and  C16_18
REMARK    5  A    between atoms: C15_16  and  O2_17
REMARK    6  A    between atoms: C16_18  and  O3_19
REMARK    7  A    between atoms: C17_21  and  O9_34
REMARK    8  A    between atoms: C19_23  and  O8_33
REMARK    9  A    between atoms: C20_25  and  O7_32
REMARK   10  A    between atoms: C21_27  and  C22_30
REMARK   11  A    between atoms: C22_30  and  O6_31
REMARK                            x       y       z     vdW  Elec       q    Type
REMARK                         _______ _______ _______ _____ _____    ______ ____
ROOT
ATOM      1  C   UNL     1      47.983  18.876  21.985  0.00  0.00    +0.078 C 
ATOM      2  C   UNL     1      47.611  18.917  20.502  0.00  0.00    +0.008 C 
ATOM     18  C   UNL     1      46.889  17.650  20.156  0.00  0.00    -0.030 A 
ATOM     19  C   UNL     1      45.960  17.144  21.049  0.00  0.00    +0.004 A 
ATOM     20  C   UNL     1      45.266  15.983  20.762  0.00  0.00    +0.067 A 
ATOM     21  C   UNL     1      45.486  15.306  19.578  0.00  0.00    -0.010 A 
ATOM     22  C   UNL     1      46.415  15.793  18.670  0.00  0.00    +0.169 A 
ATOM     25  C   UNL     1      47.120  16.967  18.963  0.00  0.00    -0.180 A 
ATOM     26  C   UNL     1      48.125  17.480  18.010  0.00  0.00    +0.441 C 
ATOM     27  C   UNL     1      49.106  18.467  18.508  0.00  0.00    -0.172 A 
ATOM     28  C   UNL     1      50.277  18.717  17.782  0.00  0.00    +0.162 A 
ATOM     31  C   UNL     1      51.196  19.640  18.260  0.00  0.00    +0.001 A 
ATOM     32  C   UNL     1      50.948  20.301  19.446  0.00  0.00    -0.045 A 
ATOM     36  C   UNL     1      49.789  20.057  20.162  0.00  0.00    +0.050 A 
ATOM     37  O   UNL     1      48.146  17.104  16.854  0.00  0.00    -0.422 OA
ATOM     38  C   UNL     1      48.857  19.144  19.702  0.00  0.00    -0.004 A 
ENDROOT
BRANCH   2   3
ATOM      3  C   UNL     1      46.661  20.094  20.270  0.00  0.00    +0.316 C 
ATOM      6  C   UNL     1      45.563  19.679  19.286  0.00  0.00    +0.023 C 
ATOM      7  C   UNL     1      44.583  20.842  19.107  0.00  0.00    +0.150 C 
ATOM     10  C   UNL     1      44.019  21.237  20.475  0.00  0.00    +0.127 C 
ATOM     13  C   UNL     1      45.176  21.592  21.413  0.00  0.00    +0.226 C 
ATOM     17  O   UNL     1      46.066  20.478  21.512  0.00  0.00    -0.323 OA
BRANCH   3   4
ATOM      4  O   UNL     1      47.392  21.197  19.731  0.00  0.00    -0.547 OA
ATOM      5  H   UNL     1      46.901  22.030  19.729  0.00  0.00    +0.376 HD
ENDBRANCH   3   4
BRANCH   7   8
ATOM      8  O   UNL     1      43.516  20.440  18.246  0.00  0.00    -0.558 OA
ATOM      9  H   UNL     1      43.449  19.483  18.123  0.00  0.00    +0.379 HD
ENDBRANCH   7   8
BRANCH  10  11
ATOM     11  O   UNL     1      43.157  22.367  20.329  0.00  0.00    -0.554 OA
ATOM     12  H   UNL     1      43.498  23.047  19.731  0.00  0.00    +0.381 HD
ENDBRANCH  10  11
BRANCH  13  14
ATOM     14  C   UNL     1      45.932  22.800  20.857  0.00  0.00    +0.182 C 
BRANCH  14  15
ATOM     15  O   UNL     1      45.323  24.003  21.331  0.00  0.00    -0.557 OA
ATOM     16  H   UNL     1      44.442  24.168  20.970  0.00  0.00    +0.375 HD
ENDBRANCH  14  15
ENDBRANCH  13  14
ENDBRANCH   2   3
BRANCH  22  23
ATOM     23  O   UNL     1      46.637  15.136  17.504  0.00  0.00    -0.481 OA
ATOM     24  H   UNL     1      46.277  14.239  17.482  0.00  0.00    +0.400 HD
ENDBRANCH  22  23
BRANCH  28  29
ATOM     29  O   UNL     1      50.512  18.059  16.619  0.00  0.00    -0.482 OA
ATOM     30  H   UNL     1      51.105  17.301  16.710  0.00  0.00    +0.397 HD
ENDBRANCH  28  29
BRANCH  32  33
ATOM     33  C   UNL     1      51.950  21.301  19.967  0.00  0.00    +0.234 C 
BRANCH  33  34
ATOM     34  O   UNL     1      52.991  21.478  19.002  0.00  0.00    -0.566 OA
ATOM     35  H   UNL     1      53.101  20.728  18.401  0.00  0.00    +0.384 HD
ENDBRANCH  33  34
ENDBRANCH  32  33
TORSDOF 10
ENDMDL
MODEL 6
REMARK VINA RESULT:      -5.8      2.400      6.782
REMARK  Name = ZINC95486259
REMARK  11 active torsions:
REMARK  status: ('A' for Active; 'I' for Inactive)
REMARK    1  A    between atoms: C1_1  and  C2_2
REMARK    2  A    between atoms: C2_2  and  C17_21
REMARK    3  A    between atoms: C7_7  and  O4_20
REMARK    4  A    between atoms: C13_14  and  C16_18
REMARK    5  A    between atoms: C15_16  and  O2_17
REMARK    6  A    between atoms: C16_18  and  O3_19
REMARK    7  A    between atoms: C17_21  and  O9_34
REMARK    8  A    between atoms: C19_23  and  O8_33
REMARK    9  A    between atoms: C20_25  and  O7_32
REMARK   10  A    between atoms: C21_27  and  C22_30
REMARK   11  A    between atoms: C22_30  and  O6_31
REMARK                            x       y       z     vdW  Elec       q    Type
REMARK                         _______ _______ _______ _____ _____    ______ ____
ROOT
ATOM      1  C   UNL     1      47.075  17.393  22.040  0.00  0.00    +0.078 C 
ATOM      2  C   UNL     1      46.953  17.842  20.582  0.00  0.00    +0.008 C 
ATOM     18  C   UNL     1      46.684  16.637  19.733  0.00  0.00    -0.030 A 
ATOM     19  C   UNL     1      45.802  15.675  20.196  0.00  0.00    +0.004 A 
ATOM     20  C   UNL     1      45.519  14.554  19.437  0.00  0.00    +0.067 A 
ATOM     21  C   UNL     1      46.110  14.373  18.202  0.00  0.00    -0.010 A 
ATOM     22  C   UNL     1      46.999  15.322  17.719  0.00  0.00    +0.169 A 
ATOM     25  C   UNL     1      47.288  16.454  18.490  0.00  0.00    -0.180 A 
ATOM     26  C   UNL     1      48.250  17.459  17.991  0.00  0.00    +0.441 C 
ATOM     27  C   UNL     1      48.819  18.412  18.967  0.00  0.00    -0.172 A 
ATOM     28  C   UNL     1      49.974  19.135  18.646  0.00  0.00    +0.162 A 
ATOM     31  C   UNL     1      50.506  20.023  19.570  0.00  0.00    +0.001 A 
ATOM     32  C   UNL     1      49.893  20.184  20.796  0.00  0.00    -0.045 A 
ATOM     36  C   UNL     1      48.749  19.472  21.112  0.00  0.00    +0.050 A 
ATOM     37  O   UNL     1      48.564  17.501  16.817  0.00  0.00    -0.422 OA
ATOM     38  C   UNL     1      48.199  18.585  20.204  0.00  0.00    -0.004 A 
ENDROOT
BRANCH   2   3
ATOM      3  C   UNL     1      45.762  18.795  20.464  0.00  0.00    +0.316 C 
ATOM      6  C   UNL     1      46.155  19.998  19.602  0.00  0.00    +0.023 C 
ATOM      7  C   UNL     1      44.940  20.917  19.438  0.00  0.00    +0.150 C 
ATOM     10  C   UNL     1      43.787  20.116  18.827  0.00  0.00    +0.127 C 
ATOM     13  C   UNL     1      43.485  18.908  19.718  0.00  0.00    +0.226 C 
ATOM     17  O   UNL     1      44.664  18.112  19.854  0.00  0.00    -0.323 OA
BRANCH   3   4
ATOM      4  O   UNL     1      45.381  19.245  21.765  0.00  0.00    -0.547 OA
ATOM      5  H   UNL     1      44.743  18.670  22.209  0.00  0.00    +0.376 HD
ENDBRANCH   3   4
BRANCH   7   8
ATOM      8  O   UNL     1      45.277  22.006  18.576  0.00  0.00    -0.558 OA
ATOM      9  H   UNL     1      44.535  22.338  18.053  0.00  0.00    +0.379 HD
ENDBRANCH   7   8
BRANCH  10  11
ATOM     11  O   UNL     1      42.626  20.944  18.735  0.00  0.00    -0.554 OA
ATOM     12  H   UNL     1      42.464  21.298  17.850  0.00  0.00    +0.381 HD
ENDBRANCH  10  11
BRANCH  13  14
ATOM     14  C   UNL     1      43.035  19.391  21.098  0.00  0.00    +0.182 C 
BRANCH  14  15
ATOM     15  O   UNL     1      41.622  19.605  21.091  0.00  0.00    -0.557 OA
ATOM     16  H   UNL     1      41.118  18.917  21.546  0.00  0.00    +0.375 HD
ENDBRANCH  14  15
ENDBRANCH  13  14
ENDBRANCH   2   3
BRANCH  22  23
ATOM     23  O   UNL     1      47.584  15.153  16.507  0.00  0.00    -0.481 OA
ATOM     24  H   UNL     1      47.315  14.345  16.049  0.00  0.00    +0.400 HD
ENDBRANCH  22  23
BRANCH  28  29
ATOM     29  O   UNL     1      50.571  18.968  17.440  0.00  0.00    -0.482 OA
ATOM     30  H   UNL     1      49.951  18.817  16.713  0.00  0.00    +0.397 HD
ENDBRANCH  28  29
BRANCH  32  33
ATOM     33  C   UNL     1      50.474  21.146  21.802  0.00  0.00    +0.234 C 
BRANCH  33  34
ATOM     34  O   UNL     1      51.798  21.509  21.402  0.00  0.00    -0.566 OA
ATOM     35  H   UNL     1      52.286  20.796  20.966  0.00  0.00    +0.384 HD
ENDBRANCH  33  34
ENDBRANCH  32  33
TORSDOF 10
ENDMDL
MODEL 7
REMARK VINA RESULT:      -5.7      2.838      5.873
REMARK  Name = ZINC95486259
REMARK  11 active torsions:
REMARK  status: ('A' for Active; 'I' for Inactive)
REMARK    1  A    between atoms: C1_1  and  C2_2
REMARK    2  A    between atoms: C2_2  and  C17_21
REMARK    3  A    between atoms: C7_7  and  O4_20
REMARK    4  A    between atoms: C13_14  and  C16_18
REMARK    5  A    between atoms: C15_16  and  O2_17
REMARK    6  A    between atoms: C16_18  and  O3_19
REMARK    7  A    between atoms: C17_21  and  O9_34
REMARK    8  A    between atoms: C19_23  and  O8_33
REMARK    9  A    between atoms: C20_25  and  O7_32
REMARK   10  A    between atoms: C21_27  and  C22_30
REMARK   11  A    between atoms: C22_30  and  O6_31
REMARK                            x       y       z     vdW  Elec       q    Type
REMARK                         _______ _______ _______ _____ _____    ______ ____
ROOT
ATOM      1  C   UNL     1      46.078  17.016  21.935  0.00  0.00    +0.078 C 
ATOM      2  C   UNL     1      46.219  17.622  20.537  0.00  0.00    +0.008 C 
ATOM     18  C   UNL     1      47.582  18.233  20.417  0.00  0.00    -0.030 A 
ATOM     19  C   UNL     1      48.667  17.558  20.949  0.00  0.00    +0.004 A 
ATOM     20  C   UNL     1      49.943  18.084  20.849  0.00  0.00    +0.067 A 
ATOM     21  C   UNL     1      50.157  19.293  20.217  0.00  0.00    -0.010 A 
ATOM     22  C   UNL     1      49.084  19.989  19.680  0.00  0.00    +0.169 A 
ATOM     25  C   UNL     1      47.793  19.457  19.784  0.00  0.00    -0.180 A 
ATOM     26  C   UNL     1      46.643  20.202  19.233  0.00  0.00    +0.441 C 
ATOM     27  C   UNL     1      45.291  19.822  19.693  0.00  0.00    -0.172 A 
ATOM     28  C   UNL     1      44.214  20.695  19.497  0.00  0.00    +0.162 A 
ATOM     31  C   UNL     1      42.949  20.333  19.938  0.00  0.00    +0.001 A 
ATOM     32  C   UNL     1      42.764  19.118  20.566  0.00  0.00    -0.045 A 
ATOM     36  C   UNL     1      43.828  18.253  20.756  0.00  0.00    +0.050 A 
ATOM     37  O   UNL     1      46.802  21.099  18.427  0.00  0.00    -0.422 OA
ATOM     38  C   UNL     1      45.097  18.591  20.321  0.00  0.00    -0.004 A 
ENDROOT
BRANCH   2   3
ATOM      3  C   UNL     1      46.099  16.499  19.505  0.00  0.00    +0.316 C 
ATOM      6  C   UNL     1      46.364  17.061  18.105  0.00  0.00    +0.023 C 
ATOM      7  C   UNL     1      46.302  15.920  17.086  0.00  0.00    +0.150 C 
ATOM     10  C   UNL     1      47.315  14.841  17.480  0.00  0.00    +0.127 C 
ATOM     13  C   UNL     1      47.013  14.364  18.904  0.00  0.00    +0.226 C 
ATOM     17  O   UNL     1      47.057  15.479  19.796  0.00  0.00    -0.323 OA
BRANCH   3   4
ATOM      4  O   UNL     1      44.783  15.945  19.554  0.00  0.00    -0.547 OA
ATOM      5  H   UNL     1      44.142  16.404  18.995  0.00  0.00    +0.376 HD
ENDBRANCH   3   4
BRANCH   7   8
ATOM      8  O   UNL     1      46.618  16.423  15.786  0.00  0.00    -0.558 OA
ATOM      9  H   UNL     1      46.415  15.810  15.066  0.00  0.00    +0.379 HD
ENDBRANCH   7   8
BRANCH  10  11
ATOM     11  O   UNL     1      47.215  13.739  16.575  0.00  0.00    -0.554 OA
ATOM     12  H   UNL     1      47.836  13.781  15.835  0.00  0.00    +0.381 HD
ENDBRANCH  10  11
BRANCH  13  14
ATOM     14  C   UNL     1      45.621  13.732  18.946  0.00  0.00    +0.182 C 
BRANCH  14  15
ATOM     15  O   UNL     1      45.363  13.233  20.260  0.00  0.00    -0.557 OA
ATOM     16  H   UNL     1      45.704  13.796  20.969  0.00  0.00    +0.375 HD
ENDBRANCH  14  15
ENDBRANCH  13  14
ENDBRANCH   2   3
BRANCH  22  23
ATOM     23  O   UNL     1      49.286  21.176  19.056  0.00  0.00    -0.481 OA
ATOM     24  H   UNL     1      48.518  21.763  19.069  0.00  0.00    +0.400 HD
ENDBRANCH  22  23
BRANCH  28  29
ATOM     29  O   UNL     1      44.406  21.888  18.882  0.00  0.00    -0.482 OA
ATOM     30  H   UNL     1      43.684  22.148  18.293  0.00  0.00    +0.397 HD
ENDBRANCH  28  29
BRANCH  32  33
ATOM     33  C   UNL     1      41.390  18.728  21.049  0.00  0.00    +0.234 C 
BRANCH  33  34
ATOM     34  O   UNL     1      41.082  19.452  22.242  0.00  0.00    -0.566 OA
ATOM     35  H   UNL     1      40.744  20.345  22.083  0.00  0.00    +0.384 HD
ENDBRANCH  33  34
ENDBRANCH  32  33
TORSDOF 10
ENDMDL
MODEL 8
REMARK VINA RESULT:      -5.6      2.420      5.492
REMARK  Name = ZINC95486259
REMARK  11 active torsions:
REMARK  status: ('A' for Active; 'I' for Inactive)
REMARK    1  A    between atoms: C1_1  and  C2_2
REMARK    2  A    between atoms: C2_2  and  C17_21
REMARK    3  A    between atoms: C7_7  and  O4_20
REMARK    4  A    between atoms: C13_14  and  C16_18
REMARK    5  A    between atoms: C15_16  and  O2_17
REMARK    6  A    between atoms: C16_18  and  O3_19
REMARK    7  A    between atoms: C17_21  and  O9_34
REMARK    8  A    between atoms: C19_23  and  O8_33
REMARK    9  A    between atoms: C20_25  and  O7_32
REMARK   10  A    between atoms: C21_27  and  C22_30
REMARK   11  A    between atoms: C22_30  and  O6_31
REMARK                            x       y       z     vdW  Elec       q    Type
REMARK                         _______ _______ _______ _____ _____    ______ ____
ROOT
ATOM      1  C   UNL     1      46.646  17.527  16.946  0.00  0.00    +0.078 C 
ATOM      2  C   UNL     1      47.082  18.015  18.329  0.00  0.00    +0.008 C 
ATOM     18  C   UNL     1      46.189  19.145  18.741  0.00  0.00    -0.030 A 
ATOM     19  C   UNL     1      44.833  19.056  18.476  0.00  0.00    +0.004 A 
ATOM     20  C   UNL     1      43.973  20.074  18.849  0.00  0.00    +0.067 A 
ATOM     21  C   UNL     1      44.452  21.198  19.493  0.00  0.00    -0.010 A 
ATOM     22  C   UNL     1      45.808  21.310  19.764  0.00  0.00    +0.169 A 
ATOM     25  C   UNL     1      46.678  20.281  19.383  0.00  0.00    -0.180 A 
ATOM     26  C   UNL     1      48.126  20.403  19.651  0.00  0.00    +0.441 C 
ATOM     27  C   UNL     1      49.040  19.513  18.907  0.00  0.00    -0.172 A 
ATOM     28  C   UNL     1      50.408  19.811  18.842  0.00  0.00    +0.162 A 
ATOM     31  C   UNL     1      51.259  18.974  18.136  0.00  0.00    +0.001 A 
ATOM     32  C   UNL     1      50.752  17.857  17.504  0.00  0.00    -0.045 A 
ATOM     36  C   UNL     1      49.402  17.560  17.571  0.00  0.00    +0.050 A 
ATOM     37  O   UNL     1      48.551  21.209  20.456  0.00  0.00    -0.422 OA
ATOM     38  C   UNL     1      48.535  18.378  18.273  0.00  0.00    -0.004 A 
ENDROOT
BRANCH   2   3
ATOM      3  C   UNL     1      46.905  16.869  19.328  0.00  0.00    +0.316 C 
ATOM      6  C   UNL     1      45.888  15.864  18.777  0.00  0.00    +0.023 C 
ATOM      7  C   UNL     1      45.762  14.691  19.752  0.00  0.00    +0.150 C 
ATOM     10  C   UNL     1      47.143  14.063  19.962  0.00  0.00    +0.127 C 
ATOM     13  C   UNL     1      48.112  15.137  20.467  0.00  0.00    +0.226 C 
ATOM     17  O   UNL     1      48.159  16.213  19.528  0.00  0.00    -0.323 OA
BRANCH   3   4
ATOM      4  O   UNL     1      46.434  17.389  20.572  0.00  0.00    -0.547 OA
ATOM      5  H   UNL     1      46.954  17.108  21.337  0.00  0.00    +0.376 HD
ENDBRANCH   3   4
BRANCH   7   8
ATOM      8  O   UNL     1      44.869  13.714  19.213  0.00  0.00    -0.558 OA
ATOM      9  H   UNL     1      45.197  12.807  19.269  0.00  0.00    +0.379 HD
ENDBRANCH   7   8
BRANCH  10  11
ATOM     11  O   UNL     1      47.050  13.012  20.926  0.00  0.00    -0.554 OA
ATOM     12  H   UNL     1      47.392  13.247  21.799  0.00  0.00    +0.381 HD
ENDBRANCH  10  11
BRANCH  13  14
ATOM     14  C   UNL     1      47.630  15.662  21.821  0.00  0.00    +0.182 C 
BRANCH  14  15
ATOM     15  O   UNL     1      48.637  16.499  22.393  0.00  0.00    -0.557 OA
ATOM     16  H   UNL     1      49.541  16.195  22.232  0.00  0.00    +0.375 HD
ENDBRANCH  14  15
ENDBRANCH  13  14
ENDBRANCH   2   3
BRANCH  22  23
ATOM     23  O   UNL     1      46.287  22.411  20.397  0.00  0.00    -0.481 OA
ATOM     24  H   UNL     1      45.672  23.156  20.411  0.00  0.00    +0.400 HD
ENDBRANCH  22  23
BRANCH  28  29
ATOM     29  O   UNL     1      50.895  20.913  19.464  0.00  0.00    -0.482 OA
ATOM     30  H   UNL     1      51.708  21.259  19.071  0.00  0.00    +0.397 HD
ENDBRANCH  28  29
BRANCH  32  33
ATOM     33  C   UNL     1      51.678  16.950  16.733  0.00  0.00    +0.234 C 
BRANCH  33  34
ATOM     34  O   UNL     1      52.270  17.680  15.655  0.00  0.00    -0.566 OA
ATOM     35  H   UNL     1      51.646  18.235  15.167  0.00  0.00    +0.384 HD
ENDBRANCH  33  34
ENDBRANCH  32  33
TORSDOF 10
ENDMDL
MODEL 9
REMARK VINA RESULT:      -5.5      2.535      4.476
REMARK  Name = ZINC95486259
REMARK  11 active torsions:
REMARK  status: ('A' for Active; 'I' for Inactive)
REMARK    1  A    between atoms: C1_1  and  C2_2
REMARK    2  A    between atoms: C2_2  and  C17_21
REMARK    3  A    between atoms: C7_7  and  O4_20
REMARK    4  A    between atoms: C13_14  and  C16_18
REMARK    5  A    between atoms: C15_16  and  O2_17
REMARK    6  A    between atoms: C16_18  and  O3_19
REMARK    7  A    between atoms: C17_21  and  O9_34
REMARK    8  A    between atoms: C19_23  and  O8_33
REMARK    9  A    between atoms: C20_25  and  O7_32
REMARK   10  A    between atoms: C21_27  and  C22_30
REMARK   11  A    between atoms: C22_30  and  O6_31
REMARK                            x       y       z     vdW  Elec       q    Type
REMARK                         _______ _______ _______ _____ _____    ______ ____
ROOT
ATOM      1  C   UNL     1      51.130  15.481  19.498  0.00  0.00    +0.078 C 
ATOM      2  C   UNL     1      49.944  15.990  18.676  0.00  0.00    +0.008 C 
ATOM     18  C   UNL     1      48.762  16.139  19.585  0.00  0.00    -0.030 A 
ATOM     19  C   UNL     1      48.954  16.666  20.851  0.00  0.00    +0.004 A 
ATOM     20  C   UNL     1      47.887  16.831  21.716  0.00  0.00    +0.067 A 
ATOM     21  C   UNL     1      46.610  16.471  21.333  0.00  0.00    -0.010 A 
ATOM     22  C   UNL     1      46.394  15.937  20.071  0.00  0.00    +0.169 A 
ATOM     25  C   UNL     1      47.475  15.768  19.198  0.00  0.00    -0.180 A 
ATOM     26  C   UNL     1      47.257  15.181  17.860  0.00  0.00    +0.441 C 
ATOM     27  C   UNL     1      48.435  14.664  17.134  0.00  0.00    -0.172 A 
ATOM     28  C   UNL     1      48.262  13.792  16.051  0.00  0.00    +0.162 A 
ATOM     31  C   UNL     1      49.374  13.305  15.379  0.00  0.00    +0.001 A 
ATOM     32  C   UNL     1      50.638  13.683  15.783  0.00  0.00    -0.045 A 
ATOM     36  C   UNL     1      50.809  14.547  16.851  0.00  0.00    +0.050 A 
ATOM     37  O   UNL     1      46.145  15.125  17.371  0.00  0.00    -0.422 OA
ATOM     38  C   UNL     1      49.715  15.048  17.533  0.00  0.00    -0.004 A 
ENDROOT
BRANCH   2   3
ATOM      3  C   UNL     1      50.298  17.366  18.111  0.00  0.00    +0.316 C 
ATOM      6  C   UNL     1      49.654  18.455  18.975  0.00  0.00    +0.023 C 
ATOM      7  C   UNL     1      50.063  19.830  18.439  0.00  0.00    +0.150 C 
ATOM     10  C   UNL     1      51.591  19.927  18.425  0.00  0.00    +0.127 C 
ATOM     13  C   UNL     1      52.160  18.782  17.582  0.00  0.00    +0.226 C 
ATOM     17  O   UNL     1      51.717  17.534  18.117  0.00  0.00    -0.323 OA
BRANCH   3   4
ATOM      4  O   UNL     1      49.811  17.472  16.772  0.00  0.00    -0.547 OA
ATOM      5  H   UNL     1      50.427  17.899  16.162  0.00  0.00    +0.376 HD
ENDBRANCH   3   4
BRANCH   7   8
ATOM      8  O   UNL     1      49.525  20.851  19.282  0.00  0.00    -0.558 OA
ATOM      9  H   UNL     1      48.665  20.631  19.667  0.00  0.00    +0.379 HD
ENDBRANCH   7   8
BRANCH  10  11
ATOM     11  O   UNL     1      51.985  21.179  17.861  0.00  0.00    -0.554 OA
ATOM     12  H   UNL     1      52.209  21.134  16.921  0.00  0.00    +0.381 HD
ENDBRANCH  10  11
BRANCH  13  14
ATOM     14  C   UNL     1      51.673  18.921  16.139  0.00  0.00    +0.182 C 
BRANCH  14  15
ATOM     15  O   UNL     1      52.340  17.961  15.316  0.00  0.00    -0.557 OA
ATOM     16  H   UNL     1      52.396  18.212  14.384  0.00  0.00    +0.375 HD
ENDBRANCH  14  15
ENDBRANCH  13  14
ENDBRANCH   2   3
BRANCH  22  23
ATOM     23  O   UNL     1      45.143  15.582  19.686  0.00  0.00    -0.481 OA
ATOM     24  H   UNL     1      44.779  14.831  20.174  0.00  0.00    +0.400 HD
ENDBRANCH  22  23
BRANCH  28  29
ATOM     29  O   UNL     1      47.016  13.425  15.663  0.00  0.00    -0.482 OA
ATOM     30  H   UNL     1      46.309  13.939  16.076  0.00  0.00    +0.397 HD
ENDBRANCH  28  29
BRANCH  32  33
ATOM     33  C   UNL     1      51.846  13.149  15.055  0.00  0.00    +0.234 C 
BRANCH  33  34
ATOM     34  O   UNL     1      52.111  13.965  13.911  0.00  0.00    -0.566 OA
ATOM     35  H   UNL     1      52.517  14.818  14.123  0.00  0.00    +0.384 HD
ENDBRANCH  33  34
ENDBRANCH  32  33
TORSDOF 10
ENDMDL
