MODEL 1
REMARK VINA RESULT:      -7.1      0.000      0.000
REMARK  Name = ZINC95486075
REMARK  11 active torsions:
REMARK  status: ('A' for Active; 'I' for Inactive)
REMARK    1  A    between atoms: C1_1  and  C2_2
REMARK    2  A    between atoms: C5_5  and  O3_38
REMARK    3  A    between atoms: C6_7  and  C29_36
REMARK    4  A    between atoms: C6_7  and  C30_37
REMARK    5  A    between atoms: C10_12  and  C28_35
REMARK    6  A    between atoms: C15_18  and  C27_34
REMARK    7  A    between atoms: C17_20  and  O2_33
REMARK    8  A    between atoms: C18_22  and  C26_31
REMARK    9  A    between atoms: C21_26  and  C24_29
REMARK   10  A    between atoms: C21_26  and  C25_30
REMARK   11  A    between atoms: C26_31  and  O1_32
REMARK                            x       y       z     vdW  Elec       q    Type
REMARK                         _______ _______ _______ _____ _____    ______ ____
ROOT
ATOM      1  C   UNL     1      45.851  13.670  18.563  0.00  0.00    +0.026 C 
ATOM      2  C   UNL     1      46.622  14.879  18.047  0.00  0.00    -0.037 C 
ATOM      3  C   UNL     1      46.589  14.815  16.506  0.00  0.00    +0.019 C 
ATOM      4  C   UNL     1      47.285  13.536  16.044  0.00  0.00    -0.020 C 
ATOM      5  C   UNL     1      48.749  13.545  16.461  0.00  0.00    +0.165 C 
ATOM      8  C   UNL     1      48.936  13.774  17.960  0.00  0.00    -0.039 C 
ATOM      9  C   UNL     1      48.718  12.471  18.724  0.00  0.00    +0.034 C 
ATOM     10  C   UNL     1      50.422  14.168  18.155  0.00  0.00    +0.017 C 
ATOM     11  C   UNL     1      45.931  16.187  18.474  0.00  0.00    +0.015 C 
ATOM     12  C   UNL     1      46.549  17.283  17.590  0.00  0.00    +0.057 C 
ATOM     13  C   UNL     1      46.147  18.652  18.030  0.00  0.00    -0.057 C 
ATOM     14  C   UNL     1      45.682  18.923  19.207  0.00  0.00    -0.098 C 
ATOM     15  C   UNL     1      45.483  17.888  20.273  0.00  0.00    +0.004 C 
ATOM     16  C   UNL     1      46.099  18.373  21.586  0.00  0.00    +0.026 C 
ATOM     17  C   UNL     1      43.976  17.778  20.505  0.00  0.00    +0.001 C 
ATOM     18  C   UNL     1      43.229  19.003  19.995  0.00  0.00    +0.160 C 
ATOM     21  C   UNL     1      43.941  20.343  20.225  0.00  0.00    -0.010 C 
ATOM     25  C   UNL     1      43.924  20.691  21.690  0.00  0.00    +0.037 C 
ATOM     26  C   UNL     1      45.139  21.363  22.271  0.00  0.00    +0.011 C 
ATOM     27  C   UNL     1      46.031  22.060  21.259  0.00  0.00    -0.051 C 
ATOM     28  C   UNL     1      45.370  23.344  20.749  0.00  0.00    +0.020 C 
ATOM     29  C   UNL     1      47.339  22.466  21.974  0.00  0.00    +0.017 C 
ATOM     30  C   UNL     1      46.396  21.154  20.100  0.00  0.00    +0.034 C 
ATOM     31  C   UNL     1      45.274  20.350  19.523  0.00  0.00    +0.027 C 
ATOM     32  C   UNL     1      46.118  16.536  19.943  0.00  0.00    -0.025 C 
ATOM     33  C   UNL     1      45.407  15.526  20.866  0.00  0.00    +0.018 C 
ATOM     34  C   UNL     1      47.601  16.505  20.314  0.00  0.00    +0.022 C 
ATOM     35  C   UNL     1      48.197  15.127  19.974  0.00  0.00    +0.013 C 
ATOM     36  C   UNL     1      48.079  14.912  18.471  0.00  0.00    +0.003 C 
ENDROOT
BRANCH   5   6
ATOM      6  O   UNL     1      49.356  12.298  16.097  0.00  0.00    -0.565 OA
ATOM      7  H   UNL     1      48.823  11.762  15.494  0.00  0.00    +0.374 HD
ENDBRANCH   5   6
BRANCH  18  19
ATOM     19  O   UNL     1      41.936  19.054  20.615  0.00  0.00    -0.540 OA
ATOM     20  H   UNL     1      41.561  18.186  20.817  0.00  0.00    +0.364 HD
ENDBRANCH  18  19
BRANCH  21  22
ATOM     22  C   UNL     1      43.050  21.391  19.505  0.00  0.00    +0.153 C 
BRANCH  22  23
ATOM     23  O   UNL     1      42.412  20.782  18.380  0.00  0.00    -0.541 OA
ATOM     24  H   UNL     1      42.875  20.922  17.543  0.00  0.00    +0.366 HD
ENDBRANCH  22  23
ENDBRANCH  21  22
TORSDOF 4
ENDMDL
MODEL 2
REMARK VINA RESULT:      -7.0      3.155      7.457
REMARK  Name = ZINC95486075
REMARK  11 active torsions:
REMARK  status: ('A' for Active; 'I' for Inactive)
REMARK    1  A    between atoms: C1_1  and  C2_2
REMARK    2  A    between atoms: C5_5  and  O3_38
REMARK    3  A    between atoms: C6_7  and  C29_36
REMARK    4  A    between atoms: C6_7  and  C30_37
REMARK    5  A    between atoms: C10_12  and  C28_35
REMARK    6  A    between atoms: C15_18  and  C27_34
REMARK    7  A    between atoms: C17_20  and  O2_33
REMARK    8  A    between atoms: C18_22  and  C26_31
REMARK    9  A    between atoms: C21_26  and  C24_29
REMARK   10  A    between atoms: C21_26  and  C25_30
REMARK   11  A    between atoms: C26_31  and  O1_32
REMARK                            x       y       z     vdW  Elec       q    Type
REMARK                         _______ _______ _______ _____ _____    ______ ____
ROOT
ATOM      1  C   UNL     1      44.943  21.435  20.565  0.00  0.00    +0.026 C 
ATOM      2  C   UNL     1      44.919  20.095  19.837  0.00  0.00    -0.037 C 
ATOM      3  C   UNL     1      43.846  20.198  18.733  0.00  0.00    +0.019 C 
ATOM      4  C   UNL     1      42.485  20.447  19.380  0.00  0.00    -0.020 C 
ATOM      5  C   UNL     1      42.098  19.276  20.275  0.00  0.00    +0.165 C 
ATOM      8  C   UNL     1      43.164  18.953  21.320  0.00  0.00    -0.039 C 
ATOM      9  C   UNL     1      43.048  19.908  22.505  0.00  0.00    +0.034 C 
ATOM     10  C   UNL     1      42.833  17.534  21.850  0.00  0.00    +0.017 C 
ATOM     11  C   UNL     1      46.270  19.826  19.151  0.00  0.00    +0.015 C 
ATOM     12  C   UNL     1      46.002  18.686  18.154  0.00  0.00    +0.057 C 
ATOM     13  C   UNL     1      47.264  18.151  17.561  0.00  0.00    -0.057 C 
ATOM     14  C   UNL     1      48.434  18.323  18.084  0.00  0.00    -0.098 C 
ATOM     15  C   UNL     1      48.668  19.091  19.350  0.00  0.00    +0.004 C 
ATOM     16  C   UNL     1      49.554  18.275  20.293  0.00  0.00    +0.026 C 
ATOM     17  C   UNL     1      49.461  20.341  18.968  0.00  0.00    +0.001 C 
ATOM     18  C   UNL     1      50.151  20.189  17.619  0.00  0.00    +0.160 C 
ATOM     21  C   UNL     1      50.738  18.799  17.341  0.00  0.00    -0.010 C 
ATOM     25  C   UNL     1      51.942  18.563  18.213  0.00  0.00    +0.037 C 
ATOM     26  C   UNL     1      52.159  17.178  18.763  0.00  0.00    +0.011 C 
ATOM     27  C   UNL     1      51.450  16.070  18.003  0.00  0.00    -0.051 C 
ATOM     28  C   UNL     1      52.135  15.814  16.656  0.00  0.00    +0.020 C 
ATOM     29  C   UNL     1      51.564  14.773  18.833  0.00  0.00    +0.017 C 
ATOM     30  C   UNL     1      49.978  16.367  17.802  0.00  0.00    +0.034 C 
ATOM     31  C   UNL     1      49.647  17.759  17.366  0.00  0.00    +0.027 C 
ATOM     32  C   UNL     1      47.384  19.429  20.108  0.00  0.00    -0.025 C 
ATOM     33  C   UNL     1      47.771  20.589  21.049  0.00  0.00    +0.018 C 
ATOM     34  C   UNL     1      46.934  18.270  20.998  0.00  0.00    +0.022 C 
ATOM     35  C   UNL     1      45.646  18.655  21.749  0.00  0.00    +0.013 C 
ATOM     36  C   UNL     1      44.553  18.916  20.721  0.00  0.00    +0.003 C 
ENDROOT
BRANCH   5   6
ATOM      6  O   UNL     1      40.863  19.574  20.940  0.00  0.00    -0.565 OA
ATOM      7  H   UNL     1      40.118  19.719  20.341  0.00  0.00    +0.374 HD
ENDBRANCH   5   6
BRANCH  18  19
ATOM     19  O   UNL     1      51.201  21.162  17.520  0.00  0.00    -0.540 OA
ATOM     20  H   UNL     1      52.069  20.834  17.792  0.00  0.00    +0.364 HD
ENDBRANCH  18  19
BRANCH  21  22
ATOM     22  C   UNL     1      51.253  18.873  15.878  0.00  0.00    +0.153 C 
BRANCH  22  23
ATOM     23  O   UNL     1      52.589  19.382  15.869  0.00  0.00    -0.541 OA
ATOM     24  H   UNL     1      52.788  19.978  16.604  0.00  0.00    +0.366 HD
ENDBRANCH  22  23
ENDBRANCH  21  22
TORSDOF 4
ENDMDL
MODEL 3
REMARK VINA RESULT:      -6.9      1.486      8.087
REMARK  Name = ZINC95486075
REMARK  11 active torsions:
REMARK  status: ('A' for Active; 'I' for Inactive)
REMARK    1  A    between atoms: C1_1  and  C2_2
REMARK    2  A    between atoms: C5_5  and  O3_38
REMARK    3  A    between atoms: C6_7  and  C29_36
REMARK    4  A    between atoms: C6_7  and  C30_37
REMARK    5  A    between atoms: C10_12  and  C28_35
REMARK    6  A    between atoms: C15_18  and  C27_34
REMARK    7  A    between atoms: C17_20  and  O2_33
REMARK    8  A    between atoms: C18_22  and  C26_31
REMARK    9  A    between atoms: C21_26  and  C24_29
REMARK   10  A    between atoms: C21_26  and  C25_30
REMARK   11  A    between atoms: C26_31  and  O1_32
REMARK                            x       y       z     vdW  Elec       q    Type
REMARK                         _______ _______ _______ _____ _____    ______ ____
ROOT
ATOM      1  C   UNL     1      46.762  19.452  20.975  0.00  0.00    +0.026 C 
ATOM      2  C   UNL     1      46.149  19.034  19.643  0.00  0.00    -0.037 C 
ATOM      3  C   UNL     1      46.251  20.248  18.696  0.00  0.00    +0.019 C 
ATOM      4  C   UNL     1      45.447  21.407  19.281  0.00  0.00    -0.020 C 
ATOM      5  C   UNL     1      43.973  21.037  19.380  0.00  0.00    +0.165 C 
ATOM      8  C   UNL     1      43.738  19.744  20.159  0.00  0.00    -0.039 C 
ATOM      9  C   UNL     1      43.779  20.016  21.660  0.00  0.00    +0.034 C 
ATOM     10  C   UNL     1      42.294  19.292  19.821  0.00  0.00    +0.017 C 
ATOM     11  C   UNL     1      46.954  17.883  19.012  0.00  0.00    +0.015 C 
ATOM     12  C   UNL     1      46.500  17.823  17.544  0.00  0.00    +0.057 C 
ATOM     13  C   UNL     1      47.023  16.612  16.844  0.00  0.00    -0.057 C 
ATOM     14  C   UNL     1      47.456  15.558  17.455  0.00  0.00    -0.098 C 
ATOM     15  C   UNL     1      47.491  15.426  18.948  0.00  0.00    +0.004 C 
ATOM     16  C   UNL     1      46.866  14.093  19.364  0.00  0.00    +0.026 C 
ATOM     17  C   UNL     1      48.965  15.369  19.351  0.00  0.00    +0.001 C 
ATOM     18  C   UNL     1      49.862  14.986  18.181  0.00  0.00    +0.160 C 
ATOM     21  C   UNL     1      49.286  13.918  17.242  0.00  0.00    -0.010 C 
ATOM     25  C   UNL     1      49.268  12.579  17.931  0.00  0.00    +0.037 C 
ATOM     26  C   UNL     1      48.104  11.662  17.665  0.00  0.00    +0.011 C 
ATOM     27  C   UNL     1      47.342  11.950  16.384  0.00  0.00    -0.051 C 
ATOM     28  C   UNL     1      48.160  11.525  15.160  0.00  0.00    +0.020 C 
ATOM     29  C   UNL     1      46.052  11.101  16.394  0.00  0.00    +0.017 C 
ATOM     30  C   UNL     1      46.940  13.407  16.274  0.00  0.00    +0.034 C 
ATOM     31  C   UNL     1      47.997  14.404  16.631  0.00  0.00    +0.027 C 
ATOM     32  C   UNL     1      46.733  16.534  19.680  0.00  0.00    -0.025 C 
ATOM     33  C   UNL     1      47.287  16.510  21.120  0.00  0.00    +0.018 C 
ATOM     34  C   UNL     1      45.239  16.224  19.778  0.00  0.00    +0.022 C 
ATOM     35  C   UNL     1      44.517  17.358  20.528  0.00  0.00    +0.013 C 
ATOM     36  C   UNL     1      44.685  18.644  19.729  0.00  0.00    +0.003 C 
ENDROOT
BRANCH   5   6
ATOM      6  O   UNL     1      43.256  22.104  20.016  0.00  0.00    -0.565 OA
ATOM      7  H   UNL     1      43.591  22.336  20.893  0.00  0.00    +0.374 HD
ENDBRANCH   5   6
BRANCH  18  19
ATOM     19  O   UNL     1      51.121  14.522  18.690  0.00  0.00    -0.540 OA
ATOM     20  H   UNL     1      51.105  14.291  19.629  0.00  0.00    +0.364 HD
ENDBRANCH  18  19
BRANCH  21  22
ATOM     22  C   UNL     1      50.317  13.812  16.086  0.00  0.00    +0.153 C 
BRANCH  22  23
ATOM     23  O   UNL     1      51.268  12.789  16.389  0.00  0.00    -0.541 OA
ATOM     24  H   UNL     1      51.623  12.835  17.287  0.00  0.00    +0.366 HD
ENDBRANCH  22  23
ENDBRANCH  21  22
TORSDOF 4
ENDMDL
MODEL 4
REMARK VINA RESULT:      -6.3      1.663      7.865
REMARK  Name = ZINC95486075
REMARK  11 active torsions:
REMARK  status: ('A' for Active; 'I' for Inactive)
REMARK    1  A    between atoms: C1_1  and  C2_2
REMARK    2  A    between atoms: C5_5  and  O3_38
REMARK    3  A    between atoms: C6_7  and  C29_36
REMARK    4  A    between atoms: C6_7  and  C30_37
REMARK    5  A    between atoms: C10_12  and  C28_35
REMARK    6  A    between atoms: C15_18  and  C27_34
REMARK    7  A    between atoms: C17_20  and  O2_33
REMARK    8  A    between atoms: C18_22  and  C26_31
REMARK    9  A    between atoms: C21_26  and  C24_29
REMARK   10  A    between atoms: C21_26  and  C25_30
REMARK   11  A    between atoms: C26_31  and  O1_32
REMARK                            x       y       z     vdW  Elec       q    Type
REMARK                         _______ _______ _______ _____ _____    ______ ____
ROOT
ATOM      1  C   UNL     1      45.449  19.564  18.074  0.00  0.00    +0.026 C 
ATOM      2  C   UNL     1      45.385  18.570  19.228  0.00  0.00    -0.037 C 
ATOM      3  C   UNL     1      43.916  18.512  19.697  0.00  0.00    +0.019 C 
ATOM      4  C   UNL     1      43.496  19.893  20.195  0.00  0.00    -0.020 C 
ATOM      5  C   UNL     1      44.335  20.305  21.398  0.00  0.00    +0.165 C 
ATOM      8  C   UNL     1      45.836  20.243  21.121  0.00  0.00    -0.039 C 
ATOM      9  C   UNL     1      46.286  21.492  20.369  0.00  0.00    +0.034 C 
ATOM     10  C   UNL     1      46.532  20.274  22.505  0.00  0.00    +0.017 C 
ATOM     11  C   UNL     1      45.779  17.160  18.753  0.00  0.00    +0.015 C 
ATOM     12  C   UNL     1      45.305  16.207  19.863  0.00  0.00    +0.057 C 
ATOM     13  C   UNL     1      45.809  14.816  19.661  0.00  0.00    -0.057 C 
ATOM     14  C   UNL     1      46.816  14.517  18.906  0.00  0.00    -0.098 C 
ATOM     15  C   UNL     1      47.597  15.536  18.132  0.00  0.00    +0.004 C 
ATOM     16  C   UNL     1      49.094  15.328  18.369  0.00  0.00    +0.026 C 
ATOM     17  C   UNL     1      47.340  15.256  16.650  0.00  0.00    +0.001 C 
ATOM     18  C   UNL     1      46.823  13.843  16.418  0.00  0.00    +0.160 C 
ATOM     21  C   UNL     1      47.463  12.762  17.298  0.00  0.00    -0.010 C 
ATOM     25  C   UNL     1      48.889  12.528  16.874  0.00  0.00    +0.037 C 
ATOM     26  C   UNL     1      49.909  12.248  17.945  0.00  0.00    +0.011 C 
ATOM     27  C   UNL     1      49.337  11.743  19.258  0.00  0.00    -0.051 C 
ATOM     28  C   UNL     1      48.855  10.295  19.117  0.00  0.00    +0.020 C 
ATOM     29  C   UNL     1      50.469  11.752  20.308  0.00  0.00    +0.017 C 
ATOM     30  C   UNL     1      48.218  12.627  19.771  0.00  0.00    +0.034 C 
ATOM     31  C   UNL     1      47.210  13.059  18.754  0.00  0.00    +0.027 C 
ATOM     32  C   UNL     1      47.271  16.980  18.514  0.00  0.00    -0.025 C 
ATOM     33  C   UNL     1      47.766  17.828  17.324  0.00  0.00    +0.018 C 
ATOM     34  C   UNL     1      48.065  17.431  19.739  0.00  0.00    +0.022 C 
ATOM     35  C   UNL     1      47.714  18.890  20.083  0.00  0.00    +0.013 C 
ATOM     36  C   UNL     1      46.232  18.957  20.427  0.00  0.00    +0.003 C 
ENDROOT
BRANCH   5   6
ATOM      6  O   UNL     1      43.984  21.639  21.788  0.00  0.00    -0.565 OA
ATOM      7  H   UNL     1      44.189  21.846  22.710  0.00  0.00    +0.374 HD
ENDBRANCH   5   6
BRANCH  18  19
ATOM     19  O   UNL     1      47.021  13.494  15.040  0.00  0.00    -0.540 OA
ATOM     20  H   UNL     1      47.670  14.046  14.583  0.00  0.00    +0.364 HD
ENDBRANCH  18  19
BRANCH  21  22
ATOM     22  C   UNL     1      46.679  11.465  16.963  0.00  0.00    +0.153 C 
BRANCH  22  23
ATOM     23  O   UNL     1      45.382  11.807  16.469  0.00  0.00    -0.541 OA
ATOM     24  H   UNL     1      45.065  11.228  15.762  0.00  0.00    +0.366 HD
ENDBRANCH  22  23
ENDBRANCH  21  22
TORSDOF 4
ENDMDL
MODEL 5
REMARK VINA RESULT:      -6.3      4.364      7.951
REMARK  Name = ZINC95486075
REMARK  11 active torsions:
REMARK  status: ('A' for Active; 'I' for Inactive)
REMARK    1  A    between atoms: C1_1  and  C2_2
REMARK    2  A    between atoms: C5_5  and  O3_38
REMARK    3  A    between atoms: C6_7  and  C29_36
REMARK    4  A    between atoms: C6_7  and  C30_37
REMARK    5  A    between atoms: C10_12  and  C28_35
REMARK    6  A    between atoms: C15_18  and  C27_34
REMARK    7  A    between atoms: C17_20  and  O2_33
REMARK    8  A    between atoms: C18_22  and  C26_31
REMARK    9  A    between atoms: C21_26  and  C24_29
REMARK   10  A    between atoms: C21_26  and  C25_30
REMARK   11  A    between atoms: C26_31  and  O1_32
REMARK                            x       y       z     vdW  Elec       q    Type
REMARK                         _______ _______ _______ _____ _____    ______ ____
ROOT
ATOM      1  C   UNL     1      52.965  17.925  18.741  0.00  0.00    +0.026 C 
ATOM      2  C   UNL     1      51.506  18.271  18.462  0.00  0.00    -0.037 C 
ATOM      3  C   UNL     1      51.499  19.357  17.366  0.00  0.00    +0.019 C 
ATOM      4  C   UNL     1      52.221  20.598  17.888  0.00  0.00    -0.020 C 
ATOM      5  C   UNL     1      51.492  21.172  19.095  0.00  0.00    +0.165 C 
ATOM      8  C   UNL     1      51.278  20.142  20.203  0.00  0.00    -0.039 C 
ATOM      9  C   UNL     1      52.549  19.988  21.034  0.00  0.00    +0.034 C 
ATOM     10  C   UNL     1      50.195  20.733  21.140  0.00  0.00    +0.017 C 
ATOM     11  C   UNL     1      50.755  17.046  17.909  0.00  0.00    +0.015 C 
ATOM     12  C   UNL     1      49.452  17.602  17.309  0.00  0.00    +0.057 C 
ATOM     13  C   UNL     1      48.502  16.517  16.926  0.00  0.00    -0.057 C 
ATOM     14  C   UNL     1      48.566  15.309  17.385  0.00  0.00    -0.098 C 
ATOM     15  C   UNL     1      49.613  14.849  18.355  0.00  0.00    +0.004 C 
ATOM     16  C   UNL     1      48.951  14.104  19.515  0.00  0.00    +0.026 C 
ATOM     17  C   UNL     1      50.485  13.834  17.615  0.00  0.00    +0.001 C 
ATOM     18  C   UNL     1      49.783  13.266  16.389  0.00  0.00    +0.160 C 
ATOM     21  C   UNL     1      48.282  13.001  16.561  0.00  0.00    -0.010 C 
ATOM     25  C   UNL     1      48.067  11.827  17.478  0.00  0.00    +0.037 C 
ATOM     26  C   UNL     1      46.902  11.877  18.431  0.00  0.00    +0.011 C 
ATOM     27  C   UNL     1      45.798  12.843  18.041  0.00  0.00    -0.051 C 
ATOM     28  C   UNL     1      45.002  12.303  16.848  0.00  0.00    +0.020 C 
ATOM     29  C   UNL     1      44.822  12.959  19.232  0.00  0.00    +0.017 C 
ATOM     30  C   UNL     1      46.331  14.229  17.740  0.00  0.00    +0.034 C 
ATOM     31  C   UNL     1      47.562  14.283  16.891  0.00  0.00    +0.027 C 
ATOM     32  C   UNL     1      50.435  15.990  18.956  0.00  0.00    -0.025 C 
ATOM     33  C   UNL     1      51.713  15.316  19.497  0.00  0.00    +0.018 C 
ATOM     34  C   UNL     1      49.729  16.623  20.154  0.00  0.00    +0.022 C 
ATOM     35  C   UNL     1      50.594  17.757  20.733  0.00  0.00    +0.013 C 
ATOM     36  C   UNL     1      50.761  18.826  19.661  0.00  0.00    +0.003 C 
ENDROOT
BRANCH   5   6
ATOM      6  O   UNL     1      52.238  22.278  19.621  0.00  0.00    -0.565 OA
ATOM      7  H   UNL     1      53.166  22.076  19.803  0.00  0.00    +0.374 HD
ENDBRANCH   5   6
BRANCH  18  19
ATOM     19  O   UNL     1      50.428  12.043  16.007  0.00  0.00    -0.540 OA
ATOM     20  H   UNL     1      51.242  11.857  16.494  0.00  0.00    +0.364 HD
ENDBRANCH  18  19
BRANCH  21  22
ATOM     22  C   UNL     1      47.795  12.564  15.153  0.00  0.00    +0.153 C 
BRANCH  22  23
ATOM     23  O   UNL     1      47.284  13.701  14.452  0.00  0.00    -0.541 OA
ATOM     24  H   UNL     1      46.930  13.496  13.575  0.00  0.00    +0.366 HD
ENDBRANCH  22  23
ENDBRANCH  21  22
TORSDOF 4
ENDMDL
MODEL 6
REMARK VINA RESULT:      -6.2      1.567      2.734
REMARK  Name = ZINC95486075
REMARK  11 active torsions:
REMARK  status: ('A' for Active; 'I' for Inactive)
REMARK    1  A    between atoms: C1_1  and  C2_2
REMARK    2  A    between atoms: C5_5  and  O3_38
REMARK    3  A    between atoms: C6_7  and  C29_36
REMARK    4  A    between atoms: C6_7  and  C30_37
REMARK    5  A    between atoms: C10_12  and  C28_35
REMARK    6  A    between atoms: C15_18  and  C27_34
REMARK    7  A    between atoms: C17_20  and  O2_33
REMARK    8  A    between atoms: C18_22  and  C26_31
REMARK    9  A    between atoms: C21_26  and  C24_29
REMARK   10  A    between atoms: C21_26  and  C25_30
REMARK   11  A    between atoms: C26_31  and  O1_32
REMARK                            x       y       z     vdW  Elec       q    Type
REMARK                         _______ _______ _______ _____ _____    ______ ____
ROOT
ATOM      1  C   UNL     1      47.615  11.687  17.944  0.00  0.00    +0.026 C 
ATOM      2  C   UNL     1      47.742  12.934  17.076  0.00  0.00    -0.037 C 
ATOM      3  C   UNL     1      46.985  12.651  15.761  0.00  0.00    +0.019 C 
ATOM      4  C   UNL     1      47.644  11.471  15.050  0.00  0.00    -0.020 C 
ATOM      5  C   UNL     1      49.082  11.808  14.677  0.00  0.00    +0.165 C 
ATOM      8  C   UNL     1      49.910  12.273  15.873  0.00  0.00    -0.039 C 
ATOM      9  C   UNL     1      50.393  11.071  16.681  0.00  0.00    +0.034 C 
ATOM     10  C   UNL     1      51.170  12.958  15.287  0.00  0.00    +0.017 C 
ATOM     11  C   UNL     1      47.064  14.138  17.754  0.00  0.00    +0.015 C 
ATOM     12  C   UNL     1      46.909  15.196  16.649  0.00  0.00    +0.057 C 
ATOM     13  C   UNL     1      46.467  16.515  17.192  0.00  0.00    -0.057 C 
ATOM     14  C   UNL     1      46.580  16.855  18.435  0.00  0.00    -0.098 C 
ATOM     15  C   UNL     1      47.163  15.960  19.486  0.00  0.00    +0.004 C 
ATOM     16  C   UNL     1      48.205  16.728  20.299  0.00  0.00    +0.026 C 
ATOM     17  C   UNL     1      46.025  15.607  20.445  0.00  0.00    +0.001 C 
ATOM     18  C   UNL     1      44.867  16.591  20.343  0.00  0.00    +0.160 C 
ATOM     21  C   UNL     1      45.273  18.057  20.147  0.00  0.00    -0.010 C 
ATOM     25  C   UNL     1      45.885  18.596  21.412  0.00  0.00    +0.037 C 
ATOM     26  C   UNL     1      47.039  19.556  21.288  0.00  0.00    +0.011 C 
ATOM     27  C   UNL     1      47.145  20.257  19.946  0.00  0.00    -0.051 C 
ATOM     28  C   UNL     1      46.046  21.314  19.799  0.00  0.00    +0.020 C 
ATOM     29  C   UNL     1      48.503  20.993  19.897  0.00  0.00    +0.017 C 
ATOM     30  C   UNL     1      47.103  19.282  18.786  0.00  0.00    +0.034 C 
ATOM     31  C   UNL     1      46.061  18.213  18.872  0.00  0.00    +0.027 C 
ATOM     32  C   UNL     1      47.850  14.716  18.921  0.00  0.00    -0.025 C 
ATOM     33  C   UNL     1      47.925  13.731  20.105  0.00  0.00    +0.018 C 
ATOM     34  C   UNL     1      49.290  15.011  18.501  0.00  0.00    +0.022 C 
ATOM     35  C   UNL     1      49.946  13.733  17.947  0.00  0.00    +0.013 C 
ATOM     36  C   UNL     1      49.171  13.293  16.712  0.00  0.00    +0.003 C 
ENDROOT
BRANCH   5   6
ATOM      6  O   UNL     1      49.705  10.655  14.094  0.00  0.00    -0.565 OA
ATOM      7  H   UNL     1      49.248  10.312  13.314  0.00  0.00    +0.374 HD
ENDBRANCH   5   6
BRANCH  18  19
ATOM     19  O   UNL     1      44.061  16.488  21.525  0.00  0.00    -0.540 OA
ATOM     20  H   UNL     1      43.112  16.577  21.365  0.00  0.00    +0.364 HD
ENDBRANCH  18  19
BRANCH  21  22
ATOM     22  C   UNL     1      43.933  18.814  19.941  0.00  0.00    +0.153 C 
BRANCH  22  23
ATOM     23  O   UNL     1      43.471  19.315  21.197  0.00  0.00    -0.541 OA
ATOM     24  H   UNL     1      43.682  20.247  21.350  0.00  0.00    +0.366 HD
ENDBRANCH  22  23
ENDBRANCH  21  22
TORSDOF 4
ENDMDL
MODEL 7
REMARK VINA RESULT:      -6.2      2.796      7.839
REMARK  Name = ZINC95486075
REMARK  11 active torsions:
REMARK  status: ('A' for Active; 'I' for Inactive)
REMARK    1  A    between atoms: C1_1  and  C2_2
REMARK    2  A    between atoms: C5_5  and  O3_38
REMARK    3  A    between atoms: C6_7  and  C29_36
REMARK    4  A    between atoms: C6_7  and  C30_37
REMARK    5  A    between atoms: C10_12  and  C28_35
REMARK    6  A    between atoms: C15_18  and  C27_34
REMARK    7  A    between atoms: C17_20  and  O2_33
REMARK    8  A    between atoms: C18_22  and  C26_31
REMARK    9  A    between atoms: C21_26  and  C24_29
REMARK   10  A    between atoms: C21_26  and  C25_30
REMARK   11  A    between atoms: C26_31  and  O1_32
REMARK                            x       y       z     vdW  Elec       q    Type
REMARK                         _______ _______ _______ _____ _____    ______ ____
ROOT
ATOM      1  C   UNL     1      46.204  21.252  18.683  0.00  0.00    +0.026 C 
ATOM      2  C   UNL     1      46.093  19.787  19.090  0.00  0.00    -0.037 C 
ATOM      3  C   UNL     1      44.940  19.174  18.268  0.00  0.00    +0.019 C 
ATOM      4  C   UNL     1      43.640  19.895  18.617  0.00  0.00    -0.020 C 
ATOM      5  C   UNL     1      43.298  19.697  20.088  0.00  0.00    +0.165 C 
ATOM      8  C   UNL     1      44.434  20.112  21.021  0.00  0.00    -0.039 C 
ATOM      9  C   UNL     1      44.433  21.625  21.215  0.00  0.00    +0.034 C 
ATOM     10  C   UNL     1      44.115  19.479  22.399  0.00  0.00    +0.017 C 
ATOM     11  C   UNL     1      47.381  19.024  18.728  0.00  0.00    +0.015 C 
ATOM     12  C   UNL     1      47.010  17.534  18.813  0.00  0.00    +0.057 C 
ATOM     13  C   UNL     1      48.210  16.651  18.706  0.00  0.00    -0.057 C 
ATOM     14  C   UNL     1      49.421  17.054  18.915  0.00  0.00    -0.098 C 
ATOM     15  C   UNL     1      49.770  18.464  19.283  0.00  0.00    +0.004 C 
ATOM     16  C   UNL     1      50.708  18.466  20.491  0.00  0.00    +0.026 C 
ATOM     17  C   UNL     1      50.558  19.045  18.108  0.00  0.00    +0.001 C 
ATOM     18  C   UNL     1      51.137  17.956  17.216  0.00  0.00    +0.160 C 
ATOM     21  C   UNL     1      51.670  16.722  17.957  0.00  0.00    -0.010 C 
ATOM     25  C   UNL     1      52.933  17.070  18.699  0.00  0.00    +0.037 C 
ATOM     26  C   UNL     1      53.161  16.437  20.045  0.00  0.00    +0.011 C 
ATOM     27  C   UNL     1      52.371  15.165  20.296  0.00  0.00    -0.051 C 
ATOM     28  C   UNL     1      52.942  14.002  19.478  0.00  0.00    +0.020 C 
ATOM     29  C   UNL     1      52.520  14.796  21.789  0.00  0.00    +0.017 C 
ATOM     30  C   UNL     1      50.894  15.343  20.006  0.00  0.00    +0.034 C 
ATOM     31  C   UNL     1      50.561  16.067  18.740  0.00  0.00    +0.027 C 
ATOM     32  C   UNL     1      48.556  19.321  19.647  0.00  0.00    -0.025 C 
ATOM     33  C   UNL     1      49.041  20.779  19.502  0.00  0.00    +0.018 C 
ATOM     34  C   UNL     1      48.152  19.134  21.109  0.00  0.00    +0.022 C 
ATOM     35  C   UNL     1      46.935  20.019  21.434  0.00  0.00    +0.013 C 
ATOM     36  C   UNL     1      45.772  19.574  20.558  0.00  0.00    +0.003 C 
ENDROOT
BRANCH   5   6
ATOM      6  O   UNL     1      42.125  20.458  20.410  0.00  0.00    -0.565 OA
ATOM      7  H   UNL     1      41.825  21.039  19.698  0.00  0.00    +0.374 HD
ENDBRANCH   5   6
BRANCH  18  19
ATOM     19  O   UNL     1      52.198  18.514  16.427  0.00  0.00    -0.540 OA
ATOM     20  H   UNL     1      52.692  19.215  16.871  0.00  0.00    +0.364 HD
ENDBRANCH  18  19
BRANCH  21  22
ATOM     22  C   UNL     1      52.070  15.729  16.832  0.00  0.00    +0.153 C 
BRANCH  22  23
ATOM     23  O   UNL     1      50.959  14.883  16.527  0.00  0.00    -0.541 OA
ATOM     24  H   UNL     1      50.316  15.280  15.925  0.00  0.00    +0.366 HD
ENDBRANCH  22  23
ENDBRANCH  21  22
TORSDOF 4
ENDMDL
MODEL 8
REMARK VINA RESULT:      -6.2      2.534      3.465
REMARK  Name = ZINC95486075
REMARK  11 active torsions:
REMARK  status: ('A' for Active; 'I' for Inactive)
REMARK    1  A    between atoms: C1_1  and  C2_2
REMARK    2  A    between atoms: C5_5  and  O3_38
REMARK    3  A    between atoms: C6_7  and  C29_36
REMARK    4  A    between atoms: C6_7  and  C30_37
REMARK    5  A    between atoms: C10_12  and  C28_35
REMARK    6  A    between atoms: C15_18  and  C27_34
REMARK    7  A    between atoms: C17_20  and  O2_33
REMARK    8  A    between atoms: C18_22  and  C26_31
REMARK    9  A    between atoms: C21_26  and  C24_29
REMARK   10  A    between atoms: C21_26  and  C25_30
REMARK   11  A    between atoms: C26_31  and  O1_32
REMARK                            x       y       z     vdW  Elec       q    Type
REMARK                         _______ _______ _______ _____ _____    ______ ____
ROOT
ATOM      1  C   UNL     1      50.215  16.397  19.684  0.00  0.00    +0.026 C 
ATOM      2  C   UNL     1      49.531  17.148  18.547  0.00  0.00    -0.037 C 
ATOM      3  C   UNL     1      49.231  16.117  17.438  0.00  0.00    +0.019 C 
ATOM      4  C   UNL     1      50.547  15.529  16.935  0.00  0.00    -0.020 C 
ATOM      5  C   UNL     1      51.416  16.615  16.316  0.00  0.00    +0.165 C 
ATOM      8  C   UNL     1      51.655  17.792  17.260  0.00  0.00    -0.039 C 
ATOM      9  C   UNL     1      52.766  17.457  18.251  0.00  0.00    +0.034 C 
ATOM     10  C   UNL     1      52.173  18.956  16.378  0.00  0.00    +0.017 C 
ATOM     11  C   UNL     1      48.185  17.733  19.015  0.00  0.00    +0.015 C 
ATOM     12  C   UNL     1      47.431  18.104  17.728  0.00  0.00    +0.057 C 
ATOM     13  C   UNL     1      46.195  18.892  18.009  0.00  0.00    -0.057 C 
ATOM     14  C   UNL     1      45.980  19.524  19.117  0.00  0.00    -0.098 C 
ATOM     15  C   UNL     1      46.948  19.534  20.262  0.00  0.00    +0.004 C 
ATOM     16  C   UNL     1      47.167  20.970  20.740  0.00  0.00    +0.026 C 
ATOM     17  C   UNL     1      46.279  18.781  21.412  0.00  0.00    +0.001 C 
ATOM     18  C   UNL     1      44.769  18.697  21.238  0.00  0.00    +0.160 C 
ATOM     21  C   UNL     1      44.108  19.958  20.664  0.00  0.00    -0.010 C 
ATOM     25  C   UNL     1      44.133  21.063  21.686  0.00  0.00    +0.037 C 
ATOM     26  C   UNL     1      44.362  22.470  21.202  0.00  0.00    +0.011 C 
ATOM     27  C   UNL     1      44.053  22.699  19.733  0.00  0.00    -0.051 C 
ATOM     28  C   UNL     1      42.540  22.695  19.491  0.00  0.00    +0.020 C 
ATOM     29  C   UNL     1      44.578  24.100  19.346  0.00  0.00    +0.017 C 
ATOM     30  C   UNL     1      44.737  21.683  18.840  0.00  0.00    +0.034 C 
ATOM     31  C   UNL     1      44.666  20.261  19.298  0.00  0.00    +0.027 C 
ATOM     32  C   UNL     1      48.320  18.956  19.911  0.00  0.00    -0.025 C 
ATOM     33  C   UNL     1      48.962  18.603  21.268  0.00  0.00    +0.018 C 
ATOM     34  C   UNL     1      49.220  20.002  19.254  0.00  0.00    +0.022 C 
ATOM     35  C   UNL     1      50.591  19.382  18.927  0.00  0.00    +0.013 C 
ATOM     36  C   UNL     1      50.377  18.248  17.933  0.00  0.00    +0.003 C 
ENDROOT
BRANCH   5   6
ATOM      6  O   UNL     1      52.680  16.055  15.935  0.00  0.00    -0.565 OA
ATOM      7  H   UNL     1      52.642  15.495  15.148  0.00  0.00    +0.374 HD
ENDBRANCH   5   6
BRANCH  18  19
ATOM     19  O   UNL     1      44.168  18.396  22.505  0.00  0.00    -0.540 OA
ATOM     20  H   UNL     1      43.208  18.503  22.521  0.00  0.00    +0.364 HD
ENDBRANCH  18  19
BRANCH  21  22
ATOM     22  C   UNL     1      42.619  19.566  20.464  0.00  0.00    +0.153 C 
BRANCH  22  23
ATOM     23  O   UNL     1      41.925  19.682  21.709  0.00  0.00    -0.541 OA
ATOM     24  H   UNL     1      41.368  20.470  21.776  0.00  0.00    +0.366 HD
ENDBRANCH  22  23
ENDBRANCH  21  22
TORSDOF 4
ENDMDL
MODEL 9
REMARK VINA RESULT:      -6.0      2.167      8.032
REMARK  Name = ZINC95486075
REMARK  11 active torsions:
REMARK  status: ('A' for Active; 'I' for Inactive)
REMARK    1  A    between atoms: C1_1  and  C2_2
REMARK    2  A    between atoms: C5_5  and  O3_38
REMARK    3  A    between atoms: C6_7  and  C29_36
REMARK    4  A    between atoms: C6_7  and  C30_37
REMARK    5  A    between atoms: C10_12  and  C28_35
REMARK    6  A    between atoms: C15_18  and  C27_34
REMARK    7  A    between atoms: C17_20  and  O2_33
REMARK    8  A    between atoms: C18_22  and  C26_31
REMARK    9  A    between atoms: C21_26  and  C24_29
REMARK   10  A    between atoms: C21_26  and  C25_30
REMARK   11  A    between atoms: C26_31  and  O1_32
REMARK                            x       y       z     vdW  Elec       q    Type
REMARK                         _______ _______ _______ _____ _____    ______ ____
ROOT
ATOM      1  C   UNL     1      47.318  20.672  20.804  0.00  0.00    +0.026 C 
ATOM      2  C   UNL     1      46.719  19.813  19.696  0.00  0.00    -0.037 C 
ATOM      3  C   UNL     1      46.255  20.772  18.579  0.00  0.00    +0.019 C 
ATOM      4  C   UNL     1      45.179  21.702  19.135  0.00  0.00    -0.020 C 
ATOM      5  C   UNL     1      43.960  20.903  19.577  0.00  0.00    +0.165 C 
ATOM      8  C   UNL     1      44.306  19.794  20.569  0.00  0.00    -0.039 C 
ATOM      9  C   UNL     1      44.450  20.369  21.975  0.00  0.00    +0.034 C 
ATOM     10  C   UNL     1      43.086  18.839  20.593  0.00  0.00    +0.017 C 
ATOM     11  C   UNL     1      47.787  18.880  19.095  0.00  0.00    +0.015 C 
ATOM     12  C   UNL     1      47.191  18.375  17.771  0.00  0.00    +0.057 C 
ATOM     13  C   UNL     1      48.009  17.282  17.167  0.00  0.00    -0.057 C 
ATOM     14  C   UNL     1      48.866  16.575  17.830  0.00  0.00    -0.098 C 
ATOM     15  C   UNL     1      49.147  16.773  19.289  0.00  0.00    +0.004 C 
ATOM     16  C   UNL     1      49.098  15.426  20.012  0.00  0.00    +0.026 C 
ATOM     17  C   UNL     1      50.586  17.281  19.396  0.00  0.00    +0.001 C 
ATOM     18  C   UNL     1      51.393  16.976  18.141  0.00  0.00    +0.160 C 
ATOM     21  C   UNL     1      51.112  15.610  17.502  0.00  0.00    -0.010 C 
ATOM     25  C   UNL     1      51.663  14.510  18.371  0.00  0.00    +0.037 C 
ATOM     26  C   UNL     1      50.877  13.231  18.479  0.00  0.00    +0.011 C 
ATOM     27  C   UNL     1      49.896  12.986  17.346  0.00  0.00    -0.051 C 
ATOM     28  C   UNL     1      50.639  12.605  16.060  0.00  0.00    +0.020 C 
ATOM     29  C   UNL     1      49.005  11.786  17.736  0.00  0.00    +0.017 C 
ATOM     30  C   UNL     1      48.992  14.178  17.104  0.00  0.00    +0.034 C 
ATOM     31  C   UNL     1      49.665  15.514  17.094  0.00  0.00    +0.027 C 
ATOM     32  C   UNL     1      48.152  17.702  19.985  0.00  0.00    -0.025 C 
ATOM     33  C   UNL     1      48.867  18.157  21.274  0.00  0.00    +0.018 C 
ATOM     34  C   UNL     1      46.893  16.952  20.421  0.00  0.00    +0.022 C 
ATOM     35  C   UNL     1      45.924  17.920  21.124  0.00  0.00    +0.013 C 
ATOM     36  C   UNL     1      45.515  18.996  20.127  0.00  0.00    +0.003 C 
ENDROOT
BRANCH   5   6
ATOM      6  O   UNL     1      43.004  21.788  20.177  0.00  0.00    -0.565 OA
ATOM      7  H   UNL     1      42.496  21.388  20.897  0.00  0.00    +0.374 HD
ENDBRANCH   5   6
BRANCH  18  19
ATOM     19  O   UNL     1      52.791  17.061  18.454  0.00  0.00    -0.540 OA
ATOM     20  H   UNL     1      53.317  17.522  17.786  0.00  0.00    +0.364 HD
ENDBRANCH  18  19
BRANCH  21  22
ATOM     22  C   UNL     1      51.948  15.607  16.194  0.00  0.00    +0.153 C 
BRANCH  22  23
ATOM     23  O   UNL     1      52.234  16.954  15.809  0.00  0.00    -0.541 OA
ATOM     24  H   UNL     1      53.081  17.061  15.355  0.00  0.00    +0.366 HD
ENDBRANCH  22  23
ENDBRANCH  21  22
TORSDOF 4
ENDMDL
