MODEL 1
REMARK VINA RESULT:      -5.9      0.000      0.000
REMARK  Name = ZINC95486363
REMARK  6 active torsions:
REMARK  status: ('A' for Active; 'I' for Inactive)
REMARK    1  A    between atoms: C1_1  and  C2_2
REMARK    2  A    between atoms: C2_2  and  O2_4
REMARK    3  A    between atoms: O2_4  and  C3_5
REMARK    4  A    between atoms: C9_15  and  C21_32
REMARK    5  A    between atoms: C18_29  and  C19_30
REMARK    6  A    between atoms: C18_29  and  C20_31
REMARK                            x       y       z     vdW  Elec       q    Type
REMARK                         _______ _______ _______ _____ _____    ______ ____
ROOT
ATOM      4  C   UNL     1      44.154  19.727  19.973  0.00  0.00    +0.210 C 
ATOM      5  C   UNL     1      44.382  18.230  20.205  0.00  0.00    +0.045 C 
ATOM      6  C   UNL     1      45.260  17.559  19.161  0.00  0.00    +0.134 C 
ATOM      7  C   UNL     1      46.550  16.858  19.591  0.00  0.00    +0.137 C 
ATOM      8  C   UNL     1      47.792  17.012  18.721  0.00  0.00    +0.052 C 
ATOM      9  C   UNL     1      49.092  16.915  19.501  0.00  0.00    +0.066 C 
ATOM     10  C   UNL     1      49.551  18.186  20.208  0.00  0.00    +0.034 C 
ATOM     11  C   UNL     1      49.794  17.998  21.720  0.00  0.00    +0.080 C 
ATOM     12  C   UNL     1      49.302  19.561  19.619  0.00  0.00    +0.144 C 
ATOM     13  C   UNL     1      49.032  20.776  20.500  0.00  0.00    +0.058 C 
ATOM     14  C   UNL     1      47.628  21.358  20.339  0.00  0.00    +0.012 C 
ATOM     15  C   UNL     1      47.240  22.299  21.479  0.00  0.00    +0.040 C 
ATOM     16  C   UNL     1      45.977  23.013  20.989  0.00  0.00    +0.394 C 
ATOM     17  C   UNL     1      44.934  22.089  20.474  0.00  0.00    -0.194 C 
ATOM     18  C   UNL     1      43.833  22.580  19.905  0.00  0.00    +0.128 C 
ATOM     19  O   UNL     1      45.839  24.220  21.018  0.00  0.00    -0.446 OA
ATOM     20  C   UNL     1      46.582  20.285  20.193  0.00  0.00    -0.039 C 
ATOM     21  C   UNL     1      46.525  19.984  18.705  0.00  0.00    +0.026 C 
ATOM     22  C   UNL     1      46.991  19.149  21.115  0.00  0.00    +0.030 C 
ATOM     23  O   UNL     1      50.597  18.960  19.591  0.00  0.00    -0.371 OA
ATOM     24  O   UNL     1      45.407  16.135  19.131  0.00  0.00    -0.359 OA
ATOM     25  C   UNL     1      45.187  20.627  20.642  0.00  0.00    +0.069 C 
ENDROOT
BRANCH   4   3
ATOM      3  O   UNL     1      42.859  20.026  20.546  0.00  0.00    -0.356 OA
BRANCH   3   2
ATOM      1  C   UNL     1      41.589  20.028  18.429  0.00  0.00    +0.156 C 
ATOM      2  C   UNL     1      41.781  19.610  19.864  0.00  0.00    +0.455 C 
ATOM     26  O   UNL     1      40.963  18.900  20.401  0.00  0.00    -0.506 OA
ENDBRANCH   3   2
ENDBRANCH   4   3
TORSDOF 2
ENDMDL
MODEL 2
REMARK VINA RESULT:      -5.7      1.790      6.653
REMARK  Name = ZINC95486363
REMARK  6 active torsions:
REMARK  status: ('A' for Active; 'I' for Inactive)
REMARK    1  A    between atoms: C1_1  and  C2_2
REMARK    2  A    between atoms: C2_2  and  O2_4
REMARK    3  A    between atoms: O2_4  and  C3_5
REMARK    4  A    between atoms: C9_15  and  C21_32
REMARK    5  A    between atoms: C18_29  and  C19_30
REMARK    6  A    between atoms: C18_29  and  C20_31
REMARK                            x       y       z     vdW  Elec       q    Type
REMARK                         _______ _______ _______ _____ _____    ______ ____
ROOT
ATOM      4  C   UNL     1      49.322  19.597  19.155  0.00  0.00    +0.210 C 
ATOM      5  C   UNL     1      49.030  20.385  20.435  0.00  0.00    +0.045 C 
ATOM      6  C   UNL     1      47.776  21.244  20.372  0.00  0.00    +0.134 C 
ATOM      7  C   UNL     1      46.649  21.017  21.381  0.00  0.00    +0.137 C 
ATOM      8  C   UNL     1      45.207  21.084  20.894  0.00  0.00    +0.052 C 
ATOM      9  C   UNL     1      44.256  20.213  21.698  0.00  0.00    +0.066 C 
ATOM     10  C   UNL     1      44.211  18.737  21.321  0.00  0.00    +0.034 C 
ATOM     11  C   UNL     1      44.490  17.787  22.505  0.00  0.00    +0.080 C 
ATOM     12  C   UNL     1      44.386  18.273  19.887  0.00  0.00    +0.144 C 
ATOM     13  C   UNL     1      45.074  16.956  19.546  0.00  0.00    +0.058 C 
ATOM     14  C   UNL     1      46.389  17.123  18.784  0.00  0.00    +0.012 C 
ATOM     15  C   UNL     1      47.248  15.859  18.797  0.00  0.00    +0.040 C 
ATOM     16  C   UNL     1      48.330  16.108  17.743  0.00  0.00    +0.394 C 
ATOM     17  C   UNL     1      49.024  17.412  17.900  0.00  0.00    -0.194 C 
ATOM     18  C   UNL     1      49.904  17.811  16.981  0.00  0.00    +0.128 C 
ATOM     19  O   UNL     1      48.599  15.315  16.861  0.00  0.00    -0.446 OA
ATOM     20  C   UNL     1      47.196  18.286  19.296  0.00  0.00    -0.039 C 
ATOM     21  C   UNL     1      46.700  19.490  18.513  0.00  0.00    +0.026 C 
ATOM     22  C   UNL     1      47.015  18.316  20.804  0.00  0.00    +0.030 C 
ATOM     23  O   UNL     1      43.105  18.279  20.520  0.00  0.00    -0.371 OA
ATOM     24  O   UNL     1      47.476  22.181  21.412  0.00  0.00    -0.359 OA
ATOM     25  C   UNL     1      48.690  18.211  19.117  0.00  0.00    +0.069 C 
ENDROOT
BRANCH   4   3
ATOM      3  O   UNL     1      50.760  19.436  19.105  0.00  0.00    -0.356 OA
BRANCH   3   2
ATOM      1  C   UNL     1      51.127  21.225  17.445  0.00  0.00    +0.156 C 
ATOM      2  C   UNL     1      51.479  20.501  18.718  0.00  0.00    +0.455 C 
ATOM     26  O   UNL     1      52.409  20.880  19.392  0.00  0.00    -0.506 OA
ENDBRANCH   3   2
ENDBRANCH   4   3
TORSDOF 2
ENDMDL
MODEL 3
REMARK VINA RESULT:      -5.5      2.257      6.199
REMARK  Name = ZINC95486363
REMARK  6 active torsions:
REMARK  status: ('A' for Active; 'I' for Inactive)
REMARK    1  A    between atoms: C1_1  and  C2_2
REMARK    2  A    between atoms: C2_2  and  O2_4
REMARK    3  A    between atoms: O2_4  and  C3_5
REMARK    4  A    between atoms: C9_15  and  C21_32
REMARK    5  A    between atoms: C18_29  and  C19_30
REMARK    6  A    between atoms: C18_29  and  C20_31
REMARK                            x       y       z     vdW  Elec       q    Type
REMARK                         _______ _______ _______ _____ _____    ______ ____
ROOT
ATOM      4  C   UNL     1      49.534  16.618  17.969  0.00  0.00    +0.210 C 
ATOM      5  C   UNL     1      48.207  15.990  17.533  0.00  0.00    +0.045 C 
ATOM      6  C   UNL     1      47.283  15.614  18.681  0.00  0.00    +0.134 C 
ATOM      7  C   UNL     1      45.882  16.223  18.757  0.00  0.00    +0.137 C 
ATOM      8  C   UNL     1      45.345  16.652  20.117  0.00  0.00    +0.052 C 
ATOM      9  C   UNL     1      44.356  17.803  20.041  0.00  0.00    +0.066 C 
ATOM     10  C   UNL     1      44.956  19.202  19.947  0.00  0.00    +0.034 C 
ATOM     11  C   UNL     1      44.457  20.008  18.729  0.00  0.00    +0.080 C 
ATOM     12  C   UNL     1      46.250  19.565  20.649  0.00  0.00    +0.144 C 
ATOM     13  C   UNL     1      47.237  20.562  20.052  0.00  0.00    +0.058 C 
ATOM     14  C   UNL     1      48.581  19.947  19.665  0.00  0.00    +0.012 C 
ATOM     15  C   UNL     1      49.395  20.838  18.728  0.00  0.00    +0.040 C 
ATOM     16  C   UNL     1      50.798  20.223  18.718  0.00  0.00    +0.394 C 
ATOM     17  C   UNL     1      50.803  18.761  18.453  0.00  0.00    -0.194 C 
ATOM     18  C   UNL     1      51.944  18.076  18.535  0.00  0.00    +0.128 C 
ATOM     19  O   UNL     1      51.811  20.868  18.906  0.00  0.00    -0.446 OA
ATOM     20  C   UNL     1      48.424  18.581  19.051  0.00  0.00    -0.039 C 
ATOM     21  C   UNL     1      48.427  17.614  20.223  0.00  0.00    +0.026 C 
ATOM     22  C   UNL     1      47.170  18.629  18.194  0.00  0.00    +0.030 C 
ATOM     23  O   UNL     1      44.984  20.005  21.142  0.00  0.00    -0.371 OA
ATOM     24  O   UNL     1      46.098  14.846  18.446  0.00  0.00    -0.359 OA
ATOM     25  C   UNL     1      49.496  18.137  18.091  0.00  0.00    +0.069 C 
ENDROOT
BRANCH   4   3
ATOM      3  O   UNL     1      50.495  16.274  16.942  0.00  0.00    -0.356 OA
BRANCH   3   2
ATOM      1  C   UNL     1      51.456  14.441  18.287  0.00  0.00    +0.156 C 
ATOM      2  C   UNL     1      51.006  15.034  16.977  0.00  0.00    +0.455 C 
ATOM     26  O   UNL     1      51.105  14.392  15.957  0.00  0.00    -0.506 OA
ENDBRANCH   3   2
ENDBRANCH   4   3
TORSDOF 2
ENDMDL
MODEL 4
REMARK VINA RESULT:      -5.5      1.730      4.251
REMARK  Name = ZINC95486363
REMARK  6 active torsions:
REMARK  status: ('A' for Active; 'I' for Inactive)
REMARK    1  A    between atoms: C1_1  and  C2_2
REMARK    2  A    between atoms: C2_2  and  O2_4
REMARK    3  A    between atoms: O2_4  and  C3_5
REMARK    4  A    between atoms: C9_15  and  C21_32
REMARK    5  A    between atoms: C18_29  and  C19_30
REMARK    6  A    between atoms: C18_29  and  C20_31
REMARK                            x       y       z     vdW  Elec       q    Type
REMARK                         _______ _______ _______ _____ _____    ______ ____
ROOT
ATOM      4  C   UNL     1      43.887  18.723  20.382  0.00  0.00    +0.210 C 
ATOM      5  C   UNL     1      44.282  19.660  19.237  0.00  0.00    +0.045 C 
ATOM      6  C   UNL     1      45.346  20.683  19.600  0.00  0.00    +0.134 C 
ATOM      7  C   UNL     1      46.663  20.718  18.823  0.00  0.00    +0.137 C 
ATOM      8  C   UNL     1      47.959  20.950  19.590  0.00  0.00    +0.052 C 
ATOM      9  C   UNL     1      49.172  20.306  18.939  0.00  0.00    +0.066 C 
ATOM     10  C   UNL     1      49.383  18.823  19.226  0.00  0.00    +0.034 C 
ATOM     11  C   UNL     1      49.488  17.956  17.953  0.00  0.00    +0.080 C 
ATOM     12  C   UNL     1      49.021  18.209  20.564  0.00  0.00    +0.144 C 
ATOM     13  C   UNL     1      48.503  16.780  20.680  0.00  0.00    +0.058 C 
ATOM     14  C   UNL     1      47.060  16.682  21.175  0.00  0.00    +0.012 C 
ATOM     15  C   UNL     1      46.434  15.312  20.914  0.00  0.00    +0.040 C 
ATOM     16  C   UNL     1      45.149  15.302  21.746  0.00  0.00    +0.394 C 
ATOM     17  C   UNL     1      44.295  16.499  21.534  0.00  0.00    -0.194 C 
ATOM     18  C   UNL     1      43.206  16.679  22.283  0.00  0.00    +0.128 C 
ATOM     19  O   UNL     1      44.851  14.400  22.505  0.00  0.00    -0.446 OA
ATOM     20  C   UNL     1      46.185  17.756  20.586  0.00  0.00    -0.039 C 
ATOM     21  C   UNL     1      46.326  18.943  21.524  0.00  0.00    +0.026 C 
ATOM     22  C   UNL     1      46.638  17.951  19.149  0.00  0.00    +0.030 C 
ATOM     23  O   UNL     1      50.379  18.461  20.201  0.00  0.00    -0.371 OA
ATOM     24  O   UNL     1      45.680  21.746  18.701  0.00  0.00    -0.359 OA
ATOM     25  C   UNL     1      44.717  17.447  20.460  0.00  0.00    +0.069 C 
ENDROOT
BRANCH   4   3
ATOM      3  O   UNL     1      42.511  18.349  20.135  0.00  0.00    -0.356 OA
BRANCH   3   2
ATOM      1  C   UNL     1      40.987  20.159  19.431  0.00  0.00    +0.156 C 
ATOM      2  C   UNL     1      41.567  19.241  20.475  0.00  0.00    +0.455 C 
ATOM     26  O   UNL     1      41.183  19.308  21.620  0.00  0.00    -0.506 OA
ENDBRANCH   3   2
ENDBRANCH   4   3
TORSDOF 2
ENDMDL
MODEL 5
REMARK VINA RESULT:      -5.5      1.881      6.647
REMARK  Name = ZINC95486363
REMARK  6 active torsions:
REMARK  status: ('A' for Active; 'I' for Inactive)
REMARK    1  A    between atoms: C1_1  and  C2_2
REMARK    2  A    between atoms: C2_2  and  O2_4
REMARK    3  A    between atoms: O2_4  and  C3_5
REMARK    4  A    between atoms: C9_15  and  C21_32
REMARK    5  A    between atoms: C18_29  and  C19_30
REMARK    6  A    between atoms: C18_29  and  C20_31
REMARK                            x       y       z     vdW  Elec       q    Type
REMARK                         _______ _______ _______ _____ _____    ______ ____
ROOT
ATOM      4  C   UNL     1      49.547  18.962  19.646  0.00  0.00    +0.210 C 
ATOM      5  C   UNL     1      49.534  19.535  21.066  0.00  0.00    +0.045 C 
ATOM      6  C   UNL     1      49.135  21.000  21.149  0.00  0.00    +0.134 C 
ATOM      7  C   UNL     1      47.923  21.410  21.988  0.00  0.00    +0.137 C 
ATOM      8  C   UNL     1      46.985  22.479  21.443  0.00  0.00    +0.052 C 
ATOM      9  C   UNL     1      45.552  22.331  21.927  0.00  0.00    +0.066 C 
ATOM     10  C   UNL     1      44.687  21.327  21.173  0.00  0.00    +0.034 C 
ATOM     11  C   UNL     1      44.048  20.256  22.082  0.00  0.00    +0.080 C 
ATOM     12  C   UNL     1      44.846  21.096  19.683  0.00  0.00    +0.144 C 
ATOM     13  C   UNL     1      44.624  19.725  19.053  0.00  0.00    +0.058 C 
ATOM     14  C   UNL     1      45.885  19.109  18.449  0.00  0.00    +0.012 C 
ATOM     15  C   UNL     1      45.747  17.610  18.185  0.00  0.00    +0.040 C 
ATOM     16  C   UNL     1      46.948  17.252  17.305  0.00  0.00    +0.394 C 
ATOM     17  C   UNL     1      48.244  17.739  17.844  0.00  0.00    -0.194 C 
ATOM     18  C   UNL     1      49.357  17.603  17.122  0.00  0.00    +0.128 C 
ATOM     19  O   UNL     1      46.853  16.629  16.266  0.00  0.00    -0.446 OA
ATOM     20  C   UNL     1      47.102  19.361  19.299  0.00  0.00    -0.039 C 
ATOM     21  C   UNL     1      47.646  20.699  18.830  0.00  0.00    +0.026 C 
ATOM     22  C   UNL     1      46.652  19.264  20.747  0.00  0.00    +0.030 C 
ATOM     23  O   UNL     1      43.746  21.838  20.210  0.00  0.00    -0.371 OA
ATOM     24  O   UNL     1      49.261  21.725  22.377  0.00  0.00    -0.359 OA
ATOM     25  C   UNL     1      48.220  18.356  19.203  0.00  0.00    +0.069 C 
ENDROOT
BRANCH   4   3
ATOM      3  O   UNL     1      50.542  17.911  19.648  0.00  0.00    -0.356 OA
BRANCH   3   2
ATOM      1  C   UNL     1      52.337  19.242  18.601  0.00  0.00    +0.156 C 
ATOM      2  C   UNL     1      51.829  18.290  19.652  0.00  0.00    +0.455 C 
ATOM     26  O   UNL     1      52.581  17.868  20.500  0.00  0.00    -0.506 OA
ENDBRANCH   3   2
ENDBRANCH   4   3
TORSDOF 2
ENDMDL
MODEL 6
REMARK VINA RESULT:      -5.3      2.758      5.223
REMARK  Name = ZINC95486363
REMARK  6 active torsions:
REMARK  status: ('A' for Active; 'I' for Inactive)
REMARK    1  A    between atoms: C1_1  and  C2_2
REMARK    2  A    between atoms: C2_2  and  O2_4
REMARK    3  A    between atoms: O2_4  and  C3_5
REMARK    4  A    between atoms: C9_15  and  C21_32
REMARK    5  A    between atoms: C18_29  and  C19_30
REMARK    6  A    between atoms: C18_29  and  C20_31
REMARK                            x       y       z     vdW  Elec       q    Type
REMARK                         _______ _______ _______ _____ _____    ______ ____
ROOT
ATOM      4  C   UNL     1      48.185  18.895  19.095  0.00  0.00    +0.210 C 
ATOM      5  C   UNL     1      47.322  17.708  19.533  0.00  0.00    +0.045 C 
ATOM      6  C   UNL     1      46.904  16.783  18.401  0.00  0.00    +0.134 C 
ATOM      7  C   UNL     1      47.290  15.304  18.447  0.00  0.00    +0.137 C 
ATOM      8  C   UNL     1      47.743  14.626  17.160  0.00  0.00    +0.052 C 
ATOM      9  C   UNL     1      48.714  13.480  17.389  0.00  0.00    +0.066 C 
ATOM     10  C   UNL     1      50.177  13.865  17.584  0.00  0.00    +0.034 C 
ATOM     11  C   UNL     1      50.789  13.325  18.894  0.00  0.00    +0.080 C 
ATOM     12  C   UNL     1      50.796  15.044  16.858  0.00  0.00    +0.144 C 
ATOM     13  C   UNL     1      51.882  15.903  17.497  0.00  0.00    +0.058 C 
ATOM     14  C   UNL     1      51.454  17.346  17.762  0.00  0.00    +0.012 C 
ATOM     15  C   UNL     1      52.380  18.071  18.739  0.00  0.00    +0.040 C 
ATOM     16  C   UNL     1      51.994  19.548  18.625  0.00  0.00    +0.394 C 
ATOM     17  C   UNL     1      50.534  19.791  18.753  0.00  0.00    -0.194 C 
ATOM     18  C   UNL     1      50.045  21.016  18.554  0.00  0.00    +0.128 C 
ATOM     19  O   UNL     1      52.803  20.438  18.450  0.00  0.00    -0.446 OA
ATOM     20  C   UNL     1      50.034  17.435  18.254  0.00  0.00    -0.039 C 
ATOM     21  C   UNL     1      49.182  17.514  16.999  0.00  0.00    +0.026 C 
ATOM     22  C   UNL     1      49.812  16.243  19.170  0.00  0.00    +0.030 C 
ATOM     23  O   UNL     1      51.072  13.698  16.468  0.00  0.00    -0.371 OA
ATOM     24  O   UNL     1      45.943  15.745  18.619  0.00  0.00    -0.359 OA
ATOM     25  C   UNL     1      49.684  18.619  19.116  0.00  0.00    +0.069 C 
ENDROOT
BRANCH   4   3
ATOM      3  O   UNL     1      47.911  19.958  20.040  0.00  0.00    -0.356 OA
BRANCH   3   2
ATOM      1  C   UNL     1      46.173  21.048  18.668  0.00  0.00    +0.156 C 
ATOM      2  C   UNL     1      46.697  20.527  19.980  0.00  0.00    +0.455 C 
ATOM     26  O   UNL     1      46.024  20.620  20.980  0.00  0.00    -0.506 OA
ENDBRANCH   3   2
ENDBRANCH   4   3
TORSDOF 2
ENDMDL
MODEL 7
REMARK VINA RESULT:      -5.3      2.062      4.815
REMARK  Name = ZINC95486363
REMARK  6 active torsions:
REMARK  status: ('A' for Active; 'I' for Inactive)
REMARK    1  A    between atoms: C1_1  and  C2_2
REMARK    2  A    between atoms: C2_2  and  O2_4
REMARK    3  A    between atoms: O2_4  and  C3_5
REMARK    4  A    between atoms: C9_15  and  C21_32
REMARK    5  A    between atoms: C18_29  and  C19_30
REMARK    6  A    between atoms: C18_29  and  C20_31
REMARK                            x       y       z     vdW  Elec       q    Type
REMARK                         _______ _______ _______ _____ _____    ______ ____
ROOT
ATOM      4  C   UNL     1      45.883  18.304  20.269  0.00  0.00    +0.210 C 
ATOM      5  C   UNL     1      46.102  19.762  20.683  0.00  0.00    +0.045 C 
ATOM      6  C   UNL     1      47.281  19.980  21.619  0.00  0.00    +0.134 C 
ATOM      7  C   UNL     1      48.416  20.917  21.203  0.00  0.00    +0.137 C 
ATOM      8  C   UNL     1      49.851  20.511  21.515  0.00  0.00    +0.052 C 
ATOM      9  C   UNL     1      50.865  21.066  20.529  0.00  0.00    +0.066 C 
ATOM     10  C   UNL     1      51.033  20.290  19.227  0.00  0.00    +0.034 C 
ATOM     11  C   UNL     1      50.826  21.152  17.963  0.00  0.00    +0.080 C 
ATOM     12  C   UNL     1      50.906  18.780  19.175  0.00  0.00    +0.144 C 
ATOM     13  C   UNL     1      50.330  18.062  17.959  0.00  0.00    +0.058 C 
ATOM     14  C   UNL     1      49.012  17.340  18.233  0.00  0.00    +0.012 C 
ATOM     15  C   UNL     1      48.259  16.971  16.955  0.00  0.00    +0.040 C 
ATOM     16  C   UNL     1      47.167  15.998  17.407  0.00  0.00    +0.394 C 
ATOM     17  C   UNL     1      46.368  16.495  18.557  0.00  0.00    -0.194 C 
ATOM     18  C   UNL     1      45.464  15.700  19.131  0.00  0.00    +0.128 C 
ATOM     19  O   UNL     1      46.970  14.922  16.877  0.00  0.00    -0.446 OA
ATOM     20  C   UNL     1      48.108  18.133  19.139  0.00  0.00    -0.039 C 
ATOM     21  C   UNL     1      48.509  17.736  20.549  0.00  0.00    +0.026 C 
ATOM     22  C   UNL     1      48.277  19.594  18.755  0.00  0.00    +0.030 C 
ATOM     23  O   UNL     1      52.178  19.426  19.101  0.00  0.00    -0.371 OA
ATOM     24  O   UNL     1      47.496  21.249  22.244  0.00  0.00    -0.359 OA
ATOM     25  C   UNL     1      46.627  17.896  19.003  0.00  0.00    +0.069 C 
ENDROOT
BRANCH   4   3
ATOM      3  O   UNL     1      44.464  18.169  20.019  0.00  0.00    -0.356 OA
BRANCH   3   2
ATOM      1  C   UNL     1      43.825  17.133  22.166  0.00  0.00    +0.156 C 
ATOM      2  C   UNL     1      43.654  18.172  21.088  0.00  0.00    +0.455 C 
ATOM     26  O   UNL     1      42.787  19.009  21.188  0.00  0.00    -0.506 OA
ENDBRANCH   3   2
ENDBRANCH   4   3
TORSDOF 2
ENDMDL
MODEL 8
REMARK VINA RESULT:      -5.2      1.875      6.700
REMARK  Name = ZINC95486363
REMARK  6 active torsions:
REMARK  status: ('A' for Active; 'I' for Inactive)
REMARK    1  A    between atoms: C1_1  and  C2_2
REMARK    2  A    between atoms: C2_2  and  O2_4
REMARK    3  A    between atoms: O2_4  and  C3_5
REMARK    4  A    between atoms: C9_15  and  C21_32
REMARK    5  A    between atoms: C18_29  and  C19_30
REMARK    6  A    between atoms: C18_29  and  C20_31
REMARK                            x       y       z     vdW  Elec       q    Type
REMARK                         _______ _______ _______ _____ _____    ______ ____
ROOT
ATOM      4  C   UNL     1      48.548  16.964  19.172  0.00  0.00    +0.210 C 
ATOM      5  C   UNL     1      49.063  18.345  19.586  0.00  0.00    +0.045 C 
ATOM      6  C   UNL     1      48.513  19.495  18.757  0.00  0.00    +0.134 C 
ATOM      7  C   UNL     1      47.739  20.623  19.443  0.00  0.00    +0.137 C 
ATOM      8  C   UNL     1      46.500  21.182  18.756  0.00  0.00    +0.052 C 
ATOM      9  C   UNL     1      45.465  21.728  19.725  0.00  0.00    +0.066 C 
ATOM     10  C   UNL     1      44.529  20.704  20.359  0.00  0.00    +0.034 C 
ATOM     11  C   UNL     1      44.530  20.739  21.902  0.00  0.00    +0.080 C 
ATOM     12  C   UNL     1      44.059  19.477  19.603  0.00  0.00    +0.144 C 
ATOM     13  C   UNL     1      43.806  18.147  20.306  0.00  0.00    +0.058 C 
ATOM     14  C   UNL     1      44.759  17.031  19.881  0.00  0.00    +0.012 C 
ATOM     15  C   UNL     1      44.760  15.849  20.850  0.00  0.00    +0.040 C 
ATOM     16  C   UNL     1      45.499  14.731  20.108  0.00  0.00    +0.394 C 
ATOM     17  C   UNL     1      46.804  15.157  19.541  0.00  0.00    -0.194 C 
ATOM     18  C   UNL     1      47.498  14.321  18.768  0.00  0.00    +0.128 C 
ATOM     19  O   UNL     1      45.062  13.603  19.994  0.00  0.00    -0.446 OA
ATOM     20  C   UNL     1      46.167  17.528  19.691  0.00  0.00    -0.039 C 
ATOM     21  C   UNL     1      46.231  18.003  18.250  0.00  0.00    +0.026 C 
ATOM     22  C   UNL     1      46.414  18.565  20.775  0.00  0.00    +0.030 C 
ATOM     23  O   UNL     1      43.195  20.591  19.829  0.00  0.00    -0.371 OA
ATOM     24  O   UNL     1      49.043  20.818  18.894  0.00  0.00    -0.359 OA
ATOM     25  C   UNL     1      47.276  16.530  19.892  0.00  0.00    +0.069 C 
ENDROOT
BRANCH   4   3
ATOM      3  O   UNL     1      49.598  16.028  19.513  0.00  0.00    -0.356 OA
BRANCH   3   2
ATOM      1  C   UNL     1      50.577  15.916  17.250  0.00  0.00    +0.156 C 
ATOM      2  C   UNL     1      50.699  16.042  18.747  0.00  0.00    +0.455 C 
ATOM     26  O   UNL     1      51.790  16.157  19.256  0.00  0.00    -0.506 OA
ENDBRANCH   3   2
ENDBRANCH   4   3
TORSDOF 2
ENDMDL
MODEL 9
REMARK VINA RESULT:      -5.2      1.941      4.373
REMARK  Name = ZINC95486363
REMARK  6 active torsions:
REMARK  status: ('A' for Active; 'I' for Inactive)
REMARK    1  A    between atoms: C1_1  and  C2_2
REMARK    2  A    between atoms: C2_2  and  O2_4
REMARK    3  A    between atoms: O2_4  and  C3_5
REMARK    4  A    between atoms: C9_15  and  C21_32
REMARK    5  A    between atoms: C18_29  and  C19_30
REMARK    6  A    between atoms: C18_29  and  C20_31
REMARK                            x       y       z     vdW  Elec       q    Type
REMARK                         _______ _______ _______ _____ _____    ______ ____
ROOT
ATOM      4  C   UNL     1      45.919  20.494  20.219  0.00  0.00    +0.210 C 
ATOM      5  C   UNL     1      46.947  20.776  19.119  0.00  0.00    +0.045 C 
ATOM      6  C   UNL     1      48.390  20.532  19.531  0.00  0.00    +0.134 C 
ATOM      7  C   UNL     1      49.240  19.525  18.755  0.00  0.00    +0.137 C 
ATOM      8  C   UNL     1      50.177  18.607  19.532  0.00  0.00    +0.052 C 
ATOM      9  C   UNL     1      50.419  17.271  18.849  0.00  0.00    +0.066 C 
ATOM     10  C   UNL     1      49.353  16.202  19.065  0.00  0.00    +0.034 C 
ATOM     11  C   UNL     1      48.773  15.634  17.752  0.00  0.00    +0.080 C 
ATOM     12  C   UNL     1      48.595  16.082  20.372  0.00  0.00    +0.144 C 
ATOM     13  C   UNL     1      47.139  15.632  20.420  0.00  0.00    +0.058 C 
ATOM     14  C   UNL     1      46.172  16.710  20.910  0.00  0.00    +0.012 C 
ATOM     15  C   UNL     1      44.714  16.394  20.584  0.00  0.00    +0.040 C 
ATOM     16  C   UNL     1      43.899  17.388  21.415  0.00  0.00    +0.394 C 
ATOM     17  C   UNL     1      44.348  18.797  21.262  0.00  0.00    -0.194 C 
ATOM     18  C   UNL     1      43.807  19.752  22.019  0.00  0.00    +0.128 C 
ATOM     19  O   UNL     1      42.972  17.061  22.130  0.00  0.00    -0.446 OA
ATOM     20  C   UNL     1      46.524  18.073  20.374  0.00  0.00    -0.039 C 
ATOM     21  C   UNL     1      47.519  18.646  21.368  0.00  0.00    +0.026 C 
ATOM     22  C   UNL     1      47.006  17.871  18.948  0.00  0.00    +0.030 C 
ATOM     23  O   UNL     1      49.627  15.160  20.020  0.00  0.00    -0.371 OA
ATOM     24  O   UNL     1      49.472  20.932  18.684  0.00  0.00    -0.359 OA
ATOM     25  C   UNL     1      45.398  19.062  20.234  0.00  0.00    +0.069 C 
ENDROOT
BRANCH   4   3
ATOM      3  O   UNL     1      44.801  21.376  19.955  0.00  0.00    -0.356 OA
BRANCH   3   2
ATOM      1  C   UNL     1      45.714  23.172  21.381  0.00  0.00    +0.156 C 
ATOM      2  C   UNL     1      45.003  22.689  20.143  0.00  0.00    +0.455 C 
ATOM     26  O   UNL     1      44.616  23.484  19.319  0.00  0.00    -0.506 OA
ENDBRANCH   3   2
ENDBRANCH   4   3
TORSDOF 2
ENDMDL
