MODEL 1
REMARK VINA RESULT:      -6.9      0.000      0.000
REMARK  Name = ZINC38143792
REMARK  11 active torsions:
REMARK  status: ('A' for Active; 'I' for Inactive)
REMARK    1  A    between atoms: C1_1  and  C2_2
REMARK    2  A    between atoms: C5_6  and  C30_39
REMARK    3  A    between atoms: C8_9  and  C29_38
REMARK    4  A    between atoms: C13_15  and  C25_32
REMARK    5  A    between atoms: C17_20  and  C24_31
REMARK    6  A    between atoms: C19_22  and  O2_30
REMARK    7  A    between atoms: C20_24  and  O1_29
REMARK    8  A    between atoms: C21_26  and  C22_27
REMARK    9  A    between atoms: C21_26  and  C23_28
REMARK   10  A    between atoms: C27_35  and  C28_36
REMARK   11  A    between atoms: C27_35  and  O3_37
REMARK                            x       y       z     vdW  Elec       q    Type
REMARK                         _______ _______ _______ _____ _____    ______ ____
ROOT
ATOM      1  C   UNL     1      40.277  21.107  18.380  0.00  0.00    +0.011 C 
ATOM      2  C   UNL     1      41.416  21.526  19.309  0.00  0.00    -0.050 C 
ATOM      3  C   UNL     1      42.127  22.754  18.732  0.00  0.00    +0.003 C 
ATOM      4  C   UNL     1      43.214  23.201  19.702  0.00  0.00    +0.020 C 
ATOM      5  C   UNL     1      44.231  22.098  19.977  0.00  0.00    -0.110 C 
ATOM      9  C   UNL     1      45.162  21.902  18.788  0.00  0.00    +0.012 C 
ATOM     10  C   UNL     1      46.289  20.928  19.130  0.00  0.00    +0.021 C 
ATOM     11  C   UNL     1      45.765  19.575  19.592  0.00  0.00    +0.025 C 
ATOM     12  C   UNL     1      45.307  18.806  18.347  0.00  0.00    +0.012 C 
ATOM     13  C   UNL     1      44.596  19.698  20.520  0.00  0.00    -0.013 C 
ATOM     14  C   UNL     1      44.427  18.902  21.548  0.00  0.00    -0.121 C 
ATOM     15  C   UNL     1      45.358  17.799  21.949  0.00  0.00    +0.052 C 
ATOM     16  C   UNL     1      46.309  17.469  20.799  0.00  0.00    +0.005 C 
ATOM     17  C   UNL     1      47.336  16.414  21.216  0.00  0.00    -0.028 C 
ATOM     18  C   UNL     1      48.047  16.803  22.505  0.00  0.00    +0.024 C 
ATOM     19  C   UNL     1      46.577  15.100  21.469  0.00  0.00    +0.042 C 
ATOM     20  C   UNL     1      47.572  13.988  21.794  0.00  0.00    +0.141 C 
ATOM     23  C   UNL     1      48.497  13.746  20.608  0.00  0.00    +0.137 C 
ATOM     26  C   UNL     1      49.230  15.015  20.176  0.00  0.00    -0.036 C 
ATOM     27  C   UNL     1      50.414  15.277  21.107  0.00  0.00    +0.030 C 
ATOM     28  C   UNL     1      49.816  14.721  18.773  0.00  0.00    +0.026 C 
ATOM     29  C   UNL     1      48.303  16.202  20.058  0.00  0.00    +0.006 C 
ATOM     30  C   UNL     1      49.038  17.509  19.762  0.00  0.00    +0.007 C 
ATOM     31  C   UNL     1      48.003  18.508  19.223  0.00  0.00    +0.009 C 
ATOM     32  C   UNL     1      46.898  18.756  20.242  0.00  0.00    -0.027 C 
ATOM     33  C   UNL     1      47.471  19.611  21.384  0.00  0.00    +0.036 C 
ATOM     34  C   UNL     1      43.555  20.784  20.351  0.00  0.00    +0.058 C 
ATOM     35  C   UNL     1      42.446  20.387  19.394  0.00  0.00    +0.155 C 
ATOM     38  C   UNL     1      41.727  19.132  19.903  0.00  0.00    -0.004 C 
ENDROOT
BRANCH   5   6
ATOM      6  C   UNL     1      45.056  22.555  21.169  0.00  0.00    +0.495 C 
ATOM      7  O   UNL     1      44.714  22.254  22.299  0.00  0.00    -0.668 OA
ATOM      8  O   UNL     1      46.062  23.222  20.994  0.00  0.00    -0.707 OA
ENDBRANCH   5   6
BRANCH  20  21
ATOM     21  O   UNL     1      46.839  12.782  22.065  0.00  0.00    -0.571 OA
ATOM     22  H   UNL     1      46.235  12.522  21.356  0.00  0.00    +0.370 HD
ENDBRANCH  20  21
BRANCH  23  24
ATOM     24  O   UNL     1      47.737  13.240  19.505  0.00  0.00    -0.553 OA
ATOM     25  H   UNL     1      47.904  13.698  18.669  0.00  0.00    +0.373 HD
ENDBRANCH  23  24
BRANCH  35  36
ATOM     36  O   UNL     1      42.924  20.145  18.073  0.00  0.00    -0.536 OA
ATOM     37  H   UNL     1      43.716  19.593  18.036  0.00  0.00    +0.356 HD
ENDBRANCH  35  36
TORSDOF 4
ENDMDL
MODEL 2
REMARK VINA RESULT:      -6.2      1.743      2.133
REMARK  Name = ZINC38143792
REMARK  11 active torsions:
REMARK  status: ('A' for Active; 'I' for Inactive)
REMARK    1  A    between atoms: C1_1  and  C2_2
REMARK    2  A    between atoms: C5_6  and  C30_39
REMARK    3  A    between atoms: C8_9  and  C29_38
REMARK    4  A    between atoms: C13_15  and  C25_32
REMARK    5  A    between atoms: C17_20  and  C24_31
REMARK    6  A    between atoms: C19_22  and  O2_30
REMARK    7  A    between atoms: C20_24  and  O1_29
REMARK    8  A    between atoms: C21_26  and  C22_27
REMARK    9  A    between atoms: C21_26  and  C23_28
REMARK   10  A    between atoms: C27_35  and  C28_36
REMARK   11  A    between atoms: C27_35  and  O3_37
REMARK                            x       y       z     vdW  Elec       q    Type
REMARK                         _______ _______ _______ _____ _____    ______ ____
ROOT
ATOM      1  C   UNL     1      40.839  19.747  18.655  0.00  0.00    +0.011 C 
ATOM      2  C   UNL     1      41.778  20.604  19.503  0.00  0.00    -0.050 C 
ATOM      3  C   UNL     1      41.956  21.977  18.849  0.00  0.00    +0.003 C 
ATOM      4  C   UNL     1      42.839  22.842  19.740  0.00  0.00    +0.020 C 
ATOM      5  C   UNL     1      44.204  22.209  19.990  0.00  0.00    -0.110 C 
ATOM      9  C   UNL     1      45.090  22.312  18.755  0.00  0.00    +0.012 C 
ATOM     10  C   UNL     1      46.512  21.842  19.062  0.00  0.00    +0.021 C 
ATOM     11  C   UNL     1      46.549  20.416  19.594  0.00  0.00    +0.025 C 
ATOM     12  C   UNL     1      46.357  19.472  18.402  0.00  0.00    +0.012 C 
ATOM     13  C   UNL     1      45.458  20.145  20.585  0.00  0.00    -0.013 C 
ATOM     14  C   UNL     1      45.640  19.395  21.644  0.00  0.00    -0.121 C 
ATOM     15  C   UNL     1      46.931  18.737  22.025  0.00  0.00    +0.052 C 
ATOM     16  C   UNL     1      47.887  18.724  20.832  0.00  0.00    +0.005 C 
ATOM     17  C   UNL     1      49.250  18.146  21.222  0.00  0.00    -0.028 C 
ATOM     18  C   UNL     1      49.819  18.835  22.455  0.00  0.00    +0.024 C 
ATOM     19  C   UNL     1      49.045  16.659  21.559  0.00  0.00    +0.042 C 
ATOM     20  C   UNL     1      50.395  16.012  21.860  0.00  0.00    +0.141 C 
ATOM     23  C   UNL     1      51.292  16.070  20.631  0.00  0.00    +0.137 C 
ATOM     26  C   UNL     1      51.482  17.497  20.118  0.00  0.00    -0.036 C 
ATOM     27  C   UNL     1      52.522  18.224  20.970  0.00  0.00    +0.030 C 
ATOM     28  C   UNL     1      52.076  17.370  18.693  0.00  0.00    +0.026 C 
ATOM     29  C   UNL     1      50.176  18.249  20.017  0.00  0.00    +0.006 C 
ATOM     30  C   UNL     1      50.359  19.718  19.639  0.00  0.00    +0.007 C 
ATOM     31  C   UNL     1      49.005  20.236  19.130  0.00  0.00    +0.009 C 
ATOM     32  C   UNL     1      47.931  20.109  20.203  0.00  0.00    -0.027 C 
ATOM     33  C   UNL     1      48.192  21.171  21.283  0.00  0.00    +0.036 C 
ATOM     34  C   UNL     1      44.081  20.759  20.442  0.00  0.00    +0.058 C 
ATOM     35  C   UNL     1      43.161  19.932  19.564  0.00  0.00    +0.155 C 
ATOM     38  C   UNL     1      42.982  18.528  20.152  0.00  0.00    -0.004 C 
ENDROOT
BRANCH   5   6
ATOM      6  C   UNL     1      44.850  22.997  21.118  0.00  0.00    +0.495 C 
ATOM      7  O   UNL     1      44.714  22.633  22.272  0.00  0.00    -0.668 OA
ATOM      8  O   UNL     1      45.503  23.996  20.866  0.00  0.00    -0.707 OA
ENDBRANCH   5   6
BRANCH  20  21
ATOM     21  O   UNL     1      50.175  14.635  22.210  0.00  0.00    -0.571 OA
ATOM     22  H   UNL     1      50.221  14.459  23.159  0.00  0.00    +0.370 HD
ENDBRANCH  20  21
BRANCH  23  24
ATOM     24  O   UNL     1      50.730  15.264  19.589  0.00  0.00    -0.553 OA
ATOM     25  H   UNL     1      50.663  15.715  18.736  0.00  0.00    +0.373 HD
ENDBRANCH  23  24
BRANCH  35  36
ATOM     36  O   UNL     1      43.637  19.818  18.226  0.00  0.00    -0.536 OA
ATOM     37  H   UNL     1      44.357  19.182  18.117  0.00  0.00    +0.356 HD
ENDBRANCH  35  36
TORSDOF 4
ENDMDL
MODEL 3
REMARK VINA RESULT:      -6.1      2.675      7.551
REMARK  Name = ZINC38143792
REMARK  11 active torsions:
REMARK  status: ('A' for Active; 'I' for Inactive)
REMARK    1  A    between atoms: C1_1  and  C2_2
REMARK    2  A    between atoms: C5_6  and  C30_39
REMARK    3  A    between atoms: C8_9  and  C29_38
REMARK    4  A    between atoms: C13_15  and  C25_32
REMARK    5  A    between atoms: C17_20  and  C24_31
REMARK    6  A    between atoms: C19_22  and  O2_30
REMARK    7  A    between atoms: C20_24  and  O1_29
REMARK    8  A    between atoms: C21_26  and  C22_27
REMARK    9  A    between atoms: C21_26  and  C23_28
REMARK   10  A    between atoms: C27_35  and  C28_36
REMARK   11  A    between atoms: C27_35  and  O3_37
REMARK                            x       y       z     vdW  Elec       q    Type
REMARK                         _______ _______ _______ _____ _____    ______ ____
ROOT
ATOM      1  C   UNL     1      52.572  19.491  16.559  0.00  0.00    +0.011 C 
ATOM      2  C   UNL     1      52.134  19.318  18.013  0.00  0.00    -0.050 C 
ATOM      3  C   UNL     1      52.440  17.893  18.479  0.00  0.00    +0.003 C 
ATOM      4  C   UNL     1      52.062  17.758  19.949  0.00  0.00    +0.020 C 
ATOM      5  C   UNL     1      50.592  18.078  20.198  0.00  0.00    -0.110 C 
ATOM      9  C   UNL     1      49.694  16.949  19.709  0.00  0.00    +0.012 C 
ATOM     10  C   UNL     1      48.241  17.187  20.119  0.00  0.00    +0.021 C 
ATOM     11  C   UNL     1      47.706  18.517  19.610  0.00  0.00    +0.025 C 
ATOM     12  C   UNL     1      47.390  18.349  18.119  0.00  0.00    +0.012 C 
ATOM     13  C   UNL     1      48.699  19.629  19.753  0.00  0.00    -0.013 C 
ATOM     14  C   UNL     1      48.348  20.848  20.085  0.00  0.00    -0.121 C 
ATOM     15  C   UNL     1      46.949  21.293  20.385  0.00  0.00    +0.052 C 
ATOM     16  C   UNL     1      45.948  20.257  19.876  0.00  0.00    +0.005 C 
ATOM     17  C   UNL     1      44.515  20.639  20.256  0.00  0.00    -0.028 C 
ATOM     18  C   UNL     1      44.391  20.931  21.746  0.00  0.00    +0.024 C 
ATOM     19  C   UNL     1      44.156  21.923  19.488  0.00  0.00    +0.042 C 
ATOM     20  C   UNL     1      42.700  22.292  19.759  0.00  0.00    +0.141 C 
ATOM     23  C   UNL     1      41.775  21.194  19.248  0.00  0.00    +0.137 C 
ATOM     26  C   UNL     1      42.106  19.830  19.851  0.00  0.00    -0.036 C 
ATOM     27  C   UNL     1      41.526  19.727  21.262  0.00  0.00    +0.030 C 
ATOM     28  C   UNL     1      41.367  18.781  18.983  0.00  0.00    +0.026 C 
ATOM     29  C   UNL     1      43.584  19.523  19.801  0.00  0.00    +0.006 C 
ATOM     30  C   UNL     1      43.952  18.227  20.522  0.00  0.00    +0.007 C 
ATOM     31  C   UNL     1      45.341  17.799  20.023  0.00  0.00    +0.009 C 
ATOM     32  C   UNL     1      46.383  18.869  20.320  0.00  0.00    -0.027 C 
ATOM     33  C   UNL     1      46.670  18.864  21.830  0.00  0.00    +0.036 C 
ATOM     34  C   UNL     1      50.184  19.401  19.562  0.00  0.00    +0.058 C 
ATOM     35  C   UNL     1      50.613  19.527  18.112  0.00  0.00    +0.155 C 
ATOM     38  C   UNL     1      50.289  20.928  17.580  0.00  0.00    -0.004 C 
ENDROOT
BRANCH   5   6
ATOM      6  C   UNL     1      50.425  18.211  21.703  0.00  0.00    +0.495 C 
ATOM      7  O   UNL     1      50.559  19.298  22.238  0.00  0.00    -0.668 OA
ATOM      8  O   UNL     1      50.157  17.230  22.376  0.00  0.00    -0.707 OA
ENDBRANCH   5   6
BRANCH  20  21
ATOM     21  O   UNL     1      42.399  23.513  19.063  0.00  0.00    -0.571 OA
ATOM     22  H   UNL     1      41.490  23.820  19.185  0.00  0.00    +0.370 HD
ENDBRANCH  20  21
BRANCH  23  24
ATOM     24  O   UNL     1      41.868  21.116  17.821  0.00  0.00    -0.553 OA
ATOM     25  H   UNL     1      41.335  20.409  17.431  0.00  0.00    +0.373 HD
ENDBRANCH  23  24
BRANCH  35  36
ATOM     36  O   UNL     1      49.995  18.556  17.272  0.00  0.00    -0.536 OA
ATOM     37  H   UNL     1      49.841  18.859  16.367  0.00  0.00    +0.356 HD
ENDBRANCH  35  36
TORSDOF 4
ENDMDL
MODEL 4
REMARK VINA RESULT:      -6.1      3.060      4.753
REMARK  Name = ZINC38143792
REMARK  11 active torsions:
REMARK  status: ('A' for Active; 'I' for Inactive)
REMARK    1  A    between atoms: C1_1  and  C2_2
REMARK    2  A    between atoms: C5_6  and  C30_39
REMARK    3  A    between atoms: C8_9  and  C29_38
REMARK    4  A    between atoms: C13_15  and  C25_32
REMARK    5  A    between atoms: C17_20  and  C24_31
REMARK    6  A    between atoms: C19_22  and  O2_30
REMARK    7  A    between atoms: C20_24  and  O1_29
REMARK    8  A    between atoms: C21_26  and  C22_27
REMARK    9  A    between atoms: C21_26  and  C23_28
REMARK   10  A    between atoms: C27_35  and  C28_36
REMARK   11  A    between atoms: C27_35  and  O3_37
REMARK                            x       y       z     vdW  Elec       q    Type
REMARK                         _______ _______ _______ _____ _____    ______ ____
ROOT
ATOM      1  C   UNL     1      44.281  21.512  19.535  0.00  0.00    +0.011 C 
ATOM      2  C   UNL     1      45.224  20.612  20.331  0.00  0.00    -0.050 C 
ATOM      3  C   UNL     1      46.515  21.371  20.649  0.00  0.00    +0.003 C 
ATOM      4  C   UNL     1      47.416  20.485  21.501  0.00  0.00    +0.020 C 
ATOM      5  C   UNL     1      47.749  19.166  20.810  0.00  0.00    -0.110 C 
ATOM      9  C   UNL     1      48.760  19.375  19.690  0.00  0.00    +0.012 C 
ATOM     10  C   UNL     1      49.228  18.036  19.119  0.00  0.00    +0.021 C 
ATOM     11  C   UNL     1      48.072  17.189  18.607  0.00  0.00    +0.025 C 
ATOM     12  C   UNL     1      47.643  17.761  17.251  0.00  0.00    +0.012 C 
ATOM     13  C   UNL     1      46.887  17.220  19.523  0.00  0.00    -0.013 C 
ATOM     14  C   UNL     1      46.143  16.165  19.748  0.00  0.00    -0.121 C 
ATOM     15  C   UNL     1      46.371  14.805  19.160  0.00  0.00    +0.052 C 
ATOM     16  C   UNL     1      47.331  14.900  17.974  0.00  0.00    +0.005 C 
ATOM     17  C   UNL     1      47.659  13.513  17.416  0.00  0.00    -0.028 C 
ATOM     18  C   UNL     1      48.131  12.566  18.512  0.00  0.00    +0.024 C 
ATOM     19  C   UNL     1      46.366  12.936  16.813  0.00  0.00    +0.042 C 
ATOM     20  C   UNL     1      46.664  11.591  16.155  0.00  0.00    +0.141 C 
ATOM     23  C   UNL     1      47.649  11.773  15.007  0.00  0.00    +0.137 C 
ATOM     26  C   UNL     1      48.943  12.451  15.454  0.00  0.00    -0.036 C 
ATOM     27  C   UNL     1      49.857  11.435  16.139  0.00  0.00    +0.030 C 
ATOM     28  C   UNL     1      49.664  12.907  14.161  0.00  0.00    +0.026 C 
ATOM     29  C   UNL     1      48.686  13.674  16.303  0.00  0.00    +0.006 C 
ATOM     30  C   UNL     1      49.965  14.286  16.874  0.00  0.00    +0.007 C 
ATOM     31  C   UNL     1      49.635  15.723  17.307  0.00  0.00    +0.009 C 
ATOM     32  C   UNL     1      48.539  15.739  18.364  0.00  0.00    -0.027 C 
ATOM     33  C   UNL     1      49.130  15.230  19.688  0.00  0.00    +0.036 C 
ATOM     34  C   UNL     1      46.500  18.472  20.282  0.00  0.00    +0.058 C 
ATOM     35  C   UNL     1      45.599  19.389  19.476  0.00  0.00    +0.155 C 
ATOM     38  C   UNL     1      44.304  18.662  19.092  0.00  0.00    -0.004 C 
ENDROOT
BRANCH   5   6
ATOM      6  C   UNL     1      48.373  18.267  21.865  0.00  0.00    +0.495 C 
ATOM      7  O   UNL     1      47.675  17.498  22.502  0.00  0.00    -0.668 OA
ATOM      8  O   UNL     1      49.574  18.316  22.075  0.00  0.00    -0.707 OA
ENDBRANCH   5   6
BRANCH  20  21
ATOM     21  O   UNL     1      45.438  11.054  15.633  0.00  0.00    -0.571 OA
ATOM     22  H   UNL     1      45.547  10.545  14.819  0.00  0.00    +0.370 HD
ENDBRANCH  20  21
BRANCH  23  24
ATOM     24  O   UNL     1      47.039  12.554  13.973  0.00  0.00    -0.553 OA
ATOM     25  H   UNL     1      46.920  12.078  13.139  0.00  0.00    +0.373 HD
ENDBRANCH  23  24
BRANCH  35  36
ATOM     36  O   UNL     1      46.229  19.873  18.293  0.00  0.00    -0.536 OA
ATOM     37  H   UNL     1      45.647  19.903  17.522  0.00  0.00    +0.356 HD
ENDBRANCH  35  36
TORSDOF 4
ENDMDL
MODEL 5
REMARK VINA RESULT:      -6.0      2.316      7.905
REMARK  Name = ZINC38143792
REMARK  11 active torsions:
REMARK  status: ('A' for Active; 'I' for Inactive)
REMARK    1  A    between atoms: C1_1  and  C2_2
REMARK    2  A    between atoms: C5_6  and  C30_39
REMARK    3  A    between atoms: C8_9  and  C29_38
REMARK    4  A    between atoms: C13_15  and  C25_32
REMARK    5  A    between atoms: C17_20  and  C24_31
REMARK    6  A    between atoms: C19_22  and  O2_30
REMARK    7  A    between atoms: C20_24  and  O1_29
REMARK    8  A    between atoms: C21_26  and  C22_27
REMARK    9  A    between atoms: C21_26  and  C23_28
REMARK   10  A    between atoms: C27_35  and  C28_36
REMARK   11  A    between atoms: C27_35  and  O3_37
REMARK                            x       y       z     vdW  Elec       q    Type
REMARK                         _______ _______ _______ _____ _____    ______ ____
ROOT
ATOM      1  C   UNL     1      48.668  11.619  15.599  0.00  0.00    +0.011 C 
ATOM      2  C   UNL     1      49.419  12.889  15.997  0.00  0.00    -0.050 C 
ATOM      3  C   UNL     1      50.517  12.544  17.007  0.00  0.00    +0.003 C 
ATOM      4  C   UNL     1      51.300  13.808  17.341  0.00  0.00    +0.020 C 
ATOM      5  C   UNL     1      50.407  14.909  17.906  0.00  0.00    -0.110 C 
ATOM      9  C   UNL     1      49.999  14.601  19.340  0.00  0.00    +0.012 C 
ATOM     10  C   UNL     1      49.257  15.784  19.964  0.00  0.00    +0.021 C 
ATOM     11  C   UNL     1      48.027  16.183  19.162  0.00  0.00    +0.025 C 
ATOM     12  C   UNL     1      46.923  15.165  19.469  0.00  0.00    +0.012 C 
ATOM     13  C   UNL     1      48.275  16.171  17.684  0.00  0.00    -0.013 C 
ATOM     14  C   UNL     1      47.760  17.065  16.877  0.00  0.00    -0.121 C 
ATOM     15  C   UNL     1      46.891  18.211  17.298  0.00  0.00    +0.052 C 
ATOM     16  C   UNL     1      46.366  17.980  18.714  0.00  0.00    +0.005 C 
ATOM     17  C   UNL     1      45.557  19.182  19.207  0.00  0.00    -0.028 C 
ATOM     18  C   UNL     1      46.331  20.483  19.045  0.00  0.00    +0.024 C 
ATOM     19  C   UNL     1      44.287  19.274  18.342  0.00  0.00    +0.042 C 
ATOM     20  C   UNL     1      43.396  20.401  18.858  0.00  0.00    +0.141 C 
ATOM     23  C   UNL     1      42.944  20.105  20.283  0.00  0.00    +0.137 C 
ATOM     26  C   UNL     1      44.122  19.873  21.229  0.00  0.00    -0.036 C 
ATOM     27  C   UNL     1      44.726  21.213  21.649  0.00  0.00    +0.030 C 
ATOM     28  C   UNL     1      43.531  19.224  22.505  0.00  0.00    +0.026 C 
ATOM     29  C   UNL     1      45.144  18.924  20.650  0.00  0.00    +0.006 C 
ATOM     30  C   UNL     1      46.393  18.787  21.520  0.00  0.00    +0.007 C 
ATOM     31  C   UNL     1      47.117  17.502  21.089  0.00  0.00    +0.009 C 
ATOM     32  C   UNL     1      47.515  17.563  19.620  0.00  0.00    -0.027 C 
ATOM     33  C   UNL     1      48.686  18.548  19.473  0.00  0.00    +0.036 C 
ATOM     34  C   UNL     1      49.177  15.141  17.037  0.00  0.00    +0.058 C 
ATOM     35  C   UNL     1      48.443  13.862  16.681  0.00  0.00    +0.155 C 
ATOM     38  C   UNL     1      47.300  14.157  15.702  0.00  0.00    -0.004 C 
ENDROOT
BRANCH   5   6
ATOM      6  C   UNL     1      51.232  16.185  17.899  0.00  0.00    +0.495 C 
ATOM      7  O   UNL     1      51.234  16.905  16.916  0.00  0.00    -0.668 OA
ATOM      8  O   UNL     1      51.893  16.488  18.878  0.00  0.00    -0.707 OA
ENDBRANCH   5   6
BRANCH  20  21
ATOM     21  O   UNL     1      42.237  20.493  18.014  0.00  0.00    -0.571 OA
ATOM     22  H   UNL     1      42.411  20.894  17.151  0.00  0.00    +0.370 HD
ENDBRANCH  20  21
BRANCH  23  24
ATOM     24  O   UNL     1      42.100  18.948  20.286  0.00  0.00    -0.553 OA
ATOM     25  H   UNL     1      42.538  18.142  19.978  0.00  0.00    +0.373 HD
ENDBRANCH  23  24
BRANCH  35  36
ATOM     36  O   UNL     1      47.914  13.198  17.826  0.00  0.00    -0.536 OA
ATOM     37  H   UNL     1      48.530  12.581  18.243  0.00  0.00    +0.356 HD
ENDBRANCH  35  36
TORSDOF 4
ENDMDL
MODEL 6
REMARK VINA RESULT:      -6.0      3.733      6.541
REMARK  Name = ZINC38143792
REMARK  11 active torsions:
REMARK  status: ('A' for Active; 'I' for Inactive)
REMARK    1  A    between atoms: C1_1  and  C2_2
REMARK    2  A    between atoms: C5_6  and  C30_39
REMARK    3  A    between atoms: C8_9  and  C29_38
REMARK    4  A    between atoms: C13_15  and  C25_32
REMARK    5  A    between atoms: C17_20  and  C24_31
REMARK    6  A    between atoms: C19_22  and  O2_30
REMARK    7  A    between atoms: C20_24  and  O1_29
REMARK    8  A    between atoms: C21_26  and  C22_27
REMARK    9  A    between atoms: C21_26  and  C23_28
REMARK   10  A    between atoms: C27_35  and  C28_36
REMARK   11  A    between atoms: C27_35  and  O3_37
REMARK                            x       y       z     vdW  Elec       q    Type
REMARK                         _______ _______ _______ _____ _____    ______ ____
ROOT
ATOM      1  C   UNL     1      47.713  21.470  20.617  0.00  0.00    +0.011 C 
ATOM      2  C   UNL     1      48.587  20.307  21.084  0.00  0.00    -0.050 C 
ATOM      3  C   UNL     1      50.044  20.765  21.188  0.00  0.00    +0.003 C 
ATOM      4  C   UNL     1      50.890  19.615  21.720  0.00  0.00    +0.020 C 
ATOM      5  C   UNL     1      50.801  18.375  20.837  0.00  0.00    -0.110 C 
ATOM      9  C   UNL     1      51.594  18.560  19.550  0.00  0.00    +0.012 C 
ATOM     10  C   UNL     1      51.653  17.258  18.751  0.00  0.00    +0.021 C 
ATOM     11  C   UNL     1      50.269  16.718  18.421  0.00  0.00    +0.025 C 
ATOM     12  C   UNL     1      49.710  17.552  17.262  0.00  0.00    +0.012 C 
ATOM     13  C   UNL     1      49.319  16.827  19.574  0.00  0.00    -0.013 C 
ATOM     14  C   UNL     1      48.431  15.902  19.845  0.00  0.00    -0.121 C 
ATOM     15  C   UNL     1      48.253  14.625  19.080  0.00  0.00    +0.052 C 
ATOM     16  C   UNL     1      48.960  14.719  17.728  0.00  0.00    +0.005 C 
ATOM     17  C   UNL     1      48.877  13.394  16.968  0.00  0.00    -0.028 C 
ATOM     18  C   UNL     1      49.348  12.226  17.825  0.00  0.00    +0.024 C 
ATOM     19  C   UNL     1      47.400  13.155  16.608  0.00  0.00    +0.042 C 
ATOM     20  C   UNL     1      47.278  11.890  15.761  0.00  0.00    +0.141 C 
ATOM     23  C   UNL     1      48.034  12.059  14.450  0.00  0.00    +0.137 C 
ATOM     26  C   UNL     1      49.503  12.419  14.669  0.00  0.00    -0.036 C 
ATOM     27  C   UNL     1      50.302  11.165  15.023  0.00  0.00    +0.030 C 
ATOM     28  C   UNL     1      50.035  12.923  13.304  0.00  0.00    +0.026 C 
ATOM     29  C   UNL     1      49.677  13.530  15.678  0.00  0.00    +0.006 C 
ATOM     30  C   UNL     1      51.141  13.810  16.014  0.00  0.00    +0.007 C 
ATOM     31  C   UNL     1      51.208  15.203  16.659  0.00  0.00    +0.009 C 
ATOM     32  C   UNL     1      50.367  15.261  17.928  0.00  0.00    -0.027 C 
ATOM     33  C   UNL     1      51.088  14.463  19.027  0.00  0.00    +0.036 C 
ATOM     34  C   UNL     1      49.356  18.003  20.528  0.00  0.00    +0.058 C 
ATOM     35  C   UNL     1      48.525  19.176  20.043  0.00  0.00    +0.155 C 
ATOM     38  C   UNL     1      47.058  18.759  19.880  0.00  0.00    -0.004 C 
ENDROOT
BRANCH   5   6
ATOM      6  C   UNL     1      51.420  17.233  21.627  0.00  0.00    +0.495 C 
ATOM      7  O   UNL     1      50.721  16.537  22.342  0.00  0.00    -0.668 OA
ATOM      8  O   UNL     1      52.617  17.013  21.544  0.00  0.00    -0.707 OA
ENDBRANCH   5   6
BRANCH  20  21
ATOM     21  O   UNL     1      45.889  11.666  15.470  0.00  0.00    -0.571 OA
ATOM     22  H   UNL     1      45.563  12.159  14.705  0.00  0.00    +0.370 HD
ENDBRANCH  20  21
BRANCH  23  24
ATOM     24  O   UNL     1      47.409  13.080  13.665  0.00  0.00    -0.553 OA
ATOM     25  H   UNL     1      47.382  12.887  12.718  0.00  0.00    +0.373 HD
ENDBRANCH  23  24
BRANCH  35  36
ATOM     36  O   UNL     1      48.997  19.708  18.809  0.00  0.00    -0.536 OA
ATOM     37  H   UNL     1      48.441  19.490  18.048  0.00  0.00    +0.356 HD
ENDBRANCH  35  36
TORSDOF 4
ENDMDL
MODEL 7
REMARK VINA RESULT:      -5.9      5.051      8.956
REMARK  Name = ZINC38143792
REMARK  11 active torsions:
REMARK  status: ('A' for Active; 'I' for Inactive)
REMARK    1  A    between atoms: C1_1  and  C2_2
REMARK    2  A    between atoms: C5_6  and  C30_39
REMARK    3  A    between atoms: C8_9  and  C29_38
REMARK    4  A    between atoms: C13_15  and  C25_32
REMARK    5  A    between atoms: C17_20  and  C24_31
REMARK    6  A    between atoms: C19_22  and  O2_30
REMARK    7  A    between atoms: C20_24  and  O1_29
REMARK    8  A    between atoms: C21_26  and  C22_27
REMARK    9  A    between atoms: C21_26  and  C23_28
REMARK   10  A    between atoms: C27_35  and  C28_36
REMARK   11  A    between atoms: C27_35  and  O3_37
REMARK                            x       y       z     vdW  Elec       q    Type
REMARK                         _______ _______ _______ _____ _____    ______ ____
ROOT
ATOM      1  C   UNL     1      46.469  11.092  15.068  0.00  0.00    +0.011 C 
ATOM      2  C   UNL     1      47.657  11.062  16.028  0.00  0.00    -0.050 C 
ATOM      3  C   UNL     1      47.241  10.398  17.343  0.00  0.00    +0.003 C 
ATOM      4  C   UNL     1      48.453  10.313  18.263  0.00  0.00    +0.020 C 
ATOM      5  C   UNL     1      49.060  11.683  18.546  0.00  0.00    -0.110 C 
ATOM      9  C   UNL     1      48.193  12.477  19.514  0.00  0.00    +0.012 C 
ATOM     10  C   UNL     1      48.889  13.772  19.936  0.00  0.00    +0.021 C 
ATOM     11  C   UNL     1      49.253  14.648  18.747  0.00  0.00    +0.025 C 
ATOM     12  C   UNL     1      47.972  15.343  18.272  0.00  0.00    +0.012 C 
ATOM     13  C   UNL     1      49.808  13.859  17.600  0.00  0.00    -0.013 C 
ATOM     14  C   UNL     1      50.786  14.302  16.849  0.00  0.00    -0.121 C 
ATOM     15  C   UNL     1      51.490  15.612  17.030  0.00  0.00    +0.052 C 
ATOM     16  C   UNL     1      50.673  16.526  17.943  0.00  0.00    +0.005 C 
ATOM     17  C   UNL     1      51.416  17.834  18.225  0.00  0.00    -0.028 C 
ATOM     18  C   UNL     1      52.832  17.577  18.725  0.00  0.00    +0.024 C 
ATOM     19  C   UNL     1      51.513  18.609  16.899  0.00  0.00    +0.042 C 
ATOM     20  C   UNL     1      52.162  19.969  17.148  0.00  0.00    +0.141 C 
ATOM     23  C   UNL     1      51.299  20.801  18.088  0.00  0.00    +0.137 C 
ATOM     26  C   UNL     1      51.026  20.085  19.410  0.00  0.00    -0.036 C 
ATOM     27  C   UNL     1      52.237  20.213  20.334  0.00  0.00    +0.030 C 
ATOM     28  C   UNL     1      49.861  20.851  20.085  0.00  0.00    +0.026 C 
ATOM     29  C   UNL     1      50.590  18.653  19.208  0.00  0.00    +0.006 C 
ATOM     30  C   UNL     1      50.445  17.881  20.519  0.00  0.00    +0.007 C 
ATOM     31  C   UNL     1      49.586  16.640  20.231  0.00  0.00    +0.009 C 
ATOM     32  C   UNL     1      50.238  15.753  19.179  0.00  0.00    -0.027 C 
ATOM     33  C   UNL     1      51.449  15.052  19.814  0.00  0.00    +0.036 C 
ATOM     34  C   UNL     1      49.296  12.474  17.265  0.00  0.00    +0.058 C 
ATOM     35  C   UNL     1      48.088  12.504  16.347  0.00  0.00    +0.155 C 
ATOM     38  C   UNL     1      48.438  13.199  15.026  0.00  0.00    -0.004 C 
ENDROOT
BRANCH   5   6
ATOM      6  C   UNL     1      50.411  11.435  19.197  0.00  0.00    +0.495 C 
ATOM      7  O   UNL     1      51.410  11.330  18.508  0.00  0.00    -0.668 OA
ATOM      8  O   UNL     1      50.494  11.340  20.411  0.00  0.00    -0.707 OA
ENDBRANCH   5   6
BRANCH  20  21
ATOM     21  O   UNL     1      52.278  20.658  15.893  0.00  0.00    -0.571 OA
ATOM     22  H   UNL     1      52.074  20.110  15.123  0.00  0.00    +0.370 HD
ENDBRANCH  20  21
BRANCH  23  24
ATOM     24  O   UNL     1      50.054  21.106  17.449  0.00  0.00    -0.553 OA
ATOM     25  H   UNL     1      49.889  22.053  17.343  0.00  0.00    +0.373 HD
ENDBRANCH  23  24
BRANCH  35  36
ATOM     36  O   UNL     1      46.969  13.161  16.936  0.00  0.00    -0.536 OA
ATOM     37  H   UNL     1      46.143  12.662  16.876  0.00  0.00    +0.356 HD
ENDBRANCH  35  36
TORSDOF 4
ENDMDL
MODEL 8
REMARK VINA RESULT:      -5.9      1.244      1.780
REMARK  Name = ZINC38143792
REMARK  11 active torsions:
REMARK  status: ('A' for Active; 'I' for Inactive)
REMARK    1  A    between atoms: C1_1  and  C2_2
REMARK    2  A    between atoms: C5_6  and  C30_39
REMARK    3  A    between atoms: C8_9  and  C29_38
REMARK    4  A    between atoms: C13_15  and  C25_32
REMARK    5  A    between atoms: C17_20  and  C24_31
REMARK    6  A    between atoms: C19_22  and  O2_30
REMARK    7  A    between atoms: C20_24  and  O1_29
REMARK    8  A    between atoms: C21_26  and  C22_27
REMARK    9  A    between atoms: C21_26  and  C23_28
REMARK   10  A    between atoms: C27_35  and  C28_36
REMARK   11  A    between atoms: C27_35  and  O3_37
REMARK                            x       y       z     vdW  Elec       q    Type
REMARK                         _______ _______ _______ _____ _____    ______ ____
ROOT
ATOM      1  C   UNL     1      41.294  20.954  19.050  0.00  0.00    +0.011 C 
ATOM      2  C   UNL     1      42.552  21.179  19.887  0.00  0.00    -0.050 C 
ATOM      3  C   UNL     1      43.201  22.510  19.498  0.00  0.00    +0.003 C 
ATOM      4  C   UNL     1      44.413  22.751  20.388  0.00  0.00    +0.020 C 
ATOM      5  C   UNL     1      45.439  21.627  20.284  0.00  0.00    -0.110 C 
ATOM      9  C   UNL     1      46.202  21.702  18.968  0.00  0.00    +0.012 C 
ATOM     10  C   UNL     1      47.348  20.690  18.942  0.00  0.00    +0.021 C 
ATOM     11  C   UNL     1      46.867  19.264  19.169  0.00  0.00    +0.025 C 
ATOM     12  C   UNL     1      46.236  18.774  17.860  0.00  0.00    +0.012 C 
ATOM     13  C   UNL     1      45.833  19.172  20.248  0.00  0.00    -0.013 C 
ATOM     14  C   UNL     1      45.787  18.172  21.095  0.00  0.00    -0.121 C 
ATOM     15  C   UNL     1      46.744  17.020  21.125  0.00  0.00    +0.052 C 
ATOM     16  C   UNL     1      47.529  16.955  19.815  0.00  0.00    +0.005 C 
ATOM     17  C   UNL     1      48.585  15.848  19.857  0.00  0.00    -0.028 C 
ATOM     18  C   UNL     1      49.466  15.960  21.094  0.00  0.00    +0.024 C 
ATOM     19  C   UNL     1      47.843  14.500  19.922  0.00  0.00    +0.042 C 
ATOM     20  C   UNL     1      48.853  13.357  19.867  0.00  0.00    +0.141 C 
ATOM     23  C   UNL     1      49.610  13.386  18.545  0.00  0.00    +0.137 C 
ATOM     26  C   UNL     1      50.301  14.726  18.301  0.00  0.00    -0.036 C 
ATOM     27  C   UNL     1      51.602  14.797  19.101  0.00  0.00    +0.030 C 
ATOM     28  C   UNL     1      50.692  14.747  16.802  0.00  0.00    +0.026 C 
ATOM     29  C   UNL     1      49.387  15.900  18.563  0.00  0.00    +0.006 C 
ATOM     30  C   UNL     1      50.098  17.248  18.459  0.00  0.00    +0.007 C 
ATOM     31  C   UNL     1      49.018  18.328  18.288  0.00  0.00    +0.009 C 
ATOM     32  C   UNL     1      48.062  18.339  19.473  0.00  0.00    -0.027 C 
ATOM     33  C   UNL     1      48.794  18.936  20.685  0.00  0.00    +0.036 C 
ATOM     34  C   UNL     1      44.796  20.256  20.454  0.00  0.00    +0.058 C 
ATOM     35  C   UNL     1      43.565  20.060  19.590  0.00  0.00    +0.155 C 
ATOM     38  C   UNL     1      42.898  18.717  19.910  0.00  0.00    -0.004 C 
ENDROOT
BRANCH   5   6
ATOM      6  C   UNL     1      46.422  21.828  21.427  0.00  0.00    +0.495 C 
ATOM      7  O   UNL     1      47.405  22.530  21.269  0.00  0.00    -0.668 OA
ATOM      8  O   UNL     1      46.226  21.285  22.501  0.00  0.00    -0.707 OA
ENDBRANCH   5   6
BRANCH  20  21
ATOM     21  O   UNL     1      48.143  12.112  19.968  0.00  0.00    -0.571 OA
ATOM     22  H   UNL     1      47.872  11.745  19.115  0.00  0.00    +0.370 HD
ENDBRANCH  20  21
BRANCH  23  24
ATOM     24  O   UNL     1      48.703  13.119  17.469  0.00  0.00    -0.553 OA
ATOM     25  H   UNL     1      48.809  12.242  17.074  0.00  0.00    +0.373 HD
ENDBRANCH  23  24
BRANCH  35  36
ATOM     36  O   UNL     1      43.860  20.112  18.197  0.00  0.00    -0.536 OA
ATOM     37  H   UNL     1      43.087  20.265  17.636  0.00  0.00    +0.356 HD
ENDBRANCH  35  36
TORSDOF 4
ENDMDL
MODEL 9
REMARK VINA RESULT:      -5.8      2.505      3.995
REMARK  Name = ZINC38143792
REMARK  11 active torsions:
REMARK  status: ('A' for Active; 'I' for Inactive)
REMARK    1  A    between atoms: C1_1  and  C2_2
REMARK    2  A    between atoms: C5_6  and  C30_39
REMARK    3  A    between atoms: C8_9  and  C29_38
REMARK    4  A    between atoms: C13_15  and  C25_32
REMARK    5  A    between atoms: C17_20  and  C24_31
REMARK    6  A    between atoms: C19_22  and  O2_30
REMARK    7  A    between atoms: C20_24  and  O1_29
REMARK    8  A    between atoms: C21_26  and  C22_27
REMARK    9  A    between atoms: C21_26  and  C23_28
REMARK   10  A    between atoms: C27_35  and  C28_36
REMARK   11  A    between atoms: C27_35  and  O3_37
REMARK                            x       y       z     vdW  Elec       q    Type
REMARK                         _______ _______ _______ _____ _____    ______ ____
ROOT
ATOM      1  C   UNL     1      43.453  21.162  19.748  0.00  0.00    +0.011 C 
ATOM      2  C   UNL     1      44.749  20.718  20.425  0.00  0.00    -0.050 C 
ATOM      3  C   UNL     1      45.809  21.813  20.280  0.00  0.00    +0.003 C 
ATOM      4  C   UNL     1      47.071  21.385  21.018  0.00  0.00    +0.020 C 
ATOM      5  C   UNL     1      47.622  20.060  20.499  0.00  0.00    -0.110 C 
ATOM      9  C   UNL     1      48.295  20.240  19.145  0.00  0.00    +0.012 C 
ATOM     10  C   UNL     1      49.002  18.956  18.711  0.00  0.00    +0.021 C 
ATOM     11  C   UNL     1      48.057  17.765  18.653  0.00  0.00    +0.025 C 
ATOM     12  C   UNL     1      47.228  17.893  17.369  0.00  0.00    +0.012 C 
ATOM     13  C   UNL     1      47.113  17.724  19.815  0.00  0.00    -0.013 C 
ATOM     14  C   UNL     1      46.756  16.603  20.393  0.00  0.00    -0.121 C 
ATOM     15  C   UNL     1      47.241  15.239  20.005  0.00  0.00    +0.052 C 
ATOM     16  C   UNL     1      47.885  15.284  18.620  0.00  0.00    +0.005 C 
ATOM     17  C   UNL     1      48.477  13.924  18.241  0.00  0.00    -0.028 C 
ATOM     18  C   UNL     1      49.401  13.393  19.329  0.00  0.00    +0.024 C 
ATOM     19  C   UNL     1      47.308  12.935  18.084  0.00  0.00    +0.042 C 
ATOM     20  C   UNL     1      47.841  11.585  17.610  0.00  0.00    +0.141 C 
ATOM     23  C   UNL     1      48.491  11.727  16.240  0.00  0.00    +0.137 C 
ATOM     26  C   UNL     1      49.601  12.776  16.230  0.00  0.00    -0.036 C 
ATOM     27  C   UNL     1      50.880  12.190  16.828  0.00  0.00    +0.030 C 
ATOM     28  C   UNL     1      49.898  13.081  14.740  0.00  0.00    +0.026 C 
ATOM     29  C   UNL     1      49.179  14.065  16.897  0.00  0.00    +0.006 C 
ATOM     30  C   UNL     1      50.318  15.076  17.020  0.00  0.00    +0.007 C 
ATOM     31  C   UNL     1      49.686  16.454  17.272  0.00  0.00    +0.009 C 
ATOM     32  C   UNL     1      48.857  16.451  18.550  0.00  0.00    -0.027 C 
ATOM     33  C   UNL     1      49.814  16.414  19.752  0.00  0.00    +0.036 C 
ATOM     34  C   UNL     1      46.543  18.988  20.424  0.00  0.00    +0.058 C 
ATOM     35  C   UNL     1      45.280  19.456  19.724  0.00  0.00    +0.155 C 
ATOM     38  C   UNL     1      44.195  18.375  19.802  0.00  0.00    -0.004 C 
ENDROOT
BRANCH   5   6
ATOM      6  C   UNL     1      48.668  19.601  21.503  0.00  0.00    +0.495 C 
ATOM      7  O   UNL     1      48.343  18.899  22.444  0.00  0.00    -0.668 OA
ATOM      8  O   UNL     1      49.833  19.936  21.366  0.00  0.00    -0.707 OA
ENDBRANCH   5   6
BRANCH  20  21
ATOM     21  O   UNL     1      46.739  10.668  17.508  0.00  0.00    -0.571 OA
ATOM     22  H   UNL     1      46.714  10.005  18.212  0.00  0.00    +0.370 HD
ENDBRANCH  20  21
BRANCH  23  24
ATOM     24  O   UNL     1      47.496  12.082  15.273  0.00  0.00    -0.553 OA
ATOM     25  H   UNL     1      47.405  11.446  14.550  0.00  0.00    +0.373 HD
ENDBRANCH  23  24
BRANCH  35  36
ATOM     36  O   UNL     1      45.505  19.791  18.357  0.00  0.00    -0.536 OA
ATOM     37  H   UNL     1      46.016  19.132  17.869  0.00  0.00    +0.356 HD
ENDBRANCH  35  36
TORSDOF 4
ENDMDL
