MODEL 1
REMARK VINA RESULT:      -5.9      0.000      0.000
REMARK  Name = ZINC00035526
REMARK  12 active torsions:
REMARK  status: ('A' for Active; 'I' for Inactive)
REMARK    1  A    between atoms: C1_1  and  C2_2
REMARK    2  A    between atoms: C2_2  and  C3_3
REMARK    3  A    between atoms: C2_2  and  C4_4
REMARK    4  A    between atoms: C2_2  and  O6_26
REMARK    5  A    between atoms: C4_4  and  C5_6
REMARK    6  A    between atoms: C4_4  and  O5_25
REMARK    7  A    between atoms: C5_6  and  O1_7
REMARK    8  A    between atoms: O1_7  and  C6_8
REMARK    9  A    between atoms: C11_13  and  O2_14
REMARK   10  A    between atoms: O2_14  and  C12_15
REMARK   11  A    between atoms: C15_19  and  O3_20
REMARK   12  A    between atoms: O3_20  and  C16_21
REMARK                            x       y       z     vdW  Elec       q    Type
REMARK                         _______ _______ _______ _____ _____    ______ ____
ROOT
ATOM     10  C   UNL     1      47.370  19.361  18.927  0.00  0.00    +0.144 A 
ATOM     11  C   UNL     1      47.559  20.626  19.488  0.00  0.00    -0.043 A 
ATOM     12  C   UNL     1      46.509  21.472  19.670  0.00  0.00    +0.102 A 
ATOM     13  C   UNL     1      45.215  21.075  19.290  0.00  0.00    -0.156 A 
ATOM     14  C   UNL     1      45.008  19.794  18.719  0.00  0.00    +0.207 A 
ATOM     15  N   UNL     1      43.783  19.403  18.353  0.00  0.00    -0.467 NA
ATOM     16  C   UNL     1      42.728  20.180  18.506  0.00  0.00    +0.322 A 
ATOM     17  C   UNL     1      42.860  21.469  19.069  0.00  0.00    -0.210 A 
ATOM     18  C   UNL     1      41.505  22.035  19.084  0.00  0.00    -0.028 A 
ATOM     19  C   UNL     1      40.705  21.099  18.559  0.00  0.00    +0.247 A 
ATOM     20  O   UNL     1      41.419  20.011  18.219  0.00  0.00    -0.191 OA
ATOM     21  C   UNL     1      44.111  21.933  19.468  0.00  0.00    +0.222 A 
ATOM     24  C   UNL     1      46.115  18.941  18.537  0.00  0.00    +0.064 A 
ENDROOT
BRANCH  21  22
ATOM     22  O   UNL     1      44.260  23.166  20.011  0.00  0.00    -0.326 OA
ATOM     23  C   UNL     1      44.446  24.254  19.104  0.00  0.00    +0.248 C 
ENDBRANCH  21  22
BRANCH  24  25
ATOM     25  O   UNL     1      45.946  17.708  17.988  0.00  0.00    -0.302 OA
ATOM     26  C   UNL     1      45.755  16.616  18.890  0.00  0.00    +0.222 C 
ENDBRANCH  24  25
BRANCH  10   9
ATOM      9  O   UNL     1      48.437  18.536  18.757  0.00  0.00    -0.286 OA
BRANCH   9   8
ATOM      8  C   UNL     1      49.736  19.122  18.870  0.00  0.00    +0.177 C 
BRANCH   8   5
ATOM      5  C   UNL     1      50.684  18.458  17.870  0.00  0.00    +0.246 C 
BRANCH   5   2
ATOM      1  C   UNL     1      51.807  19.370  15.833  0.00  0.00    +0.031 C 
ATOM      2  C   UNL     1      51.686  19.493  17.353  0.00  0.00    +0.100 C 
ATOM     27  C   UNL     1      51.200  20.898  17.715  0.00  0.00    +0.015 C 
BRANCH   2   3
ATOM      3  O   UNL     1      52.962  19.260  17.953  0.00  0.00    -0.557 OA
ATOM      4  H   UNL     1      53.418  18.477  17.616  0.00  0.00    +0.384 HD
ENDBRANCH   2   3
ENDBRANCH   5   2
BRANCH   5   6
ATOM      6  O   UNL     1      49.931  17.935  16.773  0.00  0.00    -0.537 OA
ATOM      7  H   UNL     1      50.285  17.111  16.411  0.00  0.00    +0.374 HD
ENDBRANCH   5   6
ENDBRANCH   8   5
ENDBRANCH   9   8
ENDBRANCH  10   9
TORSDOF 8
ENDMDL
MODEL 2
REMARK VINA RESULT:      -5.7      2.232      7.036
REMARK  Name = ZINC00035526
REMARK  12 active torsions:
REMARK  status: ('A' for Active; 'I' for Inactive)
REMARK    1  A    between atoms: C1_1  and  C2_2
REMARK    2  A    between atoms: C2_2  and  C3_3
REMARK    3  A    between atoms: C2_2  and  C4_4
REMARK    4  A    between atoms: C2_2  and  O6_26
REMARK    5  A    between atoms: C4_4  and  C5_6
REMARK    6  A    between atoms: C4_4  and  O5_25
REMARK    7  A    between atoms: C5_6  and  O1_7
REMARK    8  A    between atoms: O1_7  and  C6_8
REMARK    9  A    between atoms: C11_13  and  O2_14
REMARK   10  A    between atoms: O2_14  and  C12_15
REMARK   11  A    between atoms: C15_19  and  O3_20
REMARK   12  A    between atoms: O3_20  and  C16_21
REMARK                            x       y       z     vdW  Elec       q    Type
REMARK                         _______ _______ _______ _____ _____    ______ ____
ROOT
ATOM     10  C   UNL     1      47.286  19.385  20.813  0.00  0.00    +0.144 A 
ATOM     11  C   UNL     1      48.024  20.502  21.213  0.00  0.00    -0.043 A 
ATOM     12  C   UNL     1      49.141  20.879  20.535  0.00  0.00    +0.102 A 
ATOM     13  C   UNL     1      49.566  20.140  19.418  0.00  0.00    -0.156 A 
ATOM     14  C   UNL     1      48.828  19.003  19.000  0.00  0.00    +0.207 A 
ATOM     15  N   UNL     1      49.220  18.291  17.939  0.00  0.00    -0.467 NA
ATOM     16  C   UNL     1      50.295  18.610  17.243  0.00  0.00    +0.322 A 
ATOM     17  C   UNL     1      51.078  19.729  17.602  0.00  0.00    -0.210 A 
ATOM     18  C   UNL     1      52.172  19.777  16.623  0.00  0.00    -0.028 A 
ATOM     19  C   UNL     1      51.977  18.742  15.797  0.00  0.00    +0.247 A 
ATOM     20  O   UNL     1      50.878  18.056  16.158  0.00  0.00    -0.191 OA
ATOM     21  C   UNL     1      50.720  20.510  18.698  0.00  0.00    +0.222 A 
ATOM     24  C   UNL     1      47.677  18.633  19.724  0.00  0.00    +0.064 A 
ENDROOT
BRANCH  21  22
ATOM     22  O   UNL     1      51.457  21.589  19.059  0.00  0.00    -0.326 OA
ATOM     23  C   UNL     1      52.624  21.342  19.846  0.00  0.00    +0.248 C 
ENDBRANCH  21  22
BRANCH  24  25
ATOM     25  O   UNL     1      46.953  17.545  19.349  0.00  0.00    -0.302 OA
ATOM     26  C   UNL     1      45.855  17.771  18.462  0.00  0.00    +0.222 C 
ENDBRANCH  24  25
BRANCH  10   9
ATOM      9  O   UNL     1      46.173  19.031  21.509  0.00  0.00    -0.286 OA
BRANCH   9   8
ATOM      8  C   UNL     1      45.293  20.085  21.905  0.00  0.00    +0.177 C 
BRANCH   8   5
ATOM      5  C   UNL     1      44.261  20.330  20.803  0.00  0.00    +0.246 C 
BRANCH   5   2
ATOM      1  C   UNL     1      44.989  22.644  21.401  0.00  0.00    +0.031 C 
ATOM      2  C   UNL     1      44.381  21.770  20.302  0.00  0.00    +0.100 C 
ATOM     27  C   UNL     1      45.281  21.806  19.065  0.00  0.00    +0.015 C 
BRANCH   2   3
ATOM      3  O   UNL     1      43.084  22.266  19.962  0.00  0.00    -0.557 OA
ATOM      4  H   UNL     1      42.433  22.184  20.673  0.00  0.00    +0.384 HD
ENDBRANCH   2   3
ENDBRANCH   5   2
BRANCH   5   6
ATOM      6  O   UNL     1      42.947  20.115  21.323  0.00  0.00    -0.537 OA
ATOM      7  H   UNL     1      42.545  19.280  21.042  0.00  0.00    +0.374 HD
ENDBRANCH   5   6
ENDBRANCH   8   5
ENDBRANCH   9   8
ENDBRANCH  10   9
TORSDOF 8
ENDMDL
MODEL 3
REMARK VINA RESULT:      -5.6      3.419      5.404
REMARK  Name = ZINC00035526
REMARK  12 active torsions:
REMARK  status: ('A' for Active; 'I' for Inactive)
REMARK    1  A    between atoms: C1_1  and  C2_2
REMARK    2  A    between atoms: C2_2  and  C3_3
REMARK    3  A    between atoms: C2_2  and  C4_4
REMARK    4  A    between atoms: C2_2  and  O6_26
REMARK    5  A    between atoms: C4_4  and  C5_6
REMARK    6  A    between atoms: C4_4  and  O5_25
REMARK    7  A    between atoms: C5_6  and  O1_7
REMARK    8  A    between atoms: O1_7  and  C6_8
REMARK    9  A    between atoms: C11_13  and  O2_14
REMARK   10  A    between atoms: O2_14  and  C12_15
REMARK   11  A    between atoms: C15_19  and  O3_20
REMARK   12  A    between atoms: O3_20  and  C16_21
REMARK                            x       y       z     vdW  Elec       q    Type
REMARK                         _______ _______ _______ _____ _____    ______ ____
ROOT
ATOM     10  C   UNL     1      46.171  15.199  18.783  0.00  0.00    +0.144 A 
ATOM     11  C   UNL     1      45.373  15.035  19.919  0.00  0.00    -0.043 A 
ATOM     12  C   UNL     1      44.796  16.107  20.525  0.00  0.00    +0.102 A 
ATOM     13  C   UNL     1      45.000  17.398  20.010  0.00  0.00    -0.156 A 
ATOM     14  C   UNL     1      45.807  17.581  18.858  0.00  0.00    +0.207 A 
ATOM     15  N   UNL     1      46.009  18.803  18.357  0.00  0.00    -0.467 NA
ATOM     16  C   UNL     1      45.473  19.879  18.903  0.00  0.00    +0.322 A 
ATOM     17  C   UNL     1      44.658  19.772  20.051  0.00  0.00    -0.210 A 
ATOM     18  C   UNL     1      44.246  21.144  20.373  0.00  0.00    -0.028 A 
ATOM     19  C   UNL     1      44.811  21.929  19.448  0.00  0.00    +0.247 A 
ATOM     20  O   UNL     1      45.532  21.190  18.585  0.00  0.00    -0.191 OA
ATOM     21  C   UNL     1      44.411  18.525  20.620  0.00  0.00    +0.222 A 
ATOM     24  C   UNL     1      46.397  16.453  18.254  0.00  0.00    +0.064 A 
ENDROOT
BRANCH  21  22
ATOM     22  O   UNL     1      43.631  18.400  21.722  0.00  0.00    -0.326 OA
ATOM     23  C   UNL     1      42.218  18.479  21.527  0.00  0.00    +0.248 C 
ENDBRANCH  21  22
BRANCH  24  25
ATOM     25  O   UNL     1      47.180  16.599  17.151  0.00  0.00    -0.302 OA
ATOM     26  C   UNL     1      48.568  16.857  17.370  0.00  0.00    +0.222 C 
ENDBRANCH  24  25
BRANCH  10   9
ATOM      9  O   UNL     1      46.736  14.111  18.197  0.00  0.00    -0.286 OA
BRANCH   9   8
ATOM      8  C   UNL     1      45.899  13.322  17.349  0.00  0.00    +0.177 C 
BRANCH   8   5
ATOM      5  C   UNL     1      46.763  12.369  16.522  0.00  0.00    +0.246 C 
BRANCH   5   2
ATOM      1  C   UNL     1      49.012  13.372  16.102  0.00  0.00    +0.031 C 
ATOM      2  C   UNL     1      47.607  13.174  15.531  0.00  0.00    +0.100 C 
ATOM     27  C   UNL     1      47.696  12.416  14.205  0.00  0.00    +0.015 C 
BRANCH   2   3
ATOM      3  O   UNL     1      46.997  14.448  15.312  0.00  0.00    -0.557 OA
ATOM      4  H   UNL     1      46.125  14.400  14.897  0.00  0.00    +0.384 HD
ENDBRANCH   2   3
ENDBRANCH   5   2
BRANCH   5   6
ATOM      6  O   UNL     1      45.922  11.462  15.805  0.00  0.00    -0.537 OA
ATOM      7  H   UNL     1      44.982  11.550  16.014  0.00  0.00    +0.374 HD
ENDBRANCH   5   6
ENDBRANCH   8   5
ENDBRANCH   9   8
ENDBRANCH  10   9
TORSDOF 8
ENDMDL
MODEL 4
REMARK VINA RESULT:      -5.5      1.879      7.308
REMARK  Name = ZINC00035526
REMARK  12 active torsions:
REMARK  status: ('A' for Active; 'I' for Inactive)
REMARK    1  A    between atoms: C1_1  and  C2_2
REMARK    2  A    between atoms: C2_2  and  C3_3
REMARK    3  A    between atoms: C2_2  and  C4_4
REMARK    4  A    between atoms: C2_2  and  O6_26
REMARK    5  A    between atoms: C4_4  and  C5_6
REMARK    6  A    between atoms: C4_4  and  O5_25
REMARK    7  A    between atoms: C5_6  and  O1_7
REMARK    8  A    between atoms: O1_7  and  C6_8
REMARK    9  A    between atoms: C11_13  and  O2_14
REMARK   10  A    between atoms: O2_14  and  C12_15
REMARK   11  A    between atoms: C15_19  and  O3_20
REMARK   12  A    between atoms: O3_20  and  C16_21
REMARK                            x       y       z     vdW  Elec       q    Type
REMARK                         _______ _______ _______ _____ _____    ______ ____
ROOT
ATOM     10  C   UNL     1      46.960  20.214  19.684  0.00  0.00    +0.144 A 
ATOM     11  C   UNL     1      48.041  21.100  19.649  0.00  0.00    -0.043 A 
ATOM     12  C   UNL     1      49.241  20.715  19.137  0.00  0.00    +0.102 A 
ATOM     13  C   UNL     1      49.404  19.412  18.636  0.00  0.00    -0.156 A 
ATOM     14  C   UNL     1      48.317  18.502  18.665  0.00  0.00    +0.207 A 
ATOM     15  N   UNL     1      48.458  17.260  18.192  0.00  0.00    -0.467 NA
ATOM     16  C   UNL     1      49.598  16.832  17.684  0.00  0.00    +0.322 A 
ATOM     17  C   UNL     1      50.723  17.685  17.622  0.00  0.00    -0.210 A 
ATOM     18  C   UNL     1      51.791  16.886  17.009  0.00  0.00    -0.028 A 
ATOM     19  C   UNL     1      51.261  15.683  16.761  0.00  0.00    +0.247 A 
ATOM     20  O   UNL     1      49.975  15.648  17.156  0.00  0.00    -0.191 OA
ATOM     21  C   UNL     1      50.638  18.990  18.100  0.00  0.00    +0.222 A 
ATOM     24  C   UNL     1      47.087  18.927  19.206  0.00  0.00    +0.064 A 
ENDROOT
BRANCH  21  22
ATOM     22  O   UNL     1      51.705  19.825  18.050  0.00  0.00    -0.326 OA
ATOM     23  C   UNL     1      51.929  20.516  16.820  0.00  0.00    +0.248 C 
ENDBRANCH  21  22
BRANCH  24  25
ATOM     25  O   UNL     1      46.029  18.073  19.251  0.00  0.00    -0.302 OA
ATOM     26  C   UNL     1      45.849  17.325  20.456  0.00  0.00    +0.222 C 
ENDBRANCH  24  25
BRANCH  10   9
ATOM      9  O   UNL     1      45.772  20.626  20.201  0.00  0.00    -0.286 OA
BRANCH   9   8
ATOM      8  C   UNL     1      45.011  21.551  19.422  0.00  0.00    +0.177 C 
BRANCH   8   5
ATOM      5  C   UNL     1      43.540  21.476  19.835  0.00  0.00    +0.246 C 
BRANCH   5   2
ATOM      1  C   UNL     1      42.556  19.222  20.273  0.00  0.00    +0.031 C 
ATOM      2  C   UNL     1      42.890  20.251  19.190  0.00  0.00    +0.100 C 
ATOM     27  C   UNL     1      41.605  20.673  18.474  0.00  0.00    +0.015 C 
BRANCH   2   3
ATOM      3  O   UNL     1      43.794  19.673  18.246  0.00  0.00    -0.557 OA
ATOM      4  H   UNL     1      44.724  19.737  18.503  0.00  0.00    +0.384 HD
ENDBRANCH   2   3
ENDBRANCH   5   2
BRANCH   5   6
ATOM      6  O   UNL     1      42.862  22.658  19.402  0.00  0.00    -0.537 OA
ATOM      7  H   UNL     1      42.954  23.408  20.007  0.00  0.00    +0.374 HD
ENDBRANCH   5   6
ENDBRANCH   8   5
ENDBRANCH   9   8
ENDBRANCH  10   9
TORSDOF 8
ENDMDL
MODEL 5
REMARK VINA RESULT:      -5.4      2.271      7.404
REMARK  Name = ZINC00035526
REMARK  12 active torsions:
REMARK  status: ('A' for Active; 'I' for Inactive)
REMARK    1  A    between atoms: C1_1  and  C2_2
REMARK    2  A    between atoms: C2_2  and  C3_3
REMARK    3  A    between atoms: C2_2  and  C4_4
REMARK    4  A    between atoms: C2_2  and  O6_26
REMARK    5  A    between atoms: C4_4  and  C5_6
REMARK    6  A    between atoms: C4_4  and  O5_25
REMARK    7  A    between atoms: C5_6  and  O1_7
REMARK    8  A    between atoms: O1_7  and  C6_8
REMARK    9  A    between atoms: C11_13  and  O2_14
REMARK   10  A    between atoms: O2_14  and  C12_15
REMARK   11  A    between atoms: C15_19  and  O3_20
REMARK   12  A    between atoms: O3_20  and  C16_21
REMARK                            x       y       z     vdW  Elec       q    Type
REMARK                         _______ _______ _______ _____ _____    ______ ____
ROOT
ATOM     10  C   UNL     1      46.680  18.974  20.831  0.00  0.00    +0.144 A 
ATOM     11  C   UNL     1      47.130  17.657  20.703  0.00  0.00    -0.043 A 
ATOM     12  C   UNL     1      48.254  17.371  19.993  0.00  0.00    +0.102 A 
ATOM     13  C   UNL     1      48.977  18.406  19.377  0.00  0.00    -0.156 A 
ATOM     14  C   UNL     1      48.534  19.748  19.498  0.00  0.00    +0.207 A 
ATOM     15  N   UNL     1      49.212  20.743  18.918  0.00  0.00    -0.467 NA
ATOM     16  C   UNL     1      50.310  20.524  18.218  0.00  0.00    +0.322 A 
ATOM     17  C   UNL     1      50.809  19.213  18.056  0.00  0.00    -0.210 A 
ATOM     18  C   UNL     1      52.019  19.349  17.235  0.00  0.00    -0.028 A 
ATOM     19  C   UNL     1      52.149  20.657  16.979  0.00  0.00    +0.247 A 
ATOM     20  O   UNL     1      51.148  21.348  17.553  0.00  0.00    -0.191 OA
ATOM     21  C   UNL     1      50.146  18.135  18.636  0.00  0.00    +0.222 A 
ATOM     24  C   UNL     1      47.363  20.015  20.235  0.00  0.00    +0.064 A 
ENDROOT
BRANCH  21  22
ATOM     22  O   UNL     1      50.609  16.869  18.494  0.00  0.00    -0.326 OA
ATOM     23  C   UNL     1      50.259  16.183  17.290  0.00  0.00    +0.248 C 
ENDBRANCH  21  22
BRANCH  24  25
ATOM     25  O   UNL     1      46.912  21.291  20.364  0.00  0.00    -0.302 OA
ATOM     26  C   UNL     1      47.373  22.032  21.496  0.00  0.00    +0.222 C 
ENDBRANCH  24  25
BRANCH  10   9
ATOM      9  O   UNL     1      45.554  19.232  21.547  0.00  0.00    -0.286 OA
BRANCH   9   8
ATOM      8  C   UNL     1      44.304  18.932  20.923  0.00  0.00    +0.177 C 
BRANCH   8   5
ATOM      5  C   UNL     1      43.481  20.214  20.786  0.00  0.00    +0.246 C 
BRANCH   5   2
ATOM      1  C   UNL     1      44.093  19.568  18.451  0.00  0.00    +0.031 C 
ATOM      2  C   UNL     1      43.472  20.662  19.323  0.00  0.00    +0.100 C 
ATOM     27  C   UNL     1      42.030  20.914  18.876  0.00  0.00    +0.015 C 
BRANCH   2   3
ATOM      3  O   UNL     1      44.231  21.866  19.189  0.00  0.00    -0.557 OA
ATOM      4  H   UNL     1      43.937  22.436  18.465  0.00  0.00    +0.384 HD
ENDBRANCH   2   3
ENDBRANCH   5   2
BRANCH   5   6
ATOM      6  O   UNL     1      44.059  21.241  21.594  0.00  0.00    -0.537 OA
ATOM      7  H   UNL     1      43.594  22.089  21.545  0.00  0.00    +0.374 HD
ENDBRANCH   5   6
ENDBRANCH   8   5
ENDBRANCH   9   8
ENDBRANCH  10   9
TORSDOF 8
ENDMDL
MODEL 6
REMARK VINA RESULT:      -5.3      1.971      7.915
REMARK  Name = ZINC00035526
REMARK  12 active torsions:
REMARK  status: ('A' for Active; 'I' for Inactive)
REMARK    1  A    between atoms: C1_1  and  C2_2
REMARK    2  A    between atoms: C2_2  and  C3_3
REMARK    3  A    between atoms: C2_2  and  C4_4
REMARK    4  A    between atoms: C2_2  and  O6_26
REMARK    5  A    between atoms: C4_4  and  C5_6
REMARK    6  A    between atoms: C4_4  and  O5_25
REMARK    7  A    between atoms: C5_6  and  O1_7
REMARK    8  A    between atoms: O1_7  and  C6_8
REMARK    9  A    between atoms: C11_13  and  O2_14
REMARK   10  A    between atoms: O2_14  and  C12_15
REMARK   11  A    between atoms: C15_19  and  O3_20
REMARK   12  A    between atoms: O3_20  and  C16_21
REMARK                            x       y       z     vdW  Elec       q    Type
REMARK                         _______ _______ _______ _____ _____    ______ ____
ROOT
ATOM     10  C   UNL     1      45.684  19.062  19.206  0.00  0.00    +0.144 A 
ATOM     11  C   UNL     1      45.891  17.833  18.575  0.00  0.00    -0.043 A 
ATOM     12  C   UNL     1      47.121  17.485  18.110  0.00  0.00    +0.102 A 
ATOM     13  C   UNL     1      48.203  18.369  18.263  0.00  0.00    -0.156 A 
ATOM     14  C   UNL     1      48.009  19.621  18.901  0.00  0.00    +0.207 A 
ATOM     15  N   UNL     1      49.030  20.471  19.053  0.00  0.00    -0.467 NA
ATOM     16  C   UNL     1      50.245  20.187  18.624  0.00  0.00    +0.322 A 
ATOM     17  C   UNL     1      50.510  18.958  17.979  0.00  0.00    -0.210 A 
ATOM     18  C   UNL     1      51.940  18.988  17.645  0.00  0.00    -0.028 A 
ATOM     19  C   UNL     1      52.401  20.165  18.087  0.00  0.00    +0.247 A 
ATOM     20  O   UNL     1      51.409  20.870  18.661  0.00  0.00    -0.191 OA
ATOM     21  C   UNL     1      49.488  18.032  17.791  0.00  0.00    +0.222 A 
ATOM     24  C   UNL     1      46.723  19.956  19.368  0.00  0.00    +0.064 A 
ENDROOT
BRANCH  21  22
ATOM     22  O   UNL     1      49.722  16.847  17.176  0.00  0.00    -0.326 OA
ATOM     23  C   UNL     1      50.238  15.788  17.984  0.00  0.00    +0.248 C 
ENDBRANCH  21  22
BRANCH  24  25
ATOM     25  O   UNL     1      46.507  21.152  19.979  0.00  0.00    -0.302 OA
ATOM     26  C   UNL     1      46.610  21.179  21.405  0.00  0.00    +0.222 C 
ENDBRANCH  24  25
BRANCH  10   9
ATOM      9  O   UNL     1      44.444  19.383  19.661  0.00  0.00    -0.286 OA
BRANCH   9   8
ATOM      8  C   UNL     1      43.527  19.935  18.714  0.00  0.00    +0.177 C 
BRANCH   8   5
ATOM      5  C   UNL     1      42.680  21.013  19.393  0.00  0.00    +0.246 C 
BRANCH   5   2
ATOM      1  C   UNL     1      40.672  22.134  18.415  0.00  0.00    +0.031 C 
ATOM      2  C   UNL     1      41.212  20.828  19.002  0.00  0.00    +0.100 C 
ATOM     27  C   UNL     1      41.098  19.715  17.959  0.00  0.00    +0.015 C 
BRANCH   2   3
ATOM      3  O   UNL     1      40.452  20.476  20.160  0.00  0.00    -0.557 OA
ATOM      4  H   UNL     1      39.632  20.980  20.260  0.00  0.00    +0.384 HD
ENDBRANCH   2   3
ENDBRANCH   5   2
BRANCH   5   6
ATOM      6  O   UNL     1      43.125  22.304  18.974  0.00  0.00    -0.537 OA
ATOM      7  H   UNL     1      43.724  22.735  19.600  0.00  0.00    +0.374 HD
ENDBRANCH   5   6
ENDBRANCH   8   5
ENDBRANCH   9   8
ENDBRANCH  10   9
TORSDOF 8
ENDMDL
MODEL 7
REMARK VINA RESULT:      -5.3      2.385      7.261
REMARK  Name = ZINC00035526
REMARK  12 active torsions:
REMARK  status: ('A' for Active; 'I' for Inactive)
REMARK    1  A    between atoms: C1_1  and  C2_2
REMARK    2  A    between atoms: C2_2  and  C3_3
REMARK    3  A    between atoms: C2_2  and  C4_4
REMARK    4  A    between atoms: C2_2  and  O6_26
REMARK    5  A    between atoms: C4_4  and  C5_6
REMARK    6  A    between atoms: C4_4  and  O5_25
REMARK    7  A    between atoms: C5_6  and  O1_7
REMARK    8  A    between atoms: O1_7  and  C6_8
REMARK    9  A    between atoms: C11_13  and  O2_14
REMARK   10  A    between atoms: O2_14  and  C12_15
REMARK   11  A    between atoms: C15_19  and  O3_20
REMARK   12  A    between atoms: O3_20  and  C16_21
REMARK                            x       y       z     vdW  Elec       q    Type
REMARK                         _______ _______ _______ _____ _____    ______ ____
ROOT
ATOM     10  C   UNL     1      46.081  19.286  19.624  0.00  0.00    +0.144 A 
ATOM     11  C   UNL     1      47.351  19.699  19.213  0.00  0.00    -0.043 A 
ATOM     12  C   UNL     1      48.166  18.858  18.520  0.00  0.00    +0.102 A 
ATOM     13  C   UNL     1      47.733  17.558  18.211  0.00  0.00    -0.156 A 
ATOM     14  C   UNL     1      46.446  17.125  18.621  0.00  0.00    +0.207 A 
ATOM     15  N   UNL     1      46.021  15.891  18.334  0.00  0.00    -0.467 NA
ATOM     16  C   UNL     1      46.767  15.034  17.664  0.00  0.00    +0.322 A 
ATOM     17  C   UNL     1      48.059  15.397  17.223  0.00  0.00    -0.210 A 
ATOM     18  C   UNL     1      48.586  14.216  16.527  0.00  0.00    -0.028 A 
ATOM     19  C   UNL     1      47.628  13.284  16.597  0.00  0.00    +0.247 A 
ATOM     20  O   UNL     1      46.560  13.761  17.263  0.00  0.00    -0.191 OA
ATOM     21  C   UNL     1      48.558  16.668  17.493  0.00  0.00    +0.222 A 
ATOM     24  C   UNL     1      45.625  18.015  19.342  0.00  0.00    +0.064 A 
ENDROOT
BRANCH  21  22
ATOM     22  O   UNL     1      49.795  17.038  17.078  0.00  0.00    -0.326 OA
ATOM     23  C   UNL     1      50.899  16.614  17.880  0.00  0.00    +0.248 C 
ENDBRANCH  21  22
BRANCH  24  25
ATOM     25  O   UNL     1      44.389  17.625  19.753  0.00  0.00    -0.302 OA
ATOM     26  C   UNL     1      44.294  17.021  21.045  0.00  0.00    +0.222 C 
ENDBRANCH  24  25
BRANCH  10   9
ATOM      9  O   UNL     1      45.287  20.147  20.314  0.00  0.00    -0.286 OA
BRANCH   9   8
ATOM      8  C   UNL     1      44.782  21.278  19.602  0.00  0.00    +0.177 C 
BRANCH   8   5
ATOM      5  C   UNL     1      43.354  21.577  20.065  0.00  0.00    +0.246 C 
BRANCH   5   2
ATOM      1  C   UNL     1      41.729  19.680  20.136  0.00  0.00    +0.031 C 
ATOM      2  C   UNL     1      42.367  20.746  19.242  0.00  0.00    +0.100 C 
ATOM     27  C   UNL     1      41.277  21.661  18.680  0.00  0.00    +0.015 C 
BRANCH   2   3
ATOM      3  O   UNL     1      43.061  20.112  18.165  0.00  0.00    -0.557 OA
ATOM      4  H   UNL     1      43.942  20.472  17.998  0.00  0.00    +0.384 HD
ENDBRANCH   2   3
ENDBRANCH   5   2
BRANCH   5   6
ATOM      6  O   UNL     1      43.074  22.966  19.883  0.00  0.00    -0.537 OA
ATOM      7  H   UNL     1      42.164  23.151  19.612  0.00  0.00    +0.374 HD
ENDBRANCH   5   6
ENDBRANCH   8   5
ENDBRANCH   9   8
ENDBRANCH  10   9
TORSDOF 8
ENDMDL
MODEL 8
REMARK VINA RESULT:      -5.2      4.686      7.965
REMARK  Name = ZINC00035526
REMARK  12 active torsions:
REMARK  status: ('A' for Active; 'I' for Inactive)
REMARK    1  A    between atoms: C1_1  and  C2_2
REMARK    2  A    between atoms: C2_2  and  C3_3
REMARK    3  A    between atoms: C2_2  and  C4_4
REMARK    4  A    between atoms: C2_2  and  O6_26
REMARK    5  A    between atoms: C4_4  and  C5_6
REMARK    6  A    between atoms: C4_4  and  O5_25
REMARK    7  A    between atoms: C5_6  and  O1_7
REMARK    8  A    between atoms: O1_7  and  C6_8
REMARK    9  A    between atoms: C11_13  and  O2_14
REMARK   10  A    between atoms: O2_14  and  C12_15
REMARK   11  A    between atoms: C15_19  and  O3_20
REMARK   12  A    between atoms: O3_20  and  C16_21
REMARK                            x       y       z     vdW  Elec       q    Type
REMARK                         _______ _______ _______ _____ _____    ______ ____
ROOT
ATOM     10  C   UNL     1      50.137  16.117  17.408  0.00  0.00    +0.144 A 
ATOM     11  C   UNL     1      51.203  15.413  16.840  0.00  0.00    -0.043 A 
ATOM     12  C   UNL     1      51.012  14.184  16.291  0.00  0.00    +0.102 A 
ATOM     13  C   UNL     1      49.730  13.607  16.290  0.00  0.00    -0.156 A 
ATOM     14  C   UNL     1      48.639  14.310  16.862  0.00  0.00    +0.207 A 
ATOM     15  N   UNL     1      47.415  13.773  16.868  0.00  0.00    -0.467 NA
ATOM     16  C   UNL     1      47.170  12.585  16.349  0.00  0.00    +0.322 A 
ATOM     17  C   UNL     1      48.210  11.830  15.762  0.00  0.00    -0.210 A 
ATOM     18  C   UNL     1      47.582  10.586  15.298  0.00  0.00    -0.028 A 
ATOM     19  C   UNL     1      46.286  10.680  15.622  0.00  0.00    +0.247 A 
ATOM     20  O   UNL     1      46.042  11.851  16.239  0.00  0.00    -0.191 OA
ATOM     21  C   UNL     1      49.507  12.335  15.726  0.00  0.00    +0.222 A 
ATOM     24  C   UNL     1      48.867  15.579  17.429  0.00  0.00    +0.064 A 
ENDROOT
BRANCH  21  22
ATOM     22  O   UNL     1      50.519  11.627  15.167  0.00  0.00    -0.326 OA
ATOM     23  C   UNL     1      50.659  11.709  13.747  0.00  0.00    +0.248 C 
ENDBRANCH  21  22
BRANCH  24  25
ATOM     25  O   UNL     1      47.840  16.273  17.989  0.00  0.00    -0.302 OA
ATOM     26  C   UNL     1      47.023  17.047  17.108  0.00  0.00    +0.222 C 
ENDBRANCH  24  25
BRANCH  10   9
ATOM      9  O   UNL     1      50.356  17.344  17.949  0.00  0.00    -0.286 OA
BRANCH   9   8
ATOM      8  C   UNL     1      50.444  18.448  17.045  0.00  0.00    +0.177 C 
BRANCH   8   5
ATOM      5  C   UNL     1      51.812  19.117  17.189  0.00  0.00    +0.246 C 
BRANCH   5   2
ATOM      1  C   UNL     1      51.497  21.393  16.206  0.00  0.00    +0.031 C 
ATOM      2  C   UNL     1      51.623  20.601  17.510  0.00  0.00    +0.100 C 
ATOM     27  C   UNL     1      50.353  20.784  18.343  0.00  0.00    +0.015 C 
BRANCH   2   3
ATOM      3  O   UNL     1      52.751  21.076  18.248  0.00  0.00    -0.557 OA
ATOM      4  H   UNL     1      53.113  20.430  18.871  0.00  0.00    +0.384 HD
ENDBRANCH   2   3
ENDBRANCH   5   2
BRANCH   5   6
ATOM      6  O   UNL     1      52.540  18.983  15.966  0.00  0.00    -0.537 OA
ATOM      7  H   UNL     1      52.017  19.175  15.175  0.00  0.00    +0.374 HD
ENDBRANCH   5   6
ENDBRANCH   8   5
ENDBRANCH   9   8
ENDBRANCH  10   9
TORSDOF 8
ENDMDL
MODEL 9
REMARK VINA RESULT:      -5.2      4.177      5.543
REMARK  Name = ZINC00035526
REMARK  12 active torsions:
REMARK  status: ('A' for Active; 'I' for Inactive)
REMARK    1  A    between atoms: C1_1  and  C2_2
REMARK    2  A    between atoms: C2_2  and  C3_3
REMARK    3  A    between atoms: C2_2  and  C4_4
REMARK    4  A    between atoms: C2_2  and  O6_26
REMARK    5  A    between atoms: C4_4  and  C5_6
REMARK    6  A    between atoms: C4_4  and  O5_25
REMARK    7  A    between atoms: C5_6  and  O1_7
REMARK    8  A    between atoms: O1_7  and  C6_8
REMARK    9  A    between atoms: C11_13  and  O2_14
REMARK   10  A    between atoms: O2_14  and  C12_15
REMARK   11  A    between atoms: C15_19  and  O3_20
REMARK   12  A    between atoms: O3_20  and  C16_21
REMARK                            x       y       z     vdW  Elec       q    Type
REMARK                         _______ _______ _______ _____ _____    ______ ____
ROOT
ATOM     10  C   UNL     1      46.763  14.827  17.736  0.00  0.00    +0.144 A 
ATOM     11  C   UNL     1      46.877  15.997  16.978  0.00  0.00    -0.043 A 
ATOM     12  C   UNL     1      46.324  17.162  17.409  0.00  0.00    +0.102 A 
ATOM     13  C   UNL     1      45.628  17.200  18.629  0.00  0.00    -0.156 A 
ATOM     14  C   UNL     1      45.504  16.021  19.409  0.00  0.00    +0.207 A 
ATOM     15  N   UNL     1      44.845  16.043  20.571  0.00  0.00    -0.467 NA
ATOM     16  C   UNL     1      44.289  17.145  21.039  0.00  0.00    +0.322 A 
ATOM     17  C   UNL     1      44.373  18.355  20.315  0.00  0.00    -0.210 A 
ATOM     18  C   UNL     1      43.655  19.349  21.123  0.00  0.00    -0.028 A 
ATOM     19  C   UNL     1      43.218  18.700  22.209  0.00  0.00    +0.247 A 
ATOM     20  O   UNL     1      43.587  17.408  22.162  0.00  0.00    -0.191 OA
ATOM     21  C   UNL     1      45.047  18.396  19.097  0.00  0.00    +0.222 A 
ATOM     24  C   UNL     1      46.082  14.827  18.935  0.00  0.00    +0.064 A 
ENDROOT
BRANCH  21  22
ATOM     22  O   UNL     1      45.140  19.547  18.387  0.00  0.00    -0.326 OA
ATOM     23  C   UNL     1      46.172  20.459  18.766  0.00  0.00    +0.248 C 
ENDBRANCH  21  22
BRANCH  24  25
ATOM     25  O   UNL     1      45.975  13.681  19.660  0.00  0.00    -0.302 OA
ATOM     26  C   UNL     1      46.999  13.424  20.623  0.00  0.00    +0.222 C 
ENDBRANCH  24  25
BRANCH  10   9
ATOM      9  O   UNL     1      47.326  13.677  17.282  0.00  0.00    -0.286 OA
BRANCH   9   8
ATOM      8  C   UNL     1      48.327  13.798  16.269  0.00  0.00    +0.177 C 
BRANCH   8   5
ATOM      5  C   UNL     1      47.987  12.872  15.101  0.00  0.00    +0.246 C 
BRANCH   5   2
ATOM      1  C   UNL     1      50.482  12.987  15.161  0.00  0.00    +0.031 C 
ATOM      2  C   UNL     1      49.278  12.318  14.496  0.00  0.00    +0.100 C 
ATOM     27  C   UNL     1      49.341  10.806  14.728  0.00  0.00    +0.015 C 
BRANCH   2   3
ATOM      3  O   UNL     1      49.299  12.586  13.092  0.00  0.00    -0.557 OA
ATOM      4  H   UNL     1      48.732  13.322  12.823  0.00  0.00    +0.384 HD
ENDBRANCH   2   3
ENDBRANCH   5   2
BRANCH   5   6
ATOM      6  O   UNL     1      47.270  13.604  14.104  0.00  0.00    -0.537 OA
ATOM      7  H   UNL     1      46.369  13.843  14.364  0.00  0.00    +0.374 HD
ENDBRANCH   5   6
ENDBRANCH   8   5
ENDBRANCH   9   8
ENDBRANCH  10   9
TORSDOF 8
ENDMDL
