MODEL 1
REMARK VINA RESULT:      -7.3      0.000      0.000
REMARK  Name = ZINC95486002
REMARK  10 active torsions:
REMARK  status: ('A' for Active; 'I' for Inactive)
REMARK    1  A    between atoms: C1_1  and  C2_2
REMARK    2  A    between atoms: C3_3  and  O4_35
REMARK    3  A    between atoms: C11_12  and  C30_34
REMARK    4  A    between atoms: C14_15  and  C29_33
REMARK    5  A    between atoms: C15_16  and  C28_32
REMARK    6  A    between atoms: C18_19  and  C27_31
REMARK    7  A    between atoms: C21_23  and  C24_26
REMARK    8  A    between atoms: C21_23  and  C25_27
REMARK    9  A    between atoms: C25_27  and  O3_29
REMARK   10  A    between atoms: O3_29  and  C26_30
REMARK                            x       y       z     vdW  Elec       q    Type
REMARK                         _______ _______ _______ _____ _____    ______ ____
ROOT
ATOM      1  C   UNL     1      40.606  18.578  20.950  0.00  0.00    +0.107 C 
ATOM      2  C   UNL     1      41.464  19.658  20.343  0.00  0.00    -0.070 C 
ATOM      3  C   UNL     1      40.873  20.603  19.562  0.00  0.00    +0.010 C 
ATOM      6  C   UNL     1      41.655  21.632  18.987  0.00  0.00    +0.380 C 
ATOM      7  C   UNL     1      43.030  21.716  19.281  0.00  0.00    -0.110 C 
ATOM      8  C   UNL     1      43.623  20.776  20.063  0.00  0.00    +0.025 C 
ATOM      9  C   UNL     1      45.085  20.935  20.400  0.00  0.00    +0.002 C 
ATOM     10  C   UNL     1      45.139  22.064  21.435  0.00  0.00    +0.069 C 
ATOM     11  C   UNL     1      45.848  21.383  19.158  0.00  0.00    +0.045 C 
ATOM     12  C   UNL     1      47.360  21.277  19.330  0.00  0.00    +0.027 C 
ATOM     13  C   UNL     1      47.772  19.854  19.729  0.00  0.00    -0.027 C 
ATOM     14  C   UNL     1      47.162  18.908  18.687  0.00  0.00    +0.026 C 
ATOM     15  C   UNL     1      47.172  19.547  21.107  0.00  0.00    -0.014 C 
ATOM     16  C   UNL     1      47.706  20.511  22.170  0.00  0.00    +0.046 C 
ATOM     17  C   UNL     1      47.567  18.129  21.518  0.00  0.00    +0.027 C 
ATOM     18  C   UNL     1      49.087  18.030  21.647  0.00  0.00    +0.023 C 
ATOM     19  C   UNL     1      49.786  18.400  20.340  0.00  0.00    -0.048 C 
ATOM     20  C   UNL     1      49.667  17.234  19.360  0.00  0.00    +0.025 C 
ATOM     21  C   UNL     1      51.286  18.607  20.636  0.00  0.00    +0.028 C 
ATOM     22  C   UNL     1      52.039  18.922  19.351  0.00  0.00    +0.032 C 
ATOM     23  C   UNL     1      51.456  20.101  18.585  0.00  0.00    -0.034 C 
ATOM     28  C   UNL     1      51.824  21.415  19.283  0.00  0.00    +0.061 C 
ATOM     29  C   UNL     1      49.939  20.001  18.429  0.00  0.00    +0.054 C 
ATOM     30  C   UNL     1      49.279  19.719  19.776  0.00  0.00    +0.015 C 
ATOM     31  C   UNL     1      45.670  19.679  20.979  0.00  0.00    -0.001 C 
ATOM     32  C   UNL     1      44.898  18.664  21.387  0.00  0.00    -0.051 C 
ATOM     33  C   UNL     1      43.504  18.665  21.252  0.00  0.00    +0.151 C 
ATOM     34  O   UNL     1      41.139  22.453  18.243  0.00  0.00    -0.489 OA
ATOM     35  C   UNL     1      42.862  19.692  20.559  0.00  0.00    -0.106 C 
ENDROOT
BRANCH   3   4
ATOM      4  O   UNL     1      39.533  20.555  19.336  0.00  0.00    -0.464 OA
ATOM      5  H   UNL     1      39.192  19.663  19.180  0.00  0.00    +0.402 HD
ENDBRANCH   3   4
BRANCH  23  24
ATOM     24  C   UNL     1      52.071  20.121  17.197  0.00  0.00    +0.460 C 
ATOM     27  O   UNL     1      52.101  21.149  16.565  0.00  0.00    -0.503 OA
BRANCH  24  25
ATOM     25  O   UNL     1      52.579  18.994  16.673  0.00  0.00    -0.351 OA
ATOM     26  C   UNL     1      51.779  18.311  15.705  0.00  0.00    +0.254 C 
ENDBRANCH  24  25
ENDBRANCH  23  24
TORSDOF 3
ENDMDL
MODEL 2
REMARK VINA RESULT:      -7.2      4.020      8.702
REMARK  Name = ZINC95486002
REMARK  10 active torsions:
REMARK  status: ('A' for Active; 'I' for Inactive)
REMARK    1  A    between atoms: C1_1  and  C2_2
REMARK    2  A    between atoms: C3_3  and  O4_35
REMARK    3  A    between atoms: C11_12  and  C30_34
REMARK    4  A    between atoms: C14_15  and  C29_33
REMARK    5  A    between atoms: C15_16  and  C28_32
REMARK    6  A    between atoms: C18_19  and  C27_31
REMARK    7  A    between atoms: C21_23  and  C24_26
REMARK    8  A    between atoms: C21_23  and  C25_27
REMARK    9  A    between atoms: C25_27  and  O3_29
REMARK   10  A    between atoms: O3_29  and  C26_30
REMARK                            x       y       z     vdW  Elec       q    Type
REMARK                         _______ _______ _______ _____ _____    ______ ____
ROOT
ATOM      1  C   UNL     1      51.218  13.275  14.789  0.00  0.00    +0.107 C 
ATOM      2  C   UNL     1      49.873  13.005  15.414  0.00  0.00    -0.070 C 
ATOM      3  C   UNL     1      49.132  11.963  14.949  0.00  0.00    +0.010 C 
ATOM      6  C   UNL     1      47.870  11.683  15.523  0.00  0.00    +0.380 C 
ATOM      7  C   UNL     1      47.416  12.441  16.620  0.00  0.00    -0.110 C 
ATOM      8  C   UNL     1      48.154  13.481  17.089  0.00  0.00    +0.025 C 
ATOM      9  C   UNL     1      47.659  14.230  18.302  0.00  0.00    +0.002 C 
ATOM     10  C   UNL     1      47.923  13.295  19.487  0.00  0.00    +0.069 C 
ATOM     11  C   UNL     1      46.154  14.447  18.186  0.00  0.00    +0.045 C 
ATOM     12  C   UNL     1      45.626  15.447  19.209  0.00  0.00    +0.027 C 
ATOM     13  C   UNL     1      46.371  16.784  19.108  0.00  0.00    -0.027 C 
ATOM     14  C   UNL     1      46.280  17.234  17.645  0.00  0.00    +0.026 C 
ATOM     15  C   UNL     1      47.841  16.547  19.476  0.00  0.00    -0.014 C 
ATOM     16  C   UNL     1      47.976  16.035  20.913  0.00  0.00    +0.046 C 
ATOM     17  C   UNL     1      48.602  17.869  19.375  0.00  0.00    +0.027 C 
ATOM     18  C   UNL     1      48.034  18.872  20.379  0.00  0.00    +0.023 C 
ATOM     19  C   UNL     1      46.544  19.116  20.147  0.00  0.00    -0.048 C 
ATOM     20  C   UNL     1      46.369  20.034  18.939  0.00  0.00    +0.025 C 
ATOM     21  C   UNL     1      45.978  19.854  21.378  0.00  0.00    +0.028 C 
ATOM     22  C   UNL     1      44.504  20.173  21.171  0.00  0.00    +0.032 C 
ATOM     23  C   UNL     1      43.667  18.951  20.821  0.00  0.00    -0.034 C 
ATOM     28  C   UNL     1      43.445  18.092  22.071  0.00  0.00    +0.061 C 
ATOM     29  C   UNL     1      44.300  18.107  19.716  0.00  0.00    +0.054 C 
ATOM     30  C   UNL     1      45.763  17.815  20.037  0.00  0.00    +0.015 C 
ATOM     31  C   UNL     1      48.386  15.528  18.499  0.00  0.00    -0.001 C 
ATOM     32  C   UNL     1      49.510  15.816  17.830  0.00  0.00    -0.051 C 
ATOM     33  C   UNL     1      50.057  14.967  16.858  0.00  0.00    +0.151 C 
ATOM     34  O   UNL     1      47.178  10.781  15.076  0.00  0.00    -0.489 OA
ATOM     35  C   UNL     1      49.371  13.822  16.454  0.00  0.00    -0.106 C 
ENDROOT
BRANCH   3   4
ATOM      4  O   UNL     1      49.607  11.193  13.933  0.00  0.00    -0.464 OA
ATOM      5  H   UNL     1      49.070  10.410  13.748  0.00  0.00    +0.402 HD
ENDBRANCH   3   4
BRANCH  23  24
ATOM     24  C   UNL     1      42.310  19.424  20.332  0.00  0.00    +0.460 C 
ATOM     27  O   UNL     1      41.303  18.900  20.745  0.00  0.00    -0.503 OA
BRANCH  24  25
ATOM     25  O   UNL     1      42.230  20.425  19.441  0.00  0.00    -0.351 OA
ATOM     26  C   UNL     1      41.255  20.293  18.404  0.00  0.00    +0.254 C 
ENDBRANCH  24  25
ENDBRANCH  23  24
TORSDOF 3
ENDMDL
MODEL 3
REMARK VINA RESULT:      -6.8      4.565      6.136
REMARK  Name = ZINC95486002
REMARK  10 active torsions:
REMARK  status: ('A' for Active; 'I' for Inactive)
REMARK    1  A    between atoms: C1_1  and  C2_2
REMARK    2  A    between atoms: C3_3  and  O4_35
REMARK    3  A    between atoms: C11_12  and  C30_34
REMARK    4  A    between atoms: C14_15  and  C29_33
REMARK    5  A    between atoms: C15_16  and  C28_32
REMARK    6  A    between atoms: C18_19  and  C27_31
REMARK    7  A    between atoms: C21_23  and  C24_26
REMARK    8  A    between atoms: C21_23  and  C25_27
REMARK    9  A    between atoms: C25_27  and  O3_29
REMARK   10  A    between atoms: O3_29  and  C26_30
REMARK                            x       y       z     vdW  Elec       q    Type
REMARK                         _______ _______ _______ _____ _____    ______ ____
ROOT
ATOM      1  C   UNL     1      42.896  18.760  20.893  0.00  0.00    +0.107 C 
ATOM      2  C   UNL     1      44.172  18.960  20.116  0.00  0.00    -0.070 C 
ATOM      3  C   UNL     1      44.456  20.197  19.628  0.00  0.00    +0.010 C 
ATOM      6  C   UNL     1      45.651  20.413  18.902  0.00  0.00    +0.380 C 
ATOM      7  C   UNL     1      46.576  19.362  18.747  0.00  0.00    -0.110 C 
ATOM      8  C   UNL     1      46.297  18.125  19.236  0.00  0.00    +0.025 C 
ATOM      9  C   UNL     1      47.340  17.043  19.099  0.00  0.00    +0.002 C 
ATOM     10  C   UNL     1      48.416  17.388  20.133  0.00  0.00    +0.069 C 
ATOM     11  C   UNL     1      47.967  17.113  17.710  0.00  0.00    +0.045 C 
ATOM     12  C   UNL     1      48.806  15.882  17.384  0.00  0.00    +0.027 C 
ATOM     13  C   UNL     1      47.982  14.597  17.536  0.00  0.00    -0.027 C 
ATOM     14  C   UNL     1      46.720  14.776  16.683  0.00  0.00    +0.026 C 
ATOM     15  C   UNL     1      47.583  14.451  19.010  0.00  0.00    -0.014 C 
ATOM     16  C   UNL     1      48.817  14.333  19.908  0.00  0.00    +0.046 C 
ATOM     17  C   UNL     1      46.755  13.178  19.180  0.00  0.00    +0.027 C 
ATOM     18  C   UNL     1      47.598  11.958  18.811  0.00  0.00    +0.023 C 
ATOM     19  C   UNL     1      48.116  12.047  17.376  0.00  0.00    -0.048 C 
ATOM     20  C   UNL     1      46.980  11.712  16.412  0.00  0.00    +0.025 C 
ATOM     21  C   UNL     1      49.212  10.978  17.191  0.00  0.00    +0.028 C 
ATOM     22  C   UNL     1      49.722  10.988  15.757  0.00  0.00    +0.032 C 
ATOM     23  C   UNL     1      50.197  12.358  15.295  0.00  0.00    -0.034 C 
ATOM     28  C   UNL     1      51.557  12.681  15.924  0.00  0.00    +0.061 C 
ATOM     29  C   UNL     1      49.196  13.463  15.626  0.00  0.00    +0.054 C 
ATOM     30  C   UNL     1      48.777  13.387  17.091  0.00  0.00    +0.015 C 
ATOM     31  C   UNL     1      46.778  15.679  19.377  0.00  0.00    -0.001 C 
ATOM     32  C   UNL     1      45.575  15.514  19.943  0.00  0.00    -0.051 C 
ATOM     33  C   UNL     1      44.729  16.584  20.260  0.00  0.00    +0.151 C 
ATOM     34  O   UNL     1      45.886  21.510  18.418  0.00  0.00    -0.489 OA
ATOM     35  C   UNL     1      45.060  17.884  19.877  0.00  0.00    -0.106 C 
ENDROOT
BRANCH   3   4
ATOM      4  O   UNL     1      43.589  21.224  19.839  0.00  0.00    -0.464 OA
ATOM      5  H   UNL     1      43.175  21.216  20.713  0.00  0.00    +0.402 HD
ENDBRANCH   3   4
BRANCH  23  24
ATOM     24  C   UNL     1      50.376  12.320  13.788  0.00  0.00    +0.460 C 
ATOM     27  O   UNL     1      51.172  11.557  13.294  0.00  0.00    -0.503 OA
BRANCH  24  25
ATOM     25  O   UNL     1      49.651  13.134  13.006  0.00  0.00    -0.351 OA
ATOM     26  C   UNL     1      50.096  13.304  11.658  0.00  0.00    +0.254 C 
ENDBRANCH  24  25
ENDBRANCH  23  24
TORSDOF 3
ENDMDL
MODEL 4
REMARK VINA RESULT:      -6.5      2.616      3.806
REMARK  Name = ZINC95486002
REMARK  10 active torsions:
REMARK  status: ('A' for Active; 'I' for Inactive)
REMARK    1  A    between atoms: C1_1  and  C2_2
REMARK    2  A    between atoms: C3_3  and  O4_35
REMARK    3  A    between atoms: C11_12  and  C30_34
REMARK    4  A    between atoms: C14_15  and  C29_33
REMARK    5  A    between atoms: C15_16  and  C28_32
REMARK    6  A    between atoms: C18_19  and  C27_31
REMARK    7  A    between atoms: C21_23  and  C24_26
REMARK    8  A    between atoms: C21_23  and  C25_27
REMARK    9  A    between atoms: C25_27  and  O3_29
REMARK   10  A    between atoms: O3_29  and  C26_30
REMARK                            x       y       z     vdW  Elec       q    Type
REMARK                         _______ _______ _______ _____ _____    ______ ____
ROOT
ATOM      1  C   UNL     1      41.204  21.668  18.873  0.00  0.00    +0.107 C 
ATOM      2  C   UNL     1      42.636  21.850  19.304  0.00  0.00    -0.070 C 
ATOM      3  C   UNL     1      43.184  23.095  19.250  0.00  0.00    +0.010 C 
ATOM      6  C   UNL     1      44.524  23.293  19.656  0.00  0.00    +0.380 C 
ATOM      7  C   UNL     1      45.265  22.216  20.179  0.00  0.00    -0.110 C 
ATOM      8  C   UNL     1      44.721  20.972  20.237  0.00  0.00    +0.025 C 
ATOM      9  C   UNL     1      45.528  19.858  20.858  0.00  0.00    +0.002 C 
ATOM     10  C   UNL     1      45.486  20.124  22.366  0.00  0.00    +0.069 C 
ATOM     11  C   UNL     1      46.977  19.958  20.391  0.00  0.00    +0.045 C 
ATOM     12  C   UNL     1      47.787  18.710  20.726  0.00  0.00    +0.027 C 
ATOM     13  C   UNL     1      47.124  17.452  20.152  0.00  0.00    -0.027 C 
ATOM     14  C   UNL     1      46.904  17.709  18.656  0.00  0.00    +0.026 C 
ATOM     15  C   UNL     1      45.766  17.265  20.841  0.00  0.00    -0.014 C 
ATOM     16  C   UNL     1      45.934  17.067  22.349  0.00  0.00    +0.046 C 
ATOM     17  C   UNL     1      45.087  16.018  20.276  0.00  0.00    +0.027 C 
ATOM     18  C   UNL     1      45.932  14.782  20.586  0.00  0.00    +0.023 C 
ATOM     19  C   UNL     1      47.341  14.907  20.008  0.00  0.00    -0.048 C 
ATOM     20  C   UNL     1      47.290  14.651  18.503  0.00  0.00    +0.025 C 
ATOM     21  C   UNL     1      48.220  13.806  20.637  0.00  0.00    +0.028 C 
ATOM     22  C   UNL     1      49.623  13.851  20.050  0.00  0.00    +0.032 C 
ATOM     23  C   UNL     1      50.280  15.220  20.163  0.00  0.00    -0.034 C 
ATOM     28  C   UNL     1      50.729  15.469  21.607  0.00  0.00    +0.061 C 
ATOM     29  C   UNL     1      49.357  16.348  19.704  0.00  0.00    +0.054 C 
ATOM     30  C   UNL     1      47.993  16.232  20.375  0.00  0.00    +0.015 C 
ATOM     31  C   UNL     1      44.948  18.507  20.558  0.00  0.00    -0.001 C 
ATOM     32  C   UNL     1      43.721  18.364  20.041  0.00  0.00    -0.051 C 
ATOM     33  C   UNL     1      42.913  19.452  19.685  0.00  0.00    +0.151 C 
ATOM     34  O   UNL     1      45.037  24.399  19.562  0.00  0.00    -0.489 OA
ATOM     35  C   UNL     1      43.415  20.753  19.742  0.00  0.00    -0.106 C 
ENDROOT
BRANCH   3   4
ATOM      4  O   UNL     1      42.441  24.144  18.807  0.00  0.00    -0.464 OA
ATOM      5  H   UNL     1      42.557  24.954  19.322  0.00  0.00    +0.402 HD
ENDBRANCH   3   4
BRANCH  23  24
ATOM     24  C   UNL     1      51.514  15.233  19.280  0.00  0.00    +0.460 C 
ATOM     27  O   UNL     1      51.430  14.910  18.119  0.00  0.00    -0.503 OA
BRANCH  24  25
ATOM     25  O   UNL     1      52.700  15.601  19.790  0.00  0.00    -0.351 OA
ATOM     26  C   UNL     1      53.332  16.742  19.204  0.00  0.00    +0.254 C 
ENDBRANCH  24  25
ENDBRANCH  23  24
TORSDOF 3
ENDMDL
MODEL 5
REMARK VINA RESULT:      -6.3      3.836      8.216
REMARK  Name = ZINC95486002
REMARK  10 active torsions:
REMARK  status: ('A' for Active; 'I' for Inactive)
REMARK    1  A    between atoms: C1_1  and  C2_2
REMARK    2  A    between atoms: C3_3  and  O4_35
REMARK    3  A    between atoms: C11_12  and  C30_34
REMARK    4  A    between atoms: C14_15  and  C29_33
REMARK    5  A    between atoms: C15_16  and  C28_32
REMARK    6  A    between atoms: C18_19  and  C27_31
REMARK    7  A    between atoms: C21_23  and  C24_26
REMARK    8  A    between atoms: C21_23  and  C25_27
REMARK    9  A    between atoms: C25_27  and  O3_29
REMARK   10  A    between atoms: O3_29  and  C26_30
REMARK                            x       y       z     vdW  Elec       q    Type
REMARK                         _______ _______ _______ _____ _____    ______ ____
ROOT
ATOM      1  C   UNL     1      51.904  12.941  14.526  0.00  0.00    +0.107 C 
ATOM      2  C   UNL     1      50.495  13.057  15.049  0.00  0.00    -0.070 C 
ATOM      3  C   UNL     1      49.515  12.318  14.461  0.00  0.00    +0.010 C 
ATOM      6  C   UNL     1      48.186  12.404  14.938  0.00  0.00    +0.380 C 
ATOM      7  C   UNL     1      47.895  13.200  16.063  0.00  0.00    -0.110 C 
ATOM      8  C   UNL     1      48.872  13.937  16.653  0.00  0.00    +0.025 C 
ATOM      9  C   UNL     1      48.529  14.731  17.891  0.00  0.00    +0.002 C 
ATOM     10  C   UNL     1      48.407  13.695  19.012  0.00  0.00    +0.069 C 
ATOM     11  C   UNL     1      47.173  15.403  17.705  0.00  0.00    +0.045 C 
ATOM     12  C   UNL     1      46.890  16.456  18.771  0.00  0.00    +0.027 C 
ATOM     13  C   UNL     1      48.007  17.506  18.819  0.00  0.00    -0.027 C 
ATOM     14  C   UNL     1      48.170  18.045  17.392  0.00  0.00    +0.026 C 
ATOM     15  C   UNL     1      49.305  16.811  19.252  0.00  0.00    -0.014 C 
ATOM     16  C   UNL     1      49.166  16.202  20.649  0.00  0.00    +0.046 C 
ATOM     17  C   UNL     1      50.432  17.843  19.298  0.00  0.00    +0.027 C 
ATOM     18  C   UNL     1      50.113  18.912  20.344  0.00  0.00    +0.023 C 
ATOM     19  C   UNL     1      48.788  19.611  20.045  0.00  0.00    -0.048 C 
ATOM     20  C   UNL     1      48.992  20.607  18.905  0.00  0.00    +0.025 C 
ATOM     21  C   UNL     1      48.374  20.415  21.295  0.00  0.00    +0.028 C 
ATOM     22  C   UNL     1      47.085  21.179  21.029  0.00  0.00    +0.032 C 
ATOM     23  C   UNL     1      45.950  20.292  20.537  0.00  0.00    -0.034 C 
ATOM     28  C   UNL     1      45.383  19.471  21.701  0.00  0.00    +0.061 C 
ATOM     29  C   UNL     1      46.387  19.360  19.408  0.00  0.00    +0.054 C 
ATOM     30  C   UNL     1      47.664  18.618  19.788  0.00  0.00    +0.015 C 
ATOM     31  C   UNL     1      49.594  15.733  18.230  0.00  0.00    -0.001 C 
ATOM     32  C   UNL     1      50.802  15.703  17.652  0.00  0.00    -0.051 C 
ATOM     33  C   UNL     1      51.144  14.785  16.651  0.00  0.00    +0.151 C 
ATOM     34  O   UNL     1      47.293  11.782  14.382  0.00  0.00    -0.489 OA
ATOM     35  C   UNL     1      50.181  13.928  16.119  0.00  0.00    -0.106 C 
ENDROOT
BRANCH   3   4
ATOM      4  O   UNL     1      49.816  11.500  13.417  0.00  0.00    -0.464 OA
ATOM      5  H   UNL     1      49.112  11.428  12.759  0.00  0.00    +0.402 HD
ENDBRANCH   3   4
BRANCH  23  24
ATOM     24  C   UNL     1      44.840  21.183  20.009  0.00  0.00    +0.460 C 
ATOM     27  O   UNL     1      44.108  20.783  19.135  0.00  0.00    -0.503 OA
BRANCH  24  25
ATOM     25  O   UNL     1      44.674  22.416  20.512  0.00  0.00    -0.351 OA
ATOM     26  C   UNL     1      44.565  23.490  19.574  0.00  0.00    +0.254 C 
ENDBRANCH  24  25
ENDBRANCH  23  24
TORSDOF 3
ENDMDL
MODEL 6
REMARK VINA RESULT:      -6.0      4.210      8.528
REMARK  Name = ZINC95486002
REMARK  10 active torsions:
REMARK  status: ('A' for Active; 'I' for Inactive)
REMARK    1  A    between atoms: C1_1  and  C2_2
REMARK    2  A    between atoms: C3_3  and  O4_35
REMARK    3  A    between atoms: C11_12  and  C30_34
REMARK    4  A    between atoms: C14_15  and  C29_33
REMARK    5  A    between atoms: C15_16  and  C28_32
REMARK    6  A    between atoms: C18_19  and  C27_31
REMARK    7  A    between atoms: C21_23  and  C24_26
REMARK    8  A    between atoms: C21_23  and  C25_27
REMARK    9  A    between atoms: C25_27  and  O3_29
REMARK   10  A    between atoms: O3_29  and  C26_30
REMARK                            x       y       z     vdW  Elec       q    Type
REMARK                         _______ _______ _______ _____ _____    ______ ____
ROOT
ATOM      1  C   UNL     1      51.493  11.014  17.514  0.00  0.00    +0.107 C 
ATOM      2  C   UNL     1      50.458  11.831  16.787  0.00  0.00    -0.070 C 
ATOM      3  C   UNL     1      50.443  11.811  15.426  0.00  0.00    +0.010 C 
ATOM      6  C   UNL     1      49.476  12.564  14.720  0.00  0.00    +0.380 C 
ATOM      7  C   UNL     1      48.489  13.277  15.428  0.00  0.00    -0.110 C 
ATOM      8  C   UNL     1      48.498  13.297  16.786  0.00  0.00    +0.025 C 
ATOM      9  C   UNL     1      47.388  14.024  17.506  0.00  0.00    +0.002 C 
ATOM     10  C   UNL     1      46.158  13.121  17.365  0.00  0.00    +0.069 C 
ATOM     11  C   UNL     1      47.101  15.343  16.797  0.00  0.00    +0.045 C 
ATOM     12  C   UNL     1      46.213  16.270  17.621  0.00  0.00    +0.027 C 
ATOM     13  C   UNL     1      46.820  16.527  19.006  0.00  0.00    -0.027 C 
ATOM     14  C   UNL     1      48.253  17.023  18.778  0.00  0.00    +0.026 C 
ATOM     15  C   UNL     1      46.858  15.196  19.770  0.00  0.00    -0.014 C 
ATOM     16  C   UNL     1      45.449  14.630  19.965  0.00  0.00    +0.046 C 
ATOM     17  C   UNL     1      47.466  15.432  21.152  0.00  0.00    +0.027 C 
ATOM     18  C   UNL     1      46.585  16.393  21.949  0.00  0.00    +0.023 C 
ATOM     19  C   UNL     1      46.416  17.729  21.228  0.00  0.00    -0.048 C 
ATOM     20  C   UNL     1      47.689  18.555  21.398  0.00  0.00    +0.025 C 
ATOM     21  C   UNL     1      45.266  18.502  21.906  0.00  0.00    +0.028 C 
ATOM     22  C   UNL     1      45.095  19.869  21.258  0.00  0.00    +0.032 C 
ATOM     23  C   UNL     1      44.906  19.801  19.749  0.00  0.00    -0.034 C 
ATOM     28  C   UNL     1      43.490  19.318  19.420  0.00  0.00    +0.061 C 
ATOM     29  C   UNL     1      45.935  18.897  19.074  0.00  0.00    +0.054 C 
ATOM     30  C   UNL     1      46.003  17.544  19.775  0.00  0.00    +0.015 C 
ATOM     31  C   UNL     1      47.704  14.240  18.957  0.00  0.00    -0.001 C 
ATOM     32  C   UNL     1      48.720  13.610  19.560  0.00  0.00    -0.051 C 
ATOM     33  C   UNL     1      49.599  12.756  18.879  0.00  0.00    +0.151 C 
ATOM     34  O   UNL     1      49.491  12.591  13.498  0.00  0.00    -0.489 OA
ATOM     35  C   UNL     1      49.522  12.624  17.493  0.00  0.00    -0.106 C 
ENDROOT
BRANCH   3   4
ATOM      4  O   UNL     1      51.359  11.068  14.750  0.00  0.00    -0.464 OA
ATOM      5  H   UNL     1      52.047  11.591  14.316  0.00  0.00    +0.402 HD
ENDBRANCH   3   4
BRANCH  23  24
ATOM     24  C   UNL     1      45.065  21.201  19.184  0.00  0.00    +0.460 C 
ATOM     27  O   UNL     1      45.988  21.453  18.446  0.00  0.00    -0.503 OA
BRANCH  24  25
ATOM     25  O   UNL     1      44.182  22.159  19.505  0.00  0.00    -0.351 OA
ATOM     26  C   UNL     1      44.713  23.406  19.959  0.00  0.00    +0.254 C 
ENDBRANCH  24  25
ENDBRANCH  23  24
TORSDOF 3
ENDMDL
MODEL 7
REMARK VINA RESULT:      -5.5      3.257      8.874
REMARK  Name = ZINC95486002
REMARK  10 active torsions:
REMARK  status: ('A' for Active; 'I' for Inactive)
REMARK    1  A    between atoms: C1_1  and  C2_2
REMARK    2  A    between atoms: C3_3  and  O4_35
REMARK    3  A    between atoms: C11_12  and  C30_34
REMARK    4  A    between atoms: C14_15  and  C29_33
REMARK    5  A    between atoms: C15_16  and  C28_32
REMARK    6  A    between atoms: C18_19  and  C27_31
REMARK    7  A    between atoms: C21_23  and  C24_26
REMARK    8  A    between atoms: C21_23  and  C25_27
REMARK    9  A    between atoms: C25_27  and  O3_29
REMARK   10  A    between atoms: O3_29  and  C26_30
REMARK                            x       y       z     vdW  Elec       q    Type
REMARK                         _______ _______ _______ _____ _____    ______ ____
ROOT
ATOM      1  C   UNL     1      53.134  12.177  19.223  0.00  0.00    +0.107 C 
ATOM      2  C   UNL     1      53.180  13.683  19.234  0.00  0.00    -0.070 C 
ATOM      3  C   UNL     1      54.353  14.300  19.541  0.00  0.00    +0.010 C 
ATOM      6  C   UNL     1      54.425  15.713  19.551  0.00  0.00    +0.380 C 
ATOM      7  C   UNL     1      53.302  16.475  19.176  0.00  0.00    -0.110 C 
ATOM      8  C   UNL     1      52.129  15.862  18.866  0.00  0.00    +0.025 C 
ATOM      9  C   UNL     1      50.967  16.712  18.414  0.00  0.00    +0.002 C 
ATOM     10  C   UNL     1      51.312  17.136  16.982  0.00  0.00    +0.069 C 
ATOM     11  C   UNL     1      50.885  17.964  19.280  0.00  0.00    +0.045 C 
ATOM     12  C   UNL     1      49.575  18.722  19.091  0.00  0.00    +0.027 C 
ATOM     13  C   UNL     1      48.368  17.810  19.349  0.00  0.00    -0.027 C 
ATOM     14  C   UNL     1      48.571  17.188  20.736  0.00  0.00    +0.026 C 
ATOM     15  C   UNL     1      48.366  16.701  18.289  0.00  0.00    -0.014 C 
ATOM     16  C   UNL     1      48.229  17.283  16.880  0.00  0.00    +0.046 C 
ATOM     17  C   UNL     1      47.173  15.778  18.535  0.00  0.00    +0.027 C 
ATOM     18  C   UNL     1      45.870  16.563  18.380  0.00  0.00    +0.023 C 
ATOM     19  C   UNL     1      45.811  17.747  19.343  0.00  0.00    -0.048 C 
ATOM     20  C   UNL     1      45.485  17.237  20.746  0.00  0.00    +0.025 C 
ATOM     21  C   UNL     1      44.654  18.669  18.904  0.00  0.00    +0.028 C 
ATOM     22  C   UNL     1      44.516  19.839  19.869  0.00  0.00    +0.032 C 
ATOM     23  C   UNL     1      45.809  20.619  20.058  0.00  0.00    -0.034 C 
ATOM     28  C   UNL     1      46.081  21.491  18.827  0.00  0.00    +0.061 C 
ATOM     29  C   UNL     1      47.006  19.708  20.324  0.00  0.00    +0.054 C 
ATOM     30  C   UNL     1      47.074  18.593  19.285  0.00  0.00    +0.015 C 
ATOM     31  C   UNL     1      49.673  15.951  18.426  0.00  0.00    -0.001 C 
ATOM     32  C   UNL     1      49.639  14.619  18.558  0.00  0.00    -0.051 C 
ATOM     33  C   UNL     1      50.789  13.843  18.756  0.00  0.00    +0.151 C 
ATOM     34  O   UNL     1      55.462  16.273  19.876  0.00  0.00    -0.489 OA
ATOM     35  C   UNL     1      52.028  14.454  18.950  0.00  0.00    -0.106 C 
ENDROOT
BRANCH   3   4
ATOM      4  O   UNL     1      55.453  13.557  19.838  0.00  0.00    -0.464 OA
ATOM      5  H   UNL     1      56.289  14.028  19.720  0.00  0.00    +0.402 HD
ENDBRANCH   3   4
BRANCH  23  24
ATOM     24  C   UNL     1      45.642  21.539  21.254  0.00  0.00    +0.460 C 
ATOM     27  O   UNL     1      44.818  21.286  22.100  0.00  0.00    -0.503 OA
BRANCH  24  25
ATOM     25  O   UNL     1      46.410  22.633  21.370  0.00  0.00    -0.351 OA
ATOM     26  C   UNL     1      47.355  22.652  22.443  0.00  0.00    +0.254 C 
ENDBRANCH  24  25
ENDBRANCH  23  24
TORSDOF 3
ENDMDL
MODEL 8
REMARK VINA RESULT:      -5.4      1.670      8.422
REMARK  Name = ZINC95486002
REMARK  10 active torsions:
REMARK  status: ('A' for Active; 'I' for Inactive)
REMARK    1  A    between atoms: C1_1  and  C2_2
REMARK    2  A    between atoms: C3_3  and  O4_35
REMARK    3  A    between atoms: C11_12  and  C30_34
REMARK    4  A    between atoms: C14_15  and  C29_33
REMARK    5  A    between atoms: C15_16  and  C28_32
REMARK    6  A    between atoms: C18_19  and  C27_31
REMARK    7  A    between atoms: C21_23  and  C24_26
REMARK    8  A    between atoms: C21_23  and  C25_27
REMARK    9  A    between atoms: C25_27  and  O3_29
REMARK   10  A    between atoms: O3_29  and  C26_30
REMARK                            x       y       z     vdW  Elec       q    Type
REMARK                         _______ _______ _______ _____ _____    ______ ____
ROOT
ATOM      1  C   UNL     1      52.723  19.669  15.840  0.00  0.00    +0.107 C 
ATOM      2  C   UNL     1      51.789  18.594  16.335  0.00  0.00    -0.070 C 
ATOM      3  C   UNL     1      51.865  17.354  15.782  0.00  0.00    +0.010 C 
ATOM      6  C   UNL     1      51.005  16.326  16.234  0.00  0.00    +0.380 C 
ATOM      7  C   UNL     1      50.121  16.571  17.302  0.00  0.00    -0.110 C 
ATOM      8  C   UNL     1      50.044  17.808  17.859  0.00  0.00    +0.025 C 
ATOM      9  C   UNL     1      49.126  18.013  19.040  0.00  0.00    +0.002 C 
ATOM     10  C   UNL     1      49.837  17.346  20.222  0.00  0.00    +0.069 C 
ATOM     11  C   UNL     1      47.811  17.282  18.795  0.00  0.00    +0.045 C 
ATOM     12  C   UNL     1      46.725  17.680  19.789  0.00  0.00    +0.027 C 
ATOM     13  C   UNL     1      46.504  19.198  19.787  0.00  0.00    -0.027 C 
ATOM     14  C   UNL     1      46.242  19.605  18.332  0.00  0.00    +0.026 C 
ATOM     15  C   UNL     1      47.791  19.873  20.280  0.00  0.00    -0.014 C 
ATOM     16  C   UNL     1      48.127  19.445  21.710  0.00  0.00    +0.046 C 
ATOM     17  C   UNL     1      47.591  21.389  20.278  0.00  0.00    +0.027 C 
ATOM     18  C   UNL     1      46.474  21.766  21.250  0.00  0.00    +0.023 C 
ATOM     19  C   UNL     1      45.160  21.074  20.890  0.00  0.00    -0.048 C 
ATOM     20  C   UNL     1      44.531  21.784  19.693  0.00  0.00    +0.025 C 
ATOM     21  C   UNL     1      44.192  21.226  22.082  0.00  0.00    +0.028 C 
ATOM     22  C   UNL     1      42.845  20.601  21.751  0.00  0.00    +0.032 C 
ATOM     23  C   UNL     1      42.948  19.151  21.299  0.00  0.00    -0.034 C 
ATOM     28  C   UNL     1      43.224  18.245  22.504  0.00  0.00    +0.061 C 
ATOM     29  C   UNL     1      44.026  18.947  20.236  0.00  0.00    +0.054 C 
ATOM     30  C   UNL     1      45.342  19.578  20.680  0.00  0.00    +0.015 C 
ATOM     31  C   UNL     1      48.899  19.467  19.332  0.00  0.00    -0.001 C 
ATOM     32  C   UNL     1      49.650  20.425  18.773  0.00  0.00    -0.051 C 
ATOM     33  C   UNL     1      50.655  20.155  17.835  0.00  0.00    +0.151 C 
ATOM     34  O   UNL     1      51.034  15.224  15.705  0.00  0.00    -0.489 OA
ATOM     35  C   UNL     1      50.834  18.862  17.344  0.00  0.00    -0.106 C 
ENDROOT
BRANCH   3   4
ATOM      4  O   UNL     1      52.768  17.106  14.795  0.00  0.00    -0.464 OA
ATOM      5  H   UNL     1      53.680  17.319  15.034  0.00  0.00    +0.402 HD
ENDBRANCH   3   4
BRANCH  23  24
ATOM     24  C   UNL     1      41.614  18.740  20.702  0.00  0.00    +0.460 C 
ATOM     27  O   UNL     1      40.780  18.208  21.395  0.00  0.00    -0.503 OA
BRANCH  24  25
ATOM     25  O   UNL     1      41.363  18.967  19.403  0.00  0.00    -0.351 OA
ATOM     26  C   UNL     1      40.715  20.198  19.073  0.00  0.00    +0.254 C 
ENDBRANCH  24  25
ENDBRANCH  23  24
TORSDOF 3
ENDMDL
MODEL 9
REMARK VINA RESULT:      -5.3      5.855      8.825
REMARK  Name = ZINC95486002
REMARK  10 active torsions:
REMARK  status: ('A' for Active; 'I' for Inactive)
REMARK    1  A    between atoms: C1_1  and  C2_2
REMARK    2  A    between atoms: C3_3  and  O4_35
REMARK    3  A    between atoms: C11_12  and  C30_34
REMARK    4  A    between atoms: C14_15  and  C29_33
REMARK    5  A    between atoms: C15_16  and  C28_32
REMARK    6  A    between atoms: C18_19  and  C27_31
REMARK    7  A    between atoms: C21_23  and  C24_26
REMARK    8  A    between atoms: C21_23  and  C25_27
REMARK    9  A    between atoms: C25_27  and  O3_29
REMARK   10  A    between atoms: O3_29  and  C26_30
REMARK                            x       y       z     vdW  Elec       q    Type
REMARK                         _______ _______ _______ _____ _____    ______ ____
ROOT
ATOM      1  C   UNL     1      51.859  20.699  21.970  0.00  0.00    +0.107 C 
ATOM      2  C   UNL     1      51.954  20.112  20.585  0.00  0.00    -0.070 C 
ATOM      3  C   UNL     1      52.262  20.932  19.545  0.00  0.00    +0.010 C 
ATOM      6  C   UNL     1      52.365  20.404  18.236  0.00  0.00    +0.380 C 
ATOM      7  C   UNL     1      52.216  19.019  18.026  0.00  0.00    -0.110 C 
ATOM      8  C   UNL     1      51.911  18.196  19.063  0.00  0.00    +0.025 C 
ATOM      9  C   UNL     1      51.818  16.712  18.805  0.00  0.00    +0.002 C 
ATOM     10  C   UNL     1      53.267  16.240  18.643  0.00  0.00    +0.069 C 
ATOM     11  C   UNL     1      51.084  16.469  17.491  0.00  0.00    +0.045 C 
ATOM     12  C   UNL     1      50.684  15.010  17.304  0.00  0.00    +0.027 C 
ATOM     13  C   UNL     1      49.845  14.512  18.488  0.00  0.00    -0.027 C 
ATOM     14  C   UNL     1      48.679  15.496  18.650  0.00  0.00    +0.026 C 
ATOM     15  C   UNL     1      50.719  14.548  19.748  0.00  0.00    -0.014 C 
ATOM     16  C   UNL     1      51.932  13.626  19.606  0.00  0.00    +0.046 C 
ATOM     17  C   UNL     1      49.896  14.061  20.941  0.00  0.00    +0.027 C 
ATOM     18  C   UNL     1      49.470  12.610  20.719  0.00  0.00    +0.023 C 
ATOM     19  C   UNL     1      48.658  12.453  19.435  0.00  0.00    -0.048 C 
ATOM     20  C   UNL     1      47.239  12.965  19.675  0.00  0.00    +0.025 C 
ATOM     21  C   UNL     1      48.559  10.949  19.107  0.00  0.00    +0.028 C 
ATOM     22  C   UNL     1      47.707  10.735  17.863  0.00  0.00    +0.032 C 
ATOM     23  C   UNL     1      48.184  11.538  16.661  0.00  0.00    -0.034 C 
ATOM     28  C   UNL     1      49.447  10.899  16.071  0.00  0.00    +0.061 C 
ATOM     29  C   UNL     1      48.454  13.001  17.007  0.00  0.00    +0.054 C 
ATOM     30  C   UNL     1      49.343  13.104  18.243  0.00  0.00    +0.015 C 
ATOM     31  C   UNL     1      51.164  15.982  19.941  0.00  0.00    -0.001 C 
ATOM     32  C   UNL     1      50.957  16.564  21.129  0.00  0.00    -0.051 C 
ATOM     33  C   UNL     1      51.274  17.905  21.386  0.00  0.00    +0.151 C 
ATOM     34  O   UNL     1      52.590  21.144  17.291  0.00  0.00    -0.489 OA
ATOM     35  C   UNL     1      51.713  18.736  20.355  0.00  0.00    -0.106 C 
ENDROOT
BRANCH   3   4
ATOM      4  O   UNL     1      52.470  22.258  19.765  0.00  0.00    -0.464 OA
ATOM      5  H   UNL     1      52.272  22.542  20.668  0.00  0.00    +0.402 HD
ENDBRANCH   3   4
BRANCH  23  24
ATOM     24  C   UNL     1      47.100  11.498  15.599  0.00  0.00    +0.460 C 
ATOM     27  O   UNL     1      47.361  11.800  14.459  0.00  0.00    -0.503 OA
BRANCH  24  25
ATOM     25  O   UNL     1      45.853  11.129  15.927  0.00  0.00    -0.351 OA
ATOM     26  C   UNL     1      45.165  10.277  15.008  0.00  0.00    +0.254 C 
ENDBRANCH  24  25
ENDBRANCH  23  24
TORSDOF 3
ENDMDL
