MODEL 1
REMARK VINA RESULT:      -6.2      0.000      0.000
REMARK  Name = ZINC15121024
REMARK  8 active torsions:
REMARK  status: ('A' for Active; 'I' for Inactive)
REMARK    1  A    between atoms: C1_1  and  C2_2
REMARK    2  A    between atoms: C2_2  and  C3_3
REMARK    3  A    between atoms: C2_2  and  C4_4
REMARK    4  A    between atoms: C2_2  and  C6_6
REMARK    5  A    between atoms: C7_7  and  O6_24
REMARK    6  A    between atoms: C9_9  and  O5_23
REMARK    7  A    between atoms: C14_15  and  O4_22
REMARK    8  A    between atoms: C15_16  and  O3_21
REMARK                            x       y       z     vdW  Elec       q    Type
REMARK                         _______ _______ _______ _____ _____    ______ ____
ROOT
ATOM      3  C   UNL     1      50.286  18.815  18.173  0.00  0.00    -0.134 A 
ATOM      4  C   UNL     1      50.926  17.698  17.656  0.00  0.00    +0.200 A 
ATOM      7  C   UNL     1      50.192  16.611  17.194  0.00  0.00    -0.060 A 
ATOM      8  C   UNL     1      48.811  16.640  17.238  0.00  0.00    +0.219 A 
ATOM     11  C   UNL     1      48.159  17.768  17.754  0.00  0.00    -0.268 A 
ATOM     12  C   UNL     1      46.688  17.827  17.813  0.00  0.00    +0.440 A 
ATOM     13  O   UNL     1      45.996  16.907  17.419  0.00  0.00    -0.433 OA
ATOM     14  C   UNL     1      46.094  19.057  18.372  0.00  0.00    -0.221 A 
ATOM     15  C   UNL     1      44.707  19.201  18.466  0.00  0.00    +0.117 A 
ATOM     16  C   UNL     1      44.175  20.359  18.992  0.00  0.00    +0.050 A 
ATOM     19  C   UNL     1      45.020  21.382  19.428  0.00  0.00    +0.154 A 
ATOM     22  C   UNL     1      46.393  21.245  19.337  0.00  0.00    -0.006 A 
ATOM     23  C   UNL     1      46.946  20.084  18.809  0.00  0.00    +0.165 A 
ATOM     24  O   UNL     1      48.286  19.957  18.724  0.00  0.00    -0.202 OA
ATOM     25  C   UNL     1      48.901  18.865  18.225  0.00  0.00    +0.198 A 
ENDROOT
BRANCH   3   2
ATOM      1  C   UNL     1      52.580  19.594  18.706  0.00  0.00    +0.049 C 
ATOM      2  C   UNL     1      51.100  19.981  18.673  0.00  0.00    +0.017 C 
ATOM     28  C   UNL     1      50.639  20.356  20.082  0.00  0.00    +0.046 C 
BRANCH   2  26
ATOM     26  C   UNL     1      50.909  21.158  17.751  0.00  0.00    -0.016 C 
ATOM     27  C   UNL     1      51.512  21.184  16.588  0.00  0.00    +0.007 C 
ENDBRANCH   2  26
ENDBRANCH   3   2
BRANCH   4   5
ATOM      5  O   UNL     1      52.281  17.663  17.606  0.00  0.00    -0.481 OA
ATOM      6  H   UNL     1      52.635  17.206  16.831  0.00  0.00    +0.401 HD
ENDBRANCH   4   5
BRANCH   8   9
ATOM      9  O   UNL     1      48.090  15.583  16.783  0.00  0.00    -0.474 OA
ATOM     10  H   UNL     1      47.491  15.205  17.441  0.00  0.00    +0.403 HD
ENDBRANCH   8   9
BRANCH  16  17
ATOM     17  O   UNL     1      42.825  20.505  19.088  0.00  0.00    -0.479 OA
ATOM     18  H   UNL     1      42.389  20.693  18.245  0.00  0.00    +0.390 HD
ENDBRANCH  16  17
BRANCH  19  20
ATOM     20  O   UNL     1      44.490  22.520  19.944  0.00  0.00    -0.479 OA
ATOM     21  H   UNL     1      44.482  22.547  20.910  0.00  0.00    +0.399 HD
ENDBRANCH  19  20
TORSDOF 6
ENDMDL
MODEL 2
REMARK VINA RESULT:      -5.8      1.753      5.856
REMARK  Name = ZINC15121024
REMARK  8 active torsions:
REMARK  status: ('A' for Active; 'I' for Inactive)
REMARK    1  A    between atoms: C1_1  and  C2_2
REMARK    2  A    between atoms: C2_2  and  C3_3
REMARK    3  A    between atoms: C2_2  and  C4_4
REMARK    4  A    between atoms: C2_2  and  C6_6
REMARK    5  A    between atoms: C7_7  and  O6_24
REMARK    6  A    between atoms: C9_9  and  O5_23
REMARK    7  A    between atoms: C14_15  and  O4_22
REMARK    8  A    between atoms: C15_16  and  O3_21
REMARK                            x       y       z     vdW  Elec       q    Type
REMARK                         _______ _______ _______ _____ _____    ______ ____
ROOT
ATOM      3  C   UNL     1      45.576  20.281  20.433  0.00  0.00    -0.134 A 
ATOM      4  C   UNL     1      44.450  19.510  20.678  0.00  0.00    +0.200 A 
ATOM      7  C   UNL     1      44.397  18.182  20.269  0.00  0.00    -0.060 A 
ATOM      8  C   UNL     1      45.478  17.614  19.622  0.00  0.00    +0.219 A 
ATOM     11  C   UNL     1      46.622  18.387  19.377  0.00  0.00    -0.268 A 
ATOM     12  C   UNL     1      47.788  17.808  18.688  0.00  0.00    +0.440 A 
ATOM     13  O   UNL     1      47.799  16.650  18.313  0.00  0.00    -0.433 OA
ATOM     14  C   UNL     1      48.945  18.700  18.477  0.00  0.00    -0.221 A 
ATOM     15  C   UNL     1      50.096  18.237  17.833  0.00  0.00    +0.117 A 
ATOM     16  C   UNL     1      51.164  19.088  17.647  0.00  0.00    +0.050 A 
ATOM     19  C   UNL     1      51.094  20.408  18.101  0.00  0.00    +0.154 A 
ATOM     22  C   UNL     1      49.957  20.871  18.738  0.00  0.00    -0.006 A 
ATOM     23  C   UNL     1      48.872  20.026  18.934  0.00  0.00    +0.165 A 
ATOM     24  O   UNL     1      47.767  20.485  19.556  0.00  0.00    -0.202 OA
ATOM     25  C   UNL     1      46.673  19.731  19.786  0.00  0.00    +0.198 A 
ENDROOT
BRANCH   3   2
ATOM      1  C   UNL     1      47.043  22.098  21.269  0.00  0.00    +0.049 C 
ATOM      2  C   UNL     1      45.612  21.720  20.879  0.00  0.00    +0.017 C 
ATOM     28  C   UNL     1      44.690  21.903  22.086  0.00  0.00    +0.046 C 
BRANCH   2  26
ATOM     26  C   UNL     1      45.147  22.607  19.753  0.00  0.00    -0.016 C 
ATOM     27  C   UNL     1      43.934  23.100  19.766  0.00  0.00    +0.007 C 
ENDBRANCH   2  26
ENDBRANCH   3   2
BRANCH   4   5
ATOM      5  O   UNL     1      43.386  20.059  21.317  0.00  0.00    -0.481 OA
ATOM      6  H   UNL     1      43.616  20.536  22.126  0.00  0.00    +0.401 HD
ENDBRANCH   4   5
BRANCH   8   9
ATOM      9  O   UNL     1      45.433  16.317  19.226  0.00  0.00    -0.474 OA
ATOM     10  H   UNL     1      44.545  15.932  19.241  0.00  0.00    +0.403 HD
ENDBRANCH   8   9
BRANCH  16  17
ATOM     17  O   UNL     1      52.287  18.644  17.019  0.00  0.00    -0.479 OA
ATOM     18  H   UNL     1      52.230  18.660  16.054  0.00  0.00    +0.390 HD
ENDBRANCH  16  17
BRANCH  19  20
ATOM     20  O   UNL     1      52.149  21.242  17.915  0.00  0.00    -0.479 OA
ATOM     21  H   UNL     1      52.537  21.194  17.031  0.00  0.00    +0.399 HD
ENDBRANCH  19  20
TORSDOF 6
ENDMDL
MODEL 3
REMARK VINA RESULT:      -5.6      1.451      2.405
REMARK  Name = ZINC15121024
REMARK  8 active torsions:
REMARK  status: ('A' for Active; 'I' for Inactive)
REMARK    1  A    between atoms: C1_1  and  C2_2
REMARK    2  A    between atoms: C2_2  and  C3_3
REMARK    3  A    between atoms: C2_2  and  C4_4
REMARK    4  A    between atoms: C2_2  and  C6_6
REMARK    5  A    between atoms: C7_7  and  O6_24
REMARK    6  A    between atoms: C9_9  and  O5_23
REMARK    7  A    between atoms: C14_15  and  O4_22
REMARK    8  A    between atoms: C15_16  and  O3_21
REMARK                            x       y       z     vdW  Elec       q    Type
REMARK                         _______ _______ _______ _____ _____    ______ ____
ROOT
ATOM      3  C   UNL     1      49.329  19.184  19.062  0.00  0.00    -0.134 A 
ATOM      4  C   UNL     1      49.542  18.016  18.346  0.00  0.00    +0.200 A 
ATOM      7  C   UNL     1      48.487  17.372  17.710  0.00  0.00    -0.060 A 
ATOM      8  C   UNL     1      47.212  17.901  17.778  0.00  0.00    +0.219 A 
ATOM     11  C   UNL     1      46.991  19.085  18.495  0.00  0.00    -0.268 A 
ATOM     12  C   UNL     1      45.643  19.672  18.585  0.00  0.00    +0.440 A 
ATOM     13  O   UNL     1      44.684  19.153  18.044  0.00  0.00    -0.433 OA
ATOM     14  C   UNL     1      45.512  20.920  19.361  0.00  0.00    -0.221 A 
ATOM     15  C   UNL     1      44.271  21.547  19.500  0.00  0.00    +0.117 A 
ATOM     16  C   UNL     1      44.172  22.712  20.230  0.00  0.00    +0.050 A 
ATOM     19  C   UNL     1      45.310  23.261  20.828  0.00  0.00    +0.154 A 
ATOM     22  C   UNL     1      46.540  22.644  20.694  0.00  0.00    -0.006 A 
ATOM     23  C   UNL     1      46.656  21.469  19.961  0.00  0.00    +0.165 A 
ATOM     24  O   UNL     1      47.860  20.873  19.835  0.00  0.00    -0.202 OA
ATOM     25  C   UNL     1      48.058  19.733  19.142  0.00  0.00    +0.198 A 
ENDROOT
BRANCH   3   2
ATOM      1  C   UNL     1      51.066  20.939  18.827  0.00  0.00    +0.049 C 
ATOM      2  C   UNL     1      50.485  19.864  19.749  0.00  0.00    +0.017 C 
ATOM     28  C   UNL     1      51.566  18.831  20.071  0.00  0.00    +0.046 C 
BRANCH   2  26
ATOM     26  C   UNL     1      50.005  20.504  21.026  0.00  0.00    -0.016 C 
ATOM     27  C   UNL     1      50.863  21.070  21.838  0.00  0.00    +0.007 C 
ENDBRANCH   2  26
ENDBRANCH   3   2
BRANCH   4   5
ATOM      5  O   UNL     1      50.791  17.492  18.271  0.00  0.00    -0.481 OA
ATOM      6  H   UNL     1      51.483  18.074  18.614  0.00  0.00    +0.401 HD
ENDBRANCH   4   5
BRANCH   8   9
ATOM      9  O   UNL     1      46.179  17.279  17.154  0.00  0.00    -0.474 OA
ATOM     10  H   UNL     1      46.414  16.425  16.764  0.00  0.00    +0.403 HD
ENDBRANCH   8   9
BRANCH  16  17
ATOM     17  O   UNL     1      42.967  23.328  20.370  0.00  0.00    -0.479 OA
ATOM     18  H   UNL     1      43.028  24.278  20.542  0.00  0.00    +0.390 HD
ENDBRANCH  16  17
BRANCH  19  20
ATOM     20  O   UNL     1      45.207  24.409  21.546  0.00  0.00    -0.479 OA
ATOM     21  H   UNL     1      45.415  24.307  22.484  0.00  0.00    +0.399 HD
ENDBRANCH  19  20
TORSDOF 6
ENDMDL
MODEL 4
REMARK VINA RESULT:      -5.6      2.021      4.925
REMARK  Name = ZINC15121024
REMARK  8 active torsions:
REMARK  status: ('A' for Active; 'I' for Inactive)
REMARK    1  A    between atoms: C1_1  and  C2_2
REMARK    2  A    between atoms: C2_2  and  C3_3
REMARK    3  A    between atoms: C2_2  and  C4_4
REMARK    4  A    between atoms: C2_2  and  C6_6
REMARK    5  A    between atoms: C7_7  and  O6_24
REMARK    6  A    between atoms: C9_9  and  O5_23
REMARK    7  A    between atoms: C14_15  and  O4_22
REMARK    8  A    between atoms: C15_16  and  O3_21
REMARK                            x       y       z     vdW  Elec       q    Type
REMARK                         _______ _______ _______ _____ _____    ______ ____
ROOT
ATOM      3  C   UNL     1      50.330  19.135  18.227  0.00  0.00    -0.134 A 
ATOM      4  C   UNL     1      49.999  20.356  18.795  0.00  0.00    +0.200 A 
ATOM      7  C   UNL     1      48.689  20.632  19.170  0.00  0.00    -0.060 A 
ATOM      8  C   UNL     1      47.703  19.681  18.989  0.00  0.00    +0.219 A 
ATOM     11  C   UNL     1      48.032  18.443  18.420  0.00  0.00    -0.268 A 
ATOM     12  C   UNL     1      47.001  17.411  18.214  0.00  0.00    +0.440 A 
ATOM     13  O   UNL     1      45.840  17.597  18.528  0.00  0.00    -0.433 OA
ATOM     14  C   UNL     1      47.445  16.140  17.610  0.00  0.00    -0.221 A 
ATOM     15  C   UNL     1      46.536  15.104  17.378  0.00  0.00    +0.117 A 
ATOM     16  C   UNL     1      46.973  13.925  16.813  0.00  0.00    +0.050 A 
ATOM     19  C   UNL     1      48.320  13.770  16.473  0.00  0.00    +0.154 A 
ATOM     22  C   UNL     1      49.223  14.793  16.701  0.00  0.00    -0.006 A 
ATOM     23  C   UNL     1      48.798  15.987  17.270  0.00  0.00    +0.165 A 
ATOM     24  O   UNL     1      49.686  16.979  17.489  0.00  0.00    -0.202 OA
ATOM     25  C   UNL     1      49.355  18.167  18.036  0.00  0.00    +0.198 A 
ENDROOT
BRANCH   3   2
ATOM      1  C   UNL     1      52.205  17.524  18.423  0.00  0.00    +0.049 C 
ATOM      2  C   UNL     1      51.755  18.857  17.822  0.00  0.00    +0.017 C 
ATOM     28  C   UNL     1      52.659  19.979  18.335  0.00  0.00    +0.046 C 
BRANCH   2  26
ATOM     26  C   UNL     1      51.845  18.787  16.320  0.00  0.00    -0.016 C 
ATOM     27  C   UNL     1      51.876  19.890  15.613  0.00  0.00    +0.007 C 
ENDBRANCH   2  26
ENDBRANCH   3   2
BRANCH   4   5
ATOM      5  O   UNL     1      50.963  21.294  18.981  0.00  0.00    -0.481 OA
ATOM      6  H   UNL     1      51.403  21.240  19.840  0.00  0.00    +0.401 HD
ENDBRANCH   4   5
BRANCH   8   9
ATOM      9  O   UNL     1      46.424  19.945  19.358  0.00  0.00    -0.474 OA
ATOM     10  H   UNL     1      46.345  20.621  20.046  0.00  0.00    +0.403 HD
ENDBRANCH   8   9
BRANCH  16  17
ATOM     17  O   UNL     1      46.094  12.913  16.583  0.00  0.00    -0.479 OA
ATOM     18  H   UNL     1      46.511  12.047  16.473  0.00  0.00    +0.390 HD
ENDBRANCH  16  17
BRANCH  19  20
ATOM     20  O   UNL     1      48.745  12.607  15.917  0.00  0.00    -0.479 OA
ATOM     21  H   UNL     1      49.072  12.700  15.012  0.00  0.00    +0.399 HD
ENDBRANCH  19  20
TORSDOF 6
ENDMDL
MODEL 5
REMARK VINA RESULT:      -5.5     19.468     21.562
REMARK  Name = ZINC15121024
REMARK  8 active torsions:
REMARK  status: ('A' for Active; 'I' for Inactive)
REMARK    1  A    between atoms: C1_1  and  C2_2
REMARK    2  A    between atoms: C2_2  and  C3_3
REMARK    3  A    between atoms: C2_2  and  C4_4
REMARK    4  A    between atoms: C2_2  and  C6_6
REMARK    5  A    between atoms: C7_7  and  O6_24
REMARK    6  A    between atoms: C9_9  and  O5_23
REMARK    7  A    between atoms: C14_15  and  O4_22
REMARK    8  A    between atoms: C15_16  and  O3_21
REMARK                            x       y       z     vdW  Elec       q    Type
REMARK                         _______ _______ _______ _____ _____    ______ ____
ROOT
ATOM      3  C   UNL     1      54.621  33.430   4.830  0.00  0.00    -0.134 A 
ATOM      4  C   UNL     1      54.279  33.683   6.150  0.00  0.00    +0.200 A 
ATOM      7  C   UNL     1      52.946  33.721   6.542  0.00  0.00    -0.060 A 
ATOM      8  C   UNL     1      51.945  33.493   5.615  0.00  0.00    +0.219 A 
ATOM     11  C   UNL     1      52.285  33.231   4.281  0.00  0.00    -0.268 A 
ATOM     12  C   UNL     1      51.240  32.986   3.272  0.00  0.00    +0.440 A 
ATOM     13  O   UNL     1      50.057  33.002   3.561  0.00  0.00    -0.433 OA
ATOM     14  C   UNL     1      51.696  32.717   1.894  0.00  0.00    -0.221 A 
ATOM     15  C   UNL     1      50.776  32.473   0.872  0.00  0.00    +0.117 A 
ATOM     16  C   UNL     1      51.225  32.225  -0.407  0.00  0.00    +0.050 A 
ATOM     19  C   UNL     1      52.596  32.218  -0.677  0.00  0.00    +0.154 A 
ATOM     22  C   UNL     1      53.511  32.460   0.331  0.00  0.00    -0.006 A 
ATOM     23  C   UNL     1      53.074  32.711   1.626  0.00  0.00    +0.165 A 
ATOM     24  O   UNL     1      53.974  32.946   2.604  0.00  0.00    -0.202 OA
ATOM     25  C   UNL     1      53.633  33.198   3.884  0.00  0.00    +0.198 A 
ENDROOT
BRANCH   3   2
ATOM      1  C   UNL     1      56.372  34.588   3.510  0.00  0.00    +0.049 C 
ATOM      2  C   UNL     1      56.072  33.398   4.424  0.00  0.00    +0.017 C 
ATOM     28  C   UNL     1      56.364  32.095   3.677  0.00  0.00    +0.046 C 
BRANCH   2  26
ATOM     26  C   UNL     1      56.939  33.478   5.653  0.00  0.00    -0.016 C 
ATOM     27  C   UNL     1      58.199  33.822   5.545  0.00  0.00    +0.007 C 
ENDBRANCH   2  26
ENDBRANCH   3   2
BRANCH   4   5
ATOM      5  O   UNL     1      55.255  33.903   7.066  0.00  0.00    -0.481 OA
ATOM      6  H   UNL     1      55.734  34.733   6.939  0.00  0.00    +0.401 HD
ENDBRANCH   4   5
BRANCH   8   9
ATOM      9  O   UNL     1      50.643  33.524   5.995  0.00  0.00    -0.474 OA
ATOM     10  H   UNL     1      50.427  32.908   6.710  0.00  0.00    +0.403 HD
ENDBRANCH   8   9
BRANCH  16  17
ATOM     17  O   UNL     1      50.334  31.987  -1.408  0.00  0.00    -0.479 OA
ATOM     18  H   UNL     1      50.490  32.512  -2.206  0.00  0.00    +0.390 HD
ENDBRANCH  16  17
BRANCH  19  20
ATOM     20  O   UNL     1      53.033  31.973  -1.939  0.00  0.00    -0.479 OA
ATOM     21  H   UNL     1      53.438  31.103  -2.053  0.00  0.00    +0.399 HD
ENDBRANCH  19  20
TORSDOF 6
ENDMDL
MODEL 6
REMARK VINA RESULT:      -5.3      2.506      6.389
REMARK  Name = ZINC15121024
REMARK  8 active torsions:
REMARK  status: ('A' for Active; 'I' for Inactive)
REMARK    1  A    between atoms: C1_1  and  C2_2
REMARK    2  A    between atoms: C2_2  and  C3_3
REMARK    3  A    between atoms: C2_2  and  C4_4
REMARK    4  A    between atoms: C2_2  and  C6_6
REMARK    5  A    between atoms: C7_7  and  O6_24
REMARK    6  A    between atoms: C9_9  and  O5_23
REMARK    7  A    between atoms: C14_15  and  O4_22
REMARK    8  A    between atoms: C15_16  and  O3_21
REMARK                            x       y       z     vdW  Elec       q    Type
REMARK                         _______ _______ _______ _____ _____    ______ ____
ROOT
ATOM      3  C   UNL     1      46.693  16.131  19.009  0.00  0.00    -0.134 A 
ATOM      4  C   UNL     1      45.620  16.196  19.886  0.00  0.00    +0.200 A 
ATOM      7  C   UNL     1      45.404  17.331  20.659  0.00  0.00    -0.060 A 
ATOM      8  C   UNL     1      46.255  18.414  20.550  0.00  0.00    +0.219 A 
ATOM     11  C   UNL     1      47.338  18.357  19.662  0.00  0.00    -0.268 A 
ATOM     12  C   UNL     1      48.262  19.496  19.526  0.00  0.00    +0.440 A 
ATOM     13  O   UNL     1      48.117  20.517  20.175  0.00  0.00    -0.433 OA
ATOM     14  C   UNL     1      49.371  19.342  18.565  0.00  0.00    -0.221 A 
ATOM     15  C   UNL     1      50.295  20.371  18.370  0.00  0.00    +0.117 A 
ATOM     16  C   UNL     1      51.323  20.205  17.466  0.00  0.00    +0.050 A 
ATOM     19  C   UNL     1      51.437  19.010  16.750  0.00  0.00    +0.154 A 
ATOM     22  C   UNL     1      50.525  17.988  16.940  0.00  0.00    -0.006 A 
ATOM     23  C   UNL     1      49.483  18.141  17.847  0.00  0.00    +0.165 A 
ATOM     24  O   UNL     1      48.597  17.139  18.026  0.00  0.00    -0.202 OA
ATOM     25  C   UNL     1      47.559  17.207  18.885  0.00  0.00    +0.198 A 
ENDROOT
BRANCH   3   2
ATOM      1  C   UNL     1      48.276  14.283  18.529  0.00  0.00    +0.049 C 
ATOM      2  C   UNL     1      46.914  14.890  18.184  0.00  0.00    +0.017 C 
ATOM     28  C   UNL     1      46.878  15.252  16.698  0.00  0.00    +0.046 C 
BRANCH   2  26
ATOM     26  C   UNL     1      45.829  13.888  18.483  0.00  0.00    -0.016 C 
ATOM     27  C   UNL     1      45.699  12.820  17.736  0.00  0.00    +0.007 C 
ENDBRANCH   2  26
ENDBRANCH   3   2
BRANCH   4   5
ATOM      5  O   UNL     1      44.778  15.138  19.995  0.00  0.00    -0.481 OA
ATOM      6  H   UNL     1      45.003  14.394  19.419  0.00  0.00    +0.401 HD
ENDBRANCH   4   5
BRANCH   8   9
ATOM      9  O   UNL     1      46.044  19.526  21.299  0.00  0.00    -0.474 OA
ATOM     10  H   UNL     1      46.848  20.031  21.489  0.00  0.00    +0.403 HD
ENDBRANCH   8   9
BRANCH  16  17
ATOM     17  O   UNL     1      52.228  21.202  17.273  0.00  0.00    -0.479 OA
ATOM     18  H   UNL     1      52.068  21.988  17.814  0.00  0.00    +0.390 HD
ENDBRANCH  16  17
BRANCH  19  20
ATOM     20  O   UNL     1      52.451  18.852  15.862  0.00  0.00    -0.479 OA
ATOM     21  H   UNL     1      53.327  18.803  16.268  0.00  0.00    +0.399 HD
ENDBRANCH  19  20
TORSDOF 6
ENDMDL
MODEL 7
REMARK VINA RESULT:      -5.3     19.188     21.687
REMARK  Name = ZINC15121024
REMARK  8 active torsions:
REMARK  status: ('A' for Active; 'I' for Inactive)
REMARK    1  A    between atoms: C1_1  and  C2_2
REMARK    2  A    between atoms: C2_2  and  C3_3
REMARK    3  A    between atoms: C2_2  and  C4_4
REMARK    4  A    between atoms: C2_2  and  C6_6
REMARK    5  A    between atoms: C7_7  and  O6_24
REMARK    6  A    between atoms: C9_9  and  O5_23
REMARK    7  A    between atoms: C14_15  and  O4_22
REMARK    8  A    between atoms: C15_16  and  O3_21
REMARK                            x       y       z     vdW  Elec       q    Type
REMARK                         _______ _______ _______ _____ _____    ______ ____
ROOT
ATOM      3  C   UNL     1      54.051  33.372   5.111  0.00  0.00    -0.134 A 
ATOM      4  C   UNL     1      55.226  33.426   5.845  0.00  0.00    +0.200 A 
ATOM      7  C   UNL     1      56.435  33.037   5.279  0.00  0.00    -0.060 A 
ATOM      8  C   UNL     1      56.476  32.601   3.968  0.00  0.00    +0.219 A 
ATOM     11  C   UNL     1      55.293  32.550   3.219  0.00  0.00    -0.268 A 
ATOM     12  C   UNL     1      55.306  32.088   1.820  0.00  0.00    +0.440 A 
ATOM     13  O   UNL     1      56.337  31.740   1.272  0.00  0.00    -0.433 OA
ATOM     14  C   UNL     1      54.011  32.070   1.113  0.00  0.00    -0.221 A 
ATOM     15  C   UNL     1      53.929  31.648  -0.216  0.00  0.00    +0.117 A 
ATOM     16  C   UNL     1      52.707  31.639  -0.856  0.00  0.00    +0.050 A 
ATOM     19  C   UNL     1      51.559  32.051  -0.175  0.00  0.00    +0.154 A 
ATOM     22  C   UNL     1      51.635  32.469   1.141  0.00  0.00    -0.006 A 
ATOM     23  C   UNL     1      52.858  32.484   1.800  0.00  0.00    +0.165 A 
ATOM     24  O   UNL     1      52.924  32.893   3.084  0.00  0.00    -0.202 OA
ATOM     25  C   UNL     1      54.070  32.938   3.793  0.00  0.00    +0.198 A 
ENDROOT
BRANCH   3   2
ATOM      1  C   UNL     1      51.881  32.559   5.994  0.00  0.00    +0.049 C 
ATOM      2  C   UNL     1      52.750  33.793   5.744  0.00  0.00    +0.017 C 
ATOM     28  C   UNL     1      52.015  34.754   4.808  0.00  0.00    +0.046 C 
BRANCH   2  26
ATOM     26  C   UNL     1      53.030  34.483   7.054  0.00  0.00    -0.016 C 
ATOM     27  C   UNL     1      52.208  35.401   7.500  0.00  0.00    +0.007 C 
ENDBRANCH   2  26
ENDBRANCH   3   2
BRANCH   4   5
ATOM      5  O   UNL     1      55.195  33.857   7.131  0.00  0.00    -0.481 OA
ATOM      6  H   UNL     1      54.326  34.167   7.422  0.00  0.00    +0.401 HD
ENDBRANCH   4   5
BRANCH   8   9
ATOM      9  O   UNL     1      57.655  32.225   3.410  0.00  0.00    -0.474 OA
ATOM     10  H   UNL     1      58.273  31.819   4.034  0.00  0.00    +0.403 HD
ENDBRANCH   8   9
BRANCH  16  17
ATOM     17  O   UNL     1      52.620  31.228  -2.150  0.00  0.00    -0.479 OA
ATOM     18  H   UNL     1      53.040  31.828  -2.782  0.00  0.00    +0.390 HD
ENDBRANCH  16  17
BRANCH  19  20
ATOM     20  O   UNL     1      50.359  32.041  -0.810  0.00  0.00    -0.479 OA
ATOM     21  H   UNL     1      49.836  32.843  -0.678  0.00  0.00    +0.399 HD
ENDBRANCH  19  20
TORSDOF 6
ENDMDL
MODEL 8
REMARK VINA RESULT:      -5.2      2.101      5.847
REMARK  Name = ZINC15121024
REMARK  8 active torsions:
REMARK  status: ('A' for Active; 'I' for Inactive)
REMARK    1  A    between atoms: C1_1  and  C2_2
REMARK    2  A    between atoms: C2_2  and  C3_3
REMARK    3  A    between atoms: C2_2  and  C4_4
REMARK    4  A    between atoms: C2_2  and  C6_6
REMARK    5  A    between atoms: C7_7  and  O6_24
REMARK    6  A    between atoms: C9_9  and  O5_23
REMARK    7  A    between atoms: C14_15  and  O4_22
REMARK    8  A    between atoms: C15_16  and  O3_21
REMARK                            x       y       z     vdW  Elec       q    Type
REMARK                         _______ _______ _______ _____ _____    ______ ____
ROOT
ATOM      3  C   UNL     1      48.524  18.819  18.610  0.00  0.00    -0.134 A 
ATOM      4  C   UNL     1      49.566  19.709  18.821  0.00  0.00    +0.200 A 
ATOM      7  C   UNL     1      50.870  19.366  18.484  0.00  0.00    -0.060 A 
ATOM      8  C   UNL     1      51.138  18.131  17.923  0.00  0.00    +0.219 A 
ATOM     11  C   UNL     1      50.088  17.229  17.703  0.00  0.00    -0.268 A 
ATOM     12  C   UNL     1      50.344  15.906  17.108  0.00  0.00    +0.440 A 
ATOM     13  O   UNL     1      51.465  15.555  16.789  0.00  0.00    -0.433 OA
ATOM     14  C   UNL     1      49.174  15.027  16.914  0.00  0.00    -0.221 A 
ATOM     15  C   UNL     1      49.322  13.755  16.355  0.00  0.00    +0.117 A 
ATOM     16  C   UNL     1      48.215  12.951  16.184  0.00  0.00    +0.050 A 
ATOM     19  C   UNL     1      46.952  13.409  16.568  0.00  0.00    +0.154 A 
ATOM     22  C   UNL     1      46.801  14.668  17.122  0.00  0.00    -0.006 A 
ATOM     23  C   UNL     1      47.907  15.490  17.301  0.00  0.00    +0.165 A 
ATOM     24  O   UNL     1      47.750  16.716  17.841  0.00  0.00    -0.202 OA
ATOM     25  C   UNL     1      48.770  17.575  18.048  0.00  0.00    +0.198 A 
ENDROOT
BRANCH   3   2
ATOM      1  C   UNL     1      46.794  18.666  20.382  0.00  0.00    +0.049 C 
ATOM      2  C   UNL     1      47.117  19.207  18.987  0.00  0.00    +0.017 C 
ATOM     28  C   UNL     1      46.136  18.618  17.972  0.00  0.00    +0.046 C 
BRANCH   2  26
ATOM     26  C   UNL     1      46.995  20.709  18.990  0.00  0.00    -0.016 C 
ATOM     27  C   UNL     1      45.835  21.273  18.758  0.00  0.00    +0.007 C 
ENDBRANCH   2  26
ENDBRANCH   3   2
BRANCH   4   5
ATOM      5  O   UNL     1      49.311  20.925  19.366  0.00  0.00    -0.481 OA
ATOM      6  H   UNL     1      49.092  21.609  18.719  0.00  0.00    +0.401 HD
ENDBRANCH   4   5
BRANCH   8   9
ATOM      9  O   UNL     1      52.409  17.794  17.588  0.00  0.00    -0.474 OA
ATOM     10  H   UNL     1      52.665  18.064  16.694  0.00  0.00    +0.403 HD
ENDBRANCH   8   9
BRANCH  16  17
ATOM     17  O   UNL     1      48.352  11.710  15.642  0.00  0.00    -0.479 OA
ATOM     18  H   UNL     1      48.801  11.703  14.785  0.00  0.00    +0.390 HD
ENDBRANCH  16  17
BRANCH  19  20
ATOM     20  O   UNL     1      45.866  12.614  16.397  0.00  0.00    -0.479 OA
ATOM     21  H   UNL     1      45.473  12.668  15.515  0.00  0.00    +0.399 HD
ENDBRANCH  19  20
TORSDOF 6
ENDMDL
MODEL 9
REMARK VINA RESULT:      -5.1      2.462      4.816
REMARK  Name = ZINC15121024
REMARK  8 active torsions:
REMARK  status: ('A' for Active; 'I' for Inactive)
REMARK    1  A    between atoms: C1_1  and  C2_2
REMARK    2  A    between atoms: C2_2  and  C3_3
REMARK    3  A    between atoms: C2_2  and  C4_4
REMARK    4  A    between atoms: C2_2  and  C6_6
REMARK    5  A    between atoms: C7_7  and  O6_24
REMARK    6  A    between atoms: C9_9  and  O5_23
REMARK    7  A    between atoms: C14_15  and  O4_22
REMARK    8  A    between atoms: C15_16  and  O3_21
REMARK                            x       y       z     vdW  Elec       q    Type
REMARK                         _______ _______ _______ _____ _____    ______ ____
ROOT
ATOM      3  C   UNL     1      47.144  16.060  19.419  0.00  0.00    -0.134 A 
ATOM      4  C   UNL     1      48.490  15.863  19.152  0.00  0.00    +0.200 A 
ATOM      7  C   UNL     1      49.309  16.933  18.811  0.00  0.00    -0.060 A 
ATOM      8  C   UNL     1      48.787  18.211  18.747  0.00  0.00    +0.219 A 
ATOM     11  C   UNL     1      47.428  18.418  19.022  0.00  0.00    -0.268 A 
ATOM     12  C   UNL     1      46.843  19.768  18.960  0.00  0.00    +0.440 A 
ATOM     13  O   UNL     1      47.515  20.742  18.672  0.00  0.00    -0.433 OA
ATOM     14  C   UNL     1      45.404  19.885  19.267  0.00  0.00    -0.221 A 
ATOM     15  C   UNL     1      44.766  21.127  19.234  0.00  0.00    +0.117 A 
ATOM     16  C   UNL     1      43.421  21.211  19.524  0.00  0.00    +0.050 A 
ATOM     19  C   UNL     1      42.702  20.058  19.849  0.00  0.00    +0.154 A 
ATOM     22  C   UNL     1      43.330  18.826  19.883  0.00  0.00    -0.006 A 
ATOM     23  C   UNL     1      44.685  18.724  19.593  0.00  0.00    +0.165 A 
ATOM     24  O   UNL     1      45.290  17.519  19.628  0.00  0.00    -0.202 OA
ATOM     25  C   UNL     1      46.599  17.334  19.361  0.00  0.00    +0.198 A 
ENDROOT
BRANCH   3   2
ATOM      1  C   UNL     1      45.042  15.381  20.547  0.00  0.00    +0.049 C 
ATOM      2  C   UNL     1      46.271  14.886  19.782  0.00  0.00    +0.017 C 
ATOM     28  C   UNL     1      47.062  13.915  20.660  0.00  0.00    +0.046 C 
BRANCH   2  26
ATOM     26  C   UNL     1      45.830  14.181  18.525  0.00  0.00    -0.016 C 
ATOM     27  C   UNL     1      45.209  13.030  18.603  0.00  0.00    +0.007 C 
ENDBRANCH   2  26
ENDBRANCH   3   2
BRANCH   4   5
ATOM      5  O   UNL     1      49.012  14.612  19.217  0.00  0.00    -0.481 OA
ATOM      6  H   UNL     1      48.508  14.004  19.776  0.00  0.00    +0.401 HD
ENDBRANCH   4   5
BRANCH   8   9
ATOM      9  O   UNL     1      49.584  19.260  18.419  0.00  0.00    -0.474 OA
ATOM     10  H   UNL     1      49.197  19.859  17.766  0.00  0.00    +0.403 HD
ENDBRANCH   8   9
BRANCH  16  17
ATOM     17  O   UNL     1      42.792  22.418  19.492  0.00  0.00    -0.479 OA
ATOM     18  H   UNL     1      43.394  23.174  19.476  0.00  0.00    +0.390 HD
ENDBRANCH  16  17
BRANCH  19  20
ATOM     20  O   UNL     1      41.378  20.147  20.134  0.00  0.00    -0.479 OA
ATOM     21  H   UNL     1      40.922  20.862  19.670  0.00  0.00    +0.399 HD
ENDBRANCH  19  20
TORSDOF 6
ENDMDL
