MODEL 1
REMARK VINA RESULT:      -5.6      0.000      0.000
REMARK  Name = ZINC95486343
REMARK  10 active torsions:
REMARK  status: ('A' for Active; 'I' for Inactive)
REMARK    1  A    between atoms: C1_1  and  N1_2
REMARK    2  A    between atoms: C6_7  and  O5_26
REMARK    3  A    between atoms: C7_8  and  O3_23
REMARK    4  A    between atoms: C14_16  and  O2_22
REMARK    5  A    between atoms: C15_17  and  O1_20
REMARK    6  A    between atoms: O1_20  and  C18_21
REMARK    7  A    between atoms: O3_23  and  C19_24
REMARK    8  A    between atoms: C19_24  and  O4_25
REMARK    9  A    between atoms: O5_26  and  C20_27
REMARK   10  A    between atoms: C20_27  and  O6_28
REMARK                            x       y       z     vdW  Elec       q    Type
REMARK                         _______ _______ _______ _____ _____    ______ ____
ROOT
ATOM      1  C   UNL     1      44.234  18.916  19.602  0.00  0.00    +0.328 C 
ATOM      2  N   UNL     1      45.554  19.506  19.337  0.00  0.00    -0.382 N 
ATOM      3  H   UNL     1      45.505  20.082  18.509  0.00  0.00    +0.425 HD
ATOM      4  C   UNL     1      45.958  20.328  20.477  0.00  0.00    +0.267 C 
ATOM      5  C   UNL     1      47.225  21.106  20.162  0.00  0.00    +0.124 C 
ATOM      6  C   UNL     1      48.206  20.290  19.366  0.00  0.00    -0.049 A 
ATOM      7  C   UNL     1      49.467  20.826  19.133  0.00  0.00    -0.042 A 
ATOM      8  C   UNL     1      50.422  20.113  18.431  0.00  0.00    +0.156 A 
ATOM     13  C   UNL     1      50.117  18.845  17.947  0.00  0.00    +0.079 A 
ATOM     18  C   UNL     1      48.847  18.315  18.161  0.00  0.00    +0.007 A 
ATOM     19  C   UNL     1      48.502  16.967  17.652  0.00  0.00    -0.043 A 
ATOM     20  C   UNL     1      49.500  16.070  17.275  0.00  0.00    +0.097 A 
ATOM     23  C   UNL     1      49.148  14.805  16.816  0.00  0.00    +0.112 A 
ATOM     26  C   UNL     1      47.812  14.444  16.739  0.00  0.00    -0.042 A 
ATOM     27  C   UNL     1      46.823  15.339  17.107  0.00  0.00    +0.062 A 
ATOM     28  C   UNL     1      47.161  16.599  17.556  0.00  0.00    -0.107 A 
ATOM     29  C   UNL     1      46.091  17.584  17.939  0.00  0.00    +0.114 C 
ATOM     30  C   UNL     1      47.891  19.040  18.880  0.00  0.00    -0.154 A 
ATOM     31  C   UNL     1      46.536  18.433  19.128  0.00  0.00    +0.242 C 
ENDROOT
BRANCH  20  21
ATOM     21  O   UNL     1      50.809  16.431  17.353  0.00  0.00    -0.418 OA
ATOM     22  H   UNL     1      51.392  15.726  17.668  0.00  0.00    +0.377 HD
ENDBRANCH  20  21
BRANCH  23  24
ATOM     24  O   UNL     1      50.114  13.923  16.445  0.00  0.00    -0.302 OA
ATOM     25  C   UNL     1      49.820  13.065  15.340  0.00  0.00    +0.250 C 
ENDBRANCH  23  24
BRANCH   8   9
ATOM      9  O   UNL     1      51.652  20.649  18.213  0.00  0.00    -0.257 OA
BRANCH   9  10
ATOM     10  C   UNL     1      52.547  20.692  19.327  0.00  0.00    +0.398 C 
BRANCH  10  11
ATOM     11  O   UNL     1      53.030  22.025  19.499  0.00  0.00    -0.591 OA
ATOM     12  H   UNL     1      53.953  22.076  19.783  0.00  0.00    +0.404 HD
ENDBRANCH  10  11
ENDBRANCH   9  10
ENDBRANCH   8   9
BRANCH  13  14
ATOM     14  O   UNL     1      51.053  18.129  17.270  0.00  0.00    -0.231 OA
BRANCH  14  15
ATOM     15  C   UNL     1      51.564  18.702  16.065  0.00  0.00    +0.372 C 
BRANCH  15  16
ATOM     16  O   UNL     1      52.381  17.745  15.391  0.00  0.00    -0.590 OA
ATOM     17  H   UNL     1      52.577  16.956  15.916  0.00  0.00    +0.392 HD
ENDBRANCH  15  16
ENDBRANCH  14  15
ENDBRANCH  13  14
TORSDOF 8
ENDMDL
MODEL 2
REMARK VINA RESULT:      -5.5      1.614      5.057
REMARK  Name = ZINC95486343
REMARK  10 active torsions:
REMARK  status: ('A' for Active; 'I' for Inactive)
REMARK    1  A    between atoms: C1_1  and  N1_2
REMARK    2  A    between atoms: C6_7  and  O5_26
REMARK    3  A    between atoms: C7_8  and  O3_23
REMARK    4  A    between atoms: C14_16  and  O2_22
REMARK    5  A    between atoms: C15_17  and  O1_20
REMARK    6  A    between atoms: O1_20  and  C18_21
REMARK    7  A    between atoms: O3_23  and  C19_24
REMARK    8  A    between atoms: C19_24  and  O4_25
REMARK    9  A    between atoms: O5_26  and  C20_27
REMARK   10  A    between atoms: C20_27  and  O6_28
REMARK                            x       y       z     vdW  Elec       q    Type
REMARK                         _______ _______ _______ _____ _____    ______ ____
ROOT
ATOM      1  C   UNL     1      45.245  21.602  20.942  0.00  0.00    +0.328 C 
ATOM      2  N   UNL     1      45.401  20.179  20.609  0.00  0.00    -0.382 N 
ATOM      3  H   UNL     1      45.638  19.663  21.443  0.00  0.00    +0.425 HD
ATOM      4  C   UNL     1      44.145  19.667  20.061  0.00  0.00    +0.267 C 
ATOM      5  C   UNL     1      44.208  18.158  19.885  0.00  0.00    +0.124 C 
ATOM      6  C   UNL     1      45.551  17.702  19.389  0.00  0.00    -0.049 A 
ATOM      7  C   UNL     1      45.703  16.364  19.044  0.00  0.00    -0.042 A 
ATOM      8  C   UNL     1      46.908  15.889  18.557  0.00  0.00    +0.156 A 
ATOM     13  C   UNL     1      47.982  16.759  18.412  0.00  0.00    +0.079 A 
ATOM     18  C   UNL     1      47.840  18.095  18.777  0.00  0.00    +0.007 A 
ATOM     19  C   UNL     1      48.974  19.038  18.632  0.00  0.00    -0.043 A 
ATOM     20  C   UNL     1      50.064  18.722  17.823  0.00  0.00    +0.097 A 
ATOM     23  C   UNL     1      51.107  19.633  17.693  0.00  0.00    +0.112 A 
ATOM     26  C   UNL     1      51.057  20.845  18.363  0.00  0.00    -0.042 A 
ATOM     27  C   UNL     1      49.976  21.152  19.171  0.00  0.00    +0.062 A 
ATOM     28  C   UNL     1      48.939  20.253  19.314  0.00  0.00    -0.107 A 
ATOM     29  C   UNL     1      47.771  20.572  20.206  0.00  0.00    +0.114 C 
ATOM     30  C   UNL     1      46.615  18.568  19.261  0.00  0.00    -0.154 A 
ATOM     31  C   UNL     1      46.473  20.024  19.616  0.00  0.00    +0.242 C 
ENDROOT
BRANCH  20  21
ATOM     21  O   UNL     1      50.108  17.531  17.168  0.00  0.00    -0.418 OA
ATOM     22  H   UNL     1      50.430  17.596  16.258  0.00  0.00    +0.377 HD
ENDBRANCH  20  21
BRANCH  23  24
ATOM     24  O   UNL     1      52.176  19.334  16.906  0.00  0.00    -0.302 OA
ATOM     25  C   UNL     1      52.212  19.928  15.607  0.00  0.00    +0.250 C 
ENDBRANCH  23  24
BRANCH   8   9
ATOM      9  O   UNL     1      47.039  14.578  18.222  0.00  0.00    -0.257 OA
BRANCH   9  10
ATOM     10  C   UNL     1      46.589  14.193  16.921  0.00  0.00    +0.398 C 
BRANCH  10  11
ATOM     11  O   UNL     1      47.638  14.399  15.973  0.00  0.00    -0.591 OA
ATOM     12  H   UNL     1      47.799  15.328  15.760  0.00  0.00    +0.404 HD
ENDBRANCH  10  11
ENDBRANCH   9  10
ENDBRANCH   8   9
BRANCH  13  14
ATOM     14  O   UNL     1      49.166  16.307  17.918  0.00  0.00    -0.231 OA
BRANCH  14  15
ATOM     15  C   UNL     1      49.832  15.285  18.662  0.00  0.00    +0.372 C 
BRANCH  15  16
ATOM     16  O   UNL     1      49.967  14.117  17.850  0.00  0.00    -0.590 OA
ATOM     17  H   UNL     1      50.607  13.475  18.188  0.00  0.00    +0.392 HD
ENDBRANCH  15  16
ENDBRANCH  14  15
ENDBRANCH  13  14
TORSDOF 8
ENDMDL
MODEL 3
REMARK VINA RESULT:      -5.3      2.184      5.206
REMARK  Name = ZINC95486343
REMARK  10 active torsions:
REMARK  status: ('A' for Active; 'I' for Inactive)
REMARK    1  A    between atoms: C1_1  and  N1_2
REMARK    2  A    between atoms: C6_7  and  O5_26
REMARK    3  A    between atoms: C7_8  and  O3_23
REMARK    4  A    between atoms: C14_16  and  O2_22
REMARK    5  A    between atoms: C15_17  and  O1_20
REMARK    6  A    between atoms: O1_20  and  C18_21
REMARK    7  A    between atoms: O3_23  and  C19_24
REMARK    8  A    between atoms: C19_24  and  O4_25
REMARK    9  A    between atoms: O5_26  and  C20_27
REMARK   10  A    between atoms: C20_27  and  O6_28
REMARK                            x       y       z     vdW  Elec       q    Type
REMARK                         _______ _______ _______ _____ _____    ______ ____
ROOT
ATOM      1  C   UNL     1      47.485  13.550  18.576  0.00  0.00    +0.328 C 
ATOM      2  N   UNL     1      48.601  14.464  18.295  0.00  0.00    -0.382 N 
ATOM      3  H   UNL     1      49.309  14.358  19.006  0.00  0.00    +0.425 HD
ATOM      4  C   UNL     1      49.174  14.145  16.987  0.00  0.00    +0.267 C 
ATOM      5  C   UNL     1      50.447  14.940  16.746  0.00  0.00    +0.124 C 
ATOM      6  C   UNL     1      50.340  16.348  17.260  0.00  0.00    -0.049 A 
ATOM      7  C   UNL     1      51.377  17.230  16.976  0.00  0.00    -0.042 A 
ATOM      8  C   UNL     1      51.324  18.546  17.399  0.00  0.00    +0.156 A 
ATOM     13  C   UNL     1      50.223  18.995  18.119  0.00  0.00    +0.079 A 
ATOM     18  C   UNL     1      49.193  18.108  18.424  0.00  0.00    +0.007 A 
ATOM     19  C   UNL     1      48.012  18.566  19.193  0.00  0.00    -0.043 A 
ATOM     20  C   UNL     1      47.728  19.924  19.321  0.00  0.00    +0.097 A 
ATOM     23  C   UNL     1      46.603  20.324  20.035  0.00  0.00    +0.112 A 
ATOM     26  C   UNL     1      45.773  19.375  20.610  0.00  0.00    -0.042 A 
ATOM     27  C   UNL     1      46.062  18.028  20.486  0.00  0.00    +0.062 A 
ATOM     28  C   UNL     1      47.179  17.619  19.787  0.00  0.00    -0.107 A 
ATOM     29  C   UNL     1      47.510  16.157  19.665  0.00  0.00    +0.114 C 
ATOM     30  C   UNL     1      49.251  16.781  17.984  0.00  0.00    -0.154 A 
ATOM     31  C   UNL     1      48.110  15.849  18.295  0.00  0.00    +0.242 C 
ENDROOT
BRANCH  20  21
ATOM     21  O   UNL     1      48.546  20.851  18.755  0.00  0.00    -0.418 OA
ATOM     22  H   UNL     1      48.078  21.535  18.256  0.00  0.00    +0.377 HD
ENDBRANCH  20  21
BRANCH  23  24
ATOM     24  O   UNL     1      46.317  21.648  20.167  0.00  0.00    -0.302 OA
ATOM     25  C   UNL     1      45.159  22.133  19.484  0.00  0.00    +0.250 C 
ENDBRANCH  23  24
BRANCH   8   9
ATOM      9  O   UNL     1      52.345  19.397  17.111  0.00  0.00    -0.257 OA
BRANCH   9  10
ATOM     10  C   UNL     1      52.292  20.071  15.852  0.00  0.00    +0.398 C 
BRANCH  10  11
ATOM     11  O   UNL     1      51.911  21.433  16.056  0.00  0.00    -0.591 OA
ATOM     12  H   UNL     1      50.961  21.562  16.177  0.00  0.00    +0.404 HD
ENDBRANCH  10  11
ENDBRANCH   9  10
ENDBRANCH   8   9
BRANCH  13  14
ATOM     14  O   UNL     1      50.153  20.290  18.525  0.00  0.00    -0.231 OA
BRANCH  14  15
ATOM     15  C   UNL     1      51.107  20.718  19.499  0.00  0.00    +0.372 C 
BRANCH  15  16
ATOM     16  O   UNL     1      51.966  21.702  18.924  0.00  0.00    -0.590 OA
ATOM     17  H   UNL     1      52.119  21.586  17.976  0.00  0.00    +0.392 HD
ENDBRANCH  15  16
ENDBRANCH  14  15
ENDBRANCH  13  14
TORSDOF 8
ENDMDL
MODEL 4
REMARK VINA RESULT:      -5.3      3.429      6.163
REMARK  Name = ZINC95486343
REMARK  10 active torsions:
REMARK  status: ('A' for Active; 'I' for Inactive)
REMARK    1  A    between atoms: C1_1  and  N1_2
REMARK    2  A    between atoms: C6_7  and  O5_26
REMARK    3  A    between atoms: C7_8  and  O3_23
REMARK    4  A    between atoms: C14_16  and  O2_22
REMARK    5  A    between atoms: C15_17  and  O1_20
REMARK    6  A    between atoms: O1_20  and  C18_21
REMARK    7  A    between atoms: O3_23  and  C19_24
REMARK    8  A    between atoms: C19_24  and  O4_25
REMARK    9  A    between atoms: O5_26  and  C20_27
REMARK   10  A    between atoms: C20_27  and  O6_28
REMARK                            x       y       z     vdW  Elec       q    Type
REMARK                         _______ _______ _______ _____ _____    ______ ____
ROOT
ATOM      1  C   UNL     1      47.968  13.467  17.785  0.00  0.00    +0.328 C 
ATOM      2  N   UNL     1      47.027  14.471  18.302  0.00  0.00    -0.382 N 
ATOM      3  H   UNL     1      46.359  14.706  17.584  0.00  0.00    +0.425 HD
ATOM      4  C   UNL     1      46.322  13.926  19.463  0.00  0.00    +0.267 C 
ATOM      5  C   UNL     1      45.208  14.859  19.906  0.00  0.00    +0.124 C 
ATOM      6  C   UNL     1      45.609  16.305  19.810  0.00  0.00    -0.049 A 
ATOM      7  C   UNL     1      44.740  17.262  20.322  0.00  0.00    -0.042 A 
ATOM      8  C   UNL     1      45.066  18.606  20.287  0.00  0.00    +0.156 A 
ATOM     13  C   UNL     1      46.275  19.008  19.731  0.00  0.00    +0.079 A 
ATOM     18  C   UNL     1      47.138  18.053  19.199  0.00  0.00    +0.007 A 
ATOM     19  C   UNL     1      48.430  18.461  18.599  0.00  0.00    -0.043 A 
ATOM     20  C   UNL     1      48.972  19.718  18.861  0.00  0.00    +0.097 A 
ATOM     23  C   UNL     1      50.194  20.069  18.298  0.00  0.00    +0.112 A 
ATOM     26  C   UNL     1      50.866  19.168  17.486  0.00  0.00    -0.042 A 
ATOM     27  C   UNL     1      50.323  17.924  17.224  0.00  0.00    +0.062 A 
ATOM     28  C   UNL     1      49.107  17.568  17.770  0.00  0.00    -0.107 A 
ATOM     29  C   UNL     1      48.501  16.225  17.473  0.00  0.00    +0.114 C 
ATOM     30  C   UNL     1      46.804  16.696  19.246  0.00  0.00    -0.154 A 
ATOM     31  C   UNL     1      47.768  15.678  18.696  0.00  0.00    +0.242 C 
ENDROOT
BRANCH  20  21
ATOM     21  O   UNL     1      48.307  20.597  19.658  0.00  0.00    -0.418 OA
ATOM     22  H   UNL     1      47.465  20.262  19.994  0.00  0.00    +0.377 HD
ENDBRANCH  20  21
BRANCH  23  24
ATOM     24  O   UNL     1      50.731  21.294  18.546  0.00  0.00    -0.302 OA
ATOM     25  C   UNL     1      51.912  21.334  19.350  0.00  0.00    +0.250 C 
ENDBRANCH  23  24
BRANCH   8   9
ATOM      9  O   UNL     1      44.206  19.530  20.793  0.00  0.00    -0.257 OA
BRANCH   9  10
ATOM     10  C   UNL     1      42.851  19.471  20.343  0.00  0.00    +0.398 C 
BRANCH  10  11
ATOM     11  O   UNL     1      42.410  20.782  19.986  0.00  0.00    -0.591 OA
ATOM     12  H   UNL     1      43.001  21.244  19.375  0.00  0.00    +0.404 HD
ENDBRANCH  10  11
ENDBRANCH   9  10
ENDBRANCH   8   9
BRANCH  13  14
ATOM     14  O   UNL     1      46.612  20.324  19.707  0.00  0.00    -0.231 OA
BRANCH  14  15
ATOM     15  C   UNL     1      45.830  21.180  18.871  0.00  0.00    +0.372 C 
BRANCH  15  16
ATOM     16  O   UNL     1      45.119  22.116  19.681  0.00  0.00    -0.590 OA
ATOM     17  H   UNL     1      45.078  21.876  20.617  0.00  0.00    +0.392 HD
ENDBRANCH  15  16
ENDBRANCH  14  15
ENDBRANCH  13  14
TORSDOF 8
ENDMDL
MODEL 5
REMARK VINA RESULT:      -5.3      3.240      4.969
REMARK  Name = ZINC95486343
REMARK  10 active torsions:
REMARK  status: ('A' for Active; 'I' for Inactive)
REMARK    1  A    between atoms: C1_1  and  N1_2
REMARK    2  A    between atoms: C6_7  and  O5_26
REMARK    3  A    between atoms: C7_8  and  O3_23
REMARK    4  A    between atoms: C14_16  and  O2_22
REMARK    5  A    between atoms: C15_17  and  O1_20
REMARK    6  A    between atoms: O1_20  and  C18_21
REMARK    7  A    between atoms: O3_23  and  C19_24
REMARK    8  A    between atoms: C19_24  and  O4_25
REMARK    9  A    between atoms: O5_26  and  C20_27
REMARK   10  A    between atoms: C20_27  and  O6_28
REMARK                            x       y       z     vdW  Elec       q    Type
REMARK                         _______ _______ _______ _____ _____    ______ ____
ROOT
ATOM      1  C   UNL     1      52.594  19.323  18.076  0.00  0.00    +0.328 C 
ATOM      2  N   UNL     1      51.201  19.357  18.543  0.00  0.00    -0.382 N 
ATOM      3  H   UNL     1      51.171  19.129  19.526  0.00  0.00    +0.425 HD
ATOM      4  C   UNL     1      50.651  20.697  18.337  0.00  0.00    +0.267 C 
ATOM      5  C   UNL     1      49.280  20.823  18.982  0.00  0.00    +0.124 C 
ATOM      6  C   UNL     1      48.458  19.577  18.811  0.00  0.00    -0.049 A 
ATOM      7  C   UNL     1      47.130  19.606  19.224  0.00  0.00    -0.042 A 
ATOM      8  C   UNL     1      46.315  18.499  19.068  0.00  0.00    +0.156 A 
ATOM     13  C   UNL     1      46.828  17.341  18.495  0.00  0.00    +0.079 A 
ATOM     18  C   UNL     1      48.163  17.302  18.101  0.00  0.00    +0.007 A 
ATOM     19  C   UNL     1      48.730  16.076  17.491  0.00  0.00    -0.043 A 
ATOM     20  C   UNL     1      47.896  15.084  16.978  0.00  0.00    +0.097 A 
ATOM     23  C   UNL     1      48.455  13.952  16.395  0.00  0.00    +0.112 A 
ATOM     26  C   UNL     1      49.833  13.817  16.327  0.00  0.00    -0.042 A 
ATOM     27  C   UNL     1      50.658  14.800  16.844  0.00  0.00    +0.062 A 
ATOM     28  C   UNL     1      50.114  15.924  17.431  0.00  0.00    -0.107 A 
ATOM     29  C   UNL     1      51.005  16.988  18.012  0.00  0.00    +0.114 C 
ATOM     30  C   UNL     1      48.977  18.429  18.254  0.00  0.00    -0.154 A 
ATOM     31  C   UNL     1      50.408  18.376  17.789  0.00  0.00    +0.242 C 
ENDROOT
BRANCH  20  21
ATOM     21  O   UNL     1      46.545  15.223  17.047  0.00  0.00    -0.418 OA
ATOM     22  H   UNL     1      46.134  15.490  16.214  0.00  0.00    +0.377 HD
ENDBRANCH  20  21
BRANCH  23  24
ATOM     24  O   UNL     1      47.651  12.978  15.892  0.00  0.00    -0.302 OA
ATOM     25  C   UNL     1      47.890  12.570  14.543  0.00  0.00    +0.250 C 
ENDBRANCH  23  24
BRANCH   8   9
ATOM      9  O   UNL     1      45.018  18.544  19.474  0.00  0.00    -0.257 OA
BRANCH   9  10
ATOM     10  C   UNL     1      44.426  19.837  19.610  0.00  0.00    +0.398 C 
BRANCH  10  11
ATOM     11  O   UNL     1      43.671  20.141  18.436  0.00  0.00    -0.591 OA
ATOM     12  H   UNL     1      42.715  20.050  18.548  0.00  0.00    +0.404 HD
ENDBRANCH  10  11
ENDBRANCH   9  10
ENDBRANCH   8   9
BRANCH  13  14
ATOM     14  O   UNL     1      46.032  16.253  18.323  0.00  0.00    -0.231 OA
BRANCH  14  15
ATOM     15  C   UNL     1      45.480  15.659  19.499  0.00  0.00    +0.372 C 
BRANCH  15  16
ATOM     16  O   UNL     1      45.047  14.330  19.203  0.00  0.00    -0.590 OA
ATOM     17  H   UNL     1      44.251  14.289  18.655  0.00  0.00    +0.392 HD
ENDBRANCH  15  16
ENDBRANCH  14  15
ENDBRANCH  13  14
TORSDOF 8
ENDMDL
MODEL 6
REMARK VINA RESULT:      -5.1      3.636      5.336
REMARK  Name = ZINC95486343
REMARK  10 active torsions:
REMARK  status: ('A' for Active; 'I' for Inactive)
REMARK    1  A    between atoms: C1_1  and  N1_2
REMARK    2  A    between atoms: C6_7  and  O5_26
REMARK    3  A    between atoms: C7_8  and  O3_23
REMARK    4  A    between atoms: C14_16  and  O2_22
REMARK    5  A    between atoms: C15_17  and  O1_20
REMARK    6  A    between atoms: O1_20  and  C18_21
REMARK    7  A    between atoms: O3_23  and  C19_24
REMARK    8  A    between atoms: C19_24  and  O4_25
REMARK    9  A    between atoms: O5_26  and  C20_27
REMARK   10  A    between atoms: C20_27  and  O6_28
REMARK                            x       y       z     vdW  Elec       q    Type
REMARK                         _______ _______ _______ _____ _____    ______ ____
ROOT
ATOM      1  C   UNL     1      52.288  18.340  18.027  0.00  0.00    +0.328 C 
ATOM      2  N   UNL     1      51.069  18.945  18.582  0.00  0.00    -0.382 N 
ATOM      3  H   UNL     1      51.153  19.011  19.586  0.00  0.00    +0.425 HD
ATOM      4  C   UNL     1      50.890  20.284  18.020  0.00  0.00    +0.267 C 
ATOM      5  C   UNL     1      49.751  21.013  18.713  0.00  0.00    +0.124 C 
ATOM      6  C   UNL     1      48.593  20.101  19.010  0.00  0.00    -0.049 A 
ATOM      7  C   UNL     1      47.425  20.666  19.509  0.00  0.00    -0.042 A 
ATOM      8  C   UNL     1      46.317  19.882  19.777  0.00  0.00    +0.156 A 
ATOM     13  C   UNL     1      46.371  18.512  19.550  0.00  0.00    +0.079 A 
ATOM     18  C   UNL     1      47.547  17.940  19.070  0.00  0.00    +0.007 A 
ATOM     19  C   UNL     1      47.626  16.481  18.823  0.00  0.00    -0.043 A 
ATOM     20  C   UNL     1      46.468  15.713  18.719  0.00  0.00    +0.097 A 
ATOM     23  C   UNL     1      46.571  14.348  18.469  0.00  0.00    +0.112 A 
ATOM     26  C   UNL     1      47.820  13.763  18.325  0.00  0.00    -0.042 A 
ATOM     27  C   UNL     1      48.967  14.528  18.436  0.00  0.00    +0.062 A 
ATOM     28  C   UNL     1      48.877  15.881  18.691  0.00  0.00    -0.107 A 
ATOM     29  C   UNL     1      50.120  16.715  18.832  0.00  0.00    +0.114 C 
ATOM     30  C   UNL     1      48.660  18.742  18.794  0.00  0.00    -0.154 A 
ATOM     31  C   UNL     1      49.909  18.108  18.243  0.00  0.00    +0.242 C 
ENDROOT
BRANCH  20  21
ATOM     21  O   UNL     1      45.247  16.293  18.861  0.00  0.00    -0.418 OA
ATOM     22  H   UNL     1      45.128  16.756  19.702  0.00  0.00    +0.377 HD
ENDBRANCH  20  21
BRANCH  23  24
ATOM     24  O   UNL     1      45.448  13.589  18.367  0.00  0.00    -0.302 OA
ATOM     25  C   UNL     1      45.497  12.475  17.472  0.00  0.00    +0.250 C 
ENDBRANCH  23  24
BRANCH   8   9
ATOM      9  O   UNL     1      45.181  20.450  20.263  0.00  0.00    -0.257 OA
BRANCH   9  10
ATOM     10  C   UNL     1      44.284  21.024  19.309  0.00  0.00    +0.398 C 
BRANCH  10  11
ATOM     11  O   UNL     1      43.435  20.005  18.779  0.00  0.00    -0.591 OA
ATOM     12  H   UNL     1      43.540  19.143  19.206  0.00  0.00    +0.404 HD
ENDBRANCH  10  11
ENDBRANCH   9  10
ENDBRANCH   8   9
BRANCH  13  14
ATOM     14  O   UNL     1      45.283  17.735  19.794  0.00  0.00    -0.231 OA
BRANCH  14  15
ATOM     15  C   UNL     1      44.790  17.711  21.135  0.00  0.00    +0.372 C 
BRANCH  15  16
ATOM     16  O   UNL     1      43.443  18.186  21.156  0.00  0.00    -0.590 OA
ATOM     17  H   UNL     1      42.780  17.494  21.026  0.00  0.00    +0.392 HD
ENDBRANCH  15  16
ENDBRANCH  14  15
ENDBRANCH  13  14
TORSDOF 8
ENDMDL
MODEL 7
REMARK VINA RESULT:      -5.0      2.325      5.314
REMARK  Name = ZINC95486343
REMARK  10 active torsions:
REMARK  status: ('A' for Active; 'I' for Inactive)
REMARK    1  A    between atoms: C1_1  and  N1_2
REMARK    2  A    between atoms: C6_7  and  O5_26
REMARK    3  A    between atoms: C7_8  and  O3_23
REMARK    4  A    between atoms: C14_16  and  O2_22
REMARK    5  A    between atoms: C15_17  and  O1_20
REMARK    6  A    between atoms: O1_20  and  C18_21
REMARK    7  A    between atoms: O3_23  and  C19_24
REMARK    8  A    between atoms: C19_24  and  O4_25
REMARK    9  A    between atoms: O5_26  and  C20_27
REMARK   10  A    between atoms: C20_27  and  O6_28
REMARK                            x       y       z     vdW  Elec       q    Type
REMARK                         _______ _______ _______ _____ _____    ______ ____
ROOT
ATOM      1  C   UNL     1      45.821  13.293  17.976  0.00  0.00    +0.328 C 
ATOM      2  N   UNL     1      47.032  14.125  17.932  0.00  0.00    -0.382 N 
ATOM      3  H   UNL     1      47.612  13.916  18.730  0.00  0.00    +0.425 HD
ATOM      4  C   UNL     1      47.773  13.840  16.703  0.00  0.00    +0.267 C 
ATOM      5  C   UNL     1      49.124  14.537  16.713  0.00  0.00    +0.124 C 
ATOM      6  C   UNL     1      49.044  15.916  17.307  0.00  0.00    -0.049 A 
ATOM      7  C   UNL     1      50.175  16.723  17.245  0.00  0.00    -0.042 A 
ATOM      8  C   UNL     1      50.155  18.010  17.751  0.00  0.00    +0.156 A 
ATOM     13  C   UNL     1      48.993  18.505  18.332  0.00  0.00    +0.079 A 
ATOM     18  C   UNL     1      47.866  17.691  18.414  0.00  0.00    +0.007 A 
ATOM     19  C   UNL     1      46.618  18.199  19.032  0.00  0.00    -0.043 A 
ATOM     20  C   UNL     1      46.419  19.566  19.216  0.00  0.00    +0.097 A 
ATOM     23  C   UNL     1      45.231  20.015  19.783  0.00  0.00    +0.112 A 
ATOM     26  C   UNL     1      44.255  19.105  20.158  0.00  0.00    -0.042 A 
ATOM     27  C   UNL     1      44.458  17.749  19.979  0.00  0.00    +0.062 A 
ATOM     28  C   UNL     1      45.636  17.291  19.425  0.00  0.00    -0.107 A 
ATOM     29  C   UNL     1      45.872  15.817  19.247  0.00  0.00    +0.114 C 
ATOM     30  C   UNL     1      47.892  16.394  17.892  0.00  0.00    -0.154 A 
ATOM     31  C   UNL     1      46.651  15.544  17.961  0.00  0.00    +0.242 C 
ENDROOT
BRANCH  20  21
ATOM     21  O   UNL     1      47.380  20.453  18.847  0.00  0.00    -0.418 OA
ATOM     22  H   UNL     1      48.222  20.335  19.309  0.00  0.00    +0.377 HD
ENDBRANCH  20  21
BRANCH  23  24
ATOM     24  O   UNL     1      45.027  21.347  19.968  0.00  0.00    -0.302 OA
ATOM     25  C   UNL     1      43.720  21.850  19.681  0.00  0.00    +0.250 C 
ENDBRANCH  23  24
BRANCH   8   9
ATOM      9  O   UNL     1      51.268  18.788  17.681  0.00  0.00    -0.257 OA
BRANCH   9  10
ATOM     10  C   UNL     1      51.571  19.374  16.413  0.00  0.00    +0.398 C 
BRANCH  10  11
ATOM     11  O   UNL     1      51.509  20.797  16.519  0.00  0.00    -0.591 OA
ATOM     12  H   UNL     1      52.342  21.244  16.311  0.00  0.00    +0.404 HD
ENDBRANCH  10  11
ENDBRANCH   9  10
ENDBRANCH   8   9
BRANCH  13  14
ATOM     14  O   UNL     1      48.958  19.774  18.817  0.00  0.00    -0.231 OA
BRANCH  14  15
ATOM     15  C   UNL     1      49.884  20.098  19.855  0.00  0.00    +0.372 C 
BRANCH  15  16
ATOM     16  O   UNL     1      50.795  21.094  19.387  0.00  0.00    -0.590 OA
ATOM     17  H   UNL     1      51.418  20.774  18.720  0.00  0.00    +0.392 HD
ENDBRANCH  15  16
ENDBRANCH  14  15
ENDBRANCH  13  14
TORSDOF 8
ENDMDL
MODEL 8
REMARK VINA RESULT:      -4.9      3.745      6.327
REMARK  Name = ZINC95486343
REMARK  10 active torsions:
REMARK  status: ('A' for Active; 'I' for Inactive)
REMARK    1  A    between atoms: C1_1  and  N1_2
REMARK    2  A    between atoms: C6_7  and  O5_26
REMARK    3  A    between atoms: C7_8  and  O3_23
REMARK    4  A    between atoms: C14_16  and  O2_22
REMARK    5  A    between atoms: C15_17  and  O1_20
REMARK    6  A    between atoms: O1_20  and  C18_21
REMARK    7  A    between atoms: O3_23  and  C19_24
REMARK    8  A    between atoms: C19_24  and  O4_25
REMARK    9  A    between atoms: O5_26  and  C20_27
REMARK   10  A    between atoms: C20_27  and  O6_28
REMARK                            x       y       z     vdW  Elec       q    Type
REMARK                         _______ _______ _______ _____ _____    ______ ____
ROOT
ATOM      1  C   UNL     1      45.088  13.384  22.505  0.00  0.00    +0.328 C 
ATOM      2  N   UNL     1      45.998  14.173  21.664  0.00  0.00    -0.382 N 
ATOM      3  H   UNL     1      46.695  14.615  22.245  0.00  0.00    +0.425 HD
ATOM      4  C   UNL     1      46.658  13.292  20.700  0.00  0.00    +0.267 C 
ATOM      5  C   UNL     1      47.746  14.036  19.943  0.00  0.00    +0.124 C 
ATOM      6  C   UNL     1      47.338  15.443  19.604  0.00  0.00    -0.049 A 
ATOM      7  C   UNL     1      48.177  16.190  18.786  0.00  0.00    -0.042 A 
ATOM      8  C   UNL     1      47.843  17.481  18.417  0.00  0.00    +0.156 A 
ATOM     13  C   UNL     1      46.655  18.042  18.872  0.00  0.00    +0.079 A 
ATOM     18  C   UNL     1      45.823  17.304  19.710  0.00  0.00    +0.007 A 
ATOM     19  C   UNL     1      44.554  17.884  20.208  0.00  0.00    -0.043 A 
ATOM     20  C   UNL     1      43.992  19.002  19.594  0.00  0.00    +0.097 A 
ATOM     23  C   UNL     1      42.792  19.516  20.071  0.00  0.00    +0.112 A 
ATOM     26  C   UNL     1      42.161  18.915  21.150  0.00  0.00    -0.042 A 
ATOM     27  C   UNL     1      42.725  17.809  21.761  0.00  0.00    +0.062 A 
ATOM     28  C   UNL     1      43.919  17.296  21.300  0.00  0.00    -0.107 A 
ATOM     29  C   UNL     1      44.548  16.106  21.972  0.00  0.00    +0.114 C 
ATOM     30  C   UNL     1      46.165  15.996  20.070  0.00  0.00    -0.154 A 
ATOM     31  C   UNL     1      45.233  15.204  20.948  0.00  0.00    +0.242 C 
ENDROOT
BRANCH  20  21
ATOM     21  O   UNL     1      44.616  19.587  18.536  0.00  0.00    -0.418 OA
ATOM     22  H   UNL     1      44.388  20.519  18.413  0.00  0.00    +0.377 HD
ENDBRANCH  20  21
BRANCH  23  24
ATOM     24  O   UNL     1      42.236  20.608  19.480  0.00  0.00    -0.302 OA
ATOM     25  C   UNL     1      41.016  20.407  18.763  0.00  0.00    +0.250 C 
ENDBRANCH  23  24
BRANCH   8   9
ATOM      9  O   UNL     1      48.674  18.198  17.614  0.00  0.00    -0.257 OA
BRANCH   9  10
ATOM     10  C   UNL     1      49.969  17.647  17.364  0.00  0.00    +0.398 C 
BRANCH  10  11
ATOM     11  O   UNL     1      50.719  18.547  16.546  0.00  0.00    -0.591 OA
ATOM     12  H   UNL     1      50.192  19.258  16.156  0.00  0.00    +0.404 HD
ENDBRANCH  10  11
ENDBRANCH   9  10
ENDBRANCH   8   9
BRANCH  13  14
ATOM     14  O   UNL     1      46.310  19.303  18.502  0.00  0.00    -0.231 OA
BRANCH  14  15
ATOM     15  C   UNL     1      47.192  20.358  18.889  0.00  0.00    +0.372 C 
BRANCH  15  16
ATOM     16  O   UNL     1      46.867  20.791  20.210  0.00  0.00    -0.590 OA
ATOM     17  H   UNL     1      45.928  20.717  20.428  0.00  0.00    +0.392 HD
ENDBRANCH  15  16
ENDBRANCH  14  15
ENDBRANCH  13  14
TORSDOF 8
ENDMDL
MODEL 9
REMARK VINA RESULT:      -4.7      3.113      6.605
REMARK  Name = ZINC95486343
REMARK  10 active torsions:
REMARK  status: ('A' for Active; 'I' for Inactive)
REMARK    1  A    between atoms: C1_1  and  N1_2
REMARK    2  A    between atoms: C6_7  and  O5_26
REMARK    3  A    between atoms: C7_8  and  O3_23
REMARK    4  A    between atoms: C14_16  and  O2_22
REMARK    5  A    between atoms: C15_17  and  O1_20
REMARK    6  A    between atoms: O1_20  and  C18_21
REMARK    7  A    between atoms: O3_23  and  C19_24
REMARK    8  A    between atoms: C19_24  and  O4_25
REMARK    9  A    between atoms: O5_26  and  C20_27
REMARK   10  A    between atoms: C20_27  and  O6_28
REMARK                            x       y       z     vdW  Elec       q    Type
REMARK                         _______ _______ _______ _____ _____    ______ ____
ROOT
ATOM      1  C   UNL     1      52.130  21.181  18.155  0.00  0.00    +0.328 C 
ATOM      2  N   UNL     1      51.450  19.918  17.837  0.00  0.00    -0.382 N 
ATOM      3  H   UNL     1      50.951  20.015  16.966  0.00  0.00    +0.425 HD
ATOM      4  C   UNL     1      52.440  18.849  17.714  0.00  0.00    +0.267 C 
ATOM      5  C   UNL     1      51.797  17.572  17.198  0.00  0.00    +0.124 C 
ATOM      6  C   UNL     1      50.434  17.346  17.792  0.00  0.00    -0.049 A 
ATOM      7  C   UNL     1      49.792  16.143  17.521  0.00  0.00    -0.042 A 
ATOM      8  C   UNL     1      48.549  15.866  18.061  0.00  0.00    +0.156 A 
ATOM     13  C   UNL     1      47.929  16.802  18.881  0.00  0.00    +0.079 A 
ATOM     18  C   UNL     1      48.560  18.017  19.136  0.00  0.00    +0.007 A 
ATOM     19  C   UNL     1      47.916  19.030  20.005  0.00  0.00    -0.043 A 
ATOM     20  C   UNL     1      46.869  18.676  20.855  0.00  0.00    +0.097 A 
ATOM     23  C   UNL     1      46.294  19.643  21.673  0.00  0.00    +0.112 A 
ATOM     26  C   UNL     1      46.763  20.947  21.639  0.00  0.00    -0.042 A 
ATOM     27  C   UNL     1      47.797  21.295  20.789  0.00  0.00    +0.062 A 
ATOM     28  C   UNL     1      48.370  20.346  19.968  0.00  0.00    -0.107 A 
ATOM     29  C   UNL     1      49.481  20.723  19.027  0.00  0.00    +0.114 C 
ATOM     30  C   UNL     1      49.821  18.285  18.593  0.00  0.00    -0.154 A 
ATOM     31  C   UNL     1      50.500  19.591  18.910  0.00  0.00    +0.242 C 
ENDROOT
BRANCH  20  21
ATOM     21  O   UNL     1      46.414  17.395  20.884  0.00  0.00    -0.418 OA
ATOM     22  H   UNL     1      45.634  17.244  20.332  0.00  0.00    +0.377 HD
ENDBRANCH  20  21
BRANCH  23  24
ATOM     24  O   UNL     1      45.272  19.309  22.505  0.00  0.00    -0.302 OA
ATOM     25  C   UNL     1      43.964  19.753  22.138  0.00  0.00    +0.250 C 
ENDBRANCH  23  24
BRANCH   8   9
ATOM      9  O   UNL     1      47.935  14.683  17.789  0.00  0.00    -0.257 OA
BRANCH   9  10
ATOM     10  C   UNL     1      48.184  14.104  16.506  0.00  0.00    +0.398 C 
BRANCH  10  11
ATOM     11  O   UNL     1      46.990  14.151  15.723  0.00  0.00    -0.591 OA
ATOM     12  H   UNL     1      47.146  14.199  14.769  0.00  0.00    +0.404 HD
ENDBRANCH  10  11
ENDBRANCH   9  10
ENDBRANCH   8   9
BRANCH  13  14
ATOM     14  O   UNL     1      46.715  16.533  19.429  0.00  0.00    -0.231 OA
BRANCH  14  15
ATOM     15  C   UNL     1      45.716  15.992  18.562  0.00  0.00    +0.372 C 
BRANCH  15  16
ATOM     16  O   UNL     1      45.111  14.858  19.183  0.00  0.00    -0.590 OA
ATOM     17  H   UNL     1      45.114  14.890  20.150  0.00  0.00    +0.392 HD
ENDBRANCH  15  16
ENDBRANCH  14  15
ENDBRANCH  13  14
TORSDOF 8
ENDMDL
