MODEL 1
REMARK VINA RESULT:      -5.7      0.000      0.000
REMARK  Name = ZINC95486226
REMARK  6 active torsions:
REMARK  status: ('A' for Active; 'I' for Inactive)
REMARK    1  A    between atoms: C1_1  and  C2_2
REMARK    2  A    between atoms: C2_2  and  C3_3
REMARK    3  A    between atoms: C5_6  and  C18_29
REMARK    4  A    between atoms: C6_8  and  C17_26
REMARK    5  A    between atoms: C6_8  and  O6_28
REMARK    6  A    between atoms: C17_26  and  O5_27
REMARK                            x       y       z     vdW  Elec       q    Type
REMARK                         _______ _______ _______ _____ _____    ______ ____
ROOT
ATOM      3  C   UNL     1      47.509  20.622  19.485  0.00  0.00    +0.028 C 
ATOM      4  C   UNL     1      46.571  19.497  19.043  0.00  0.00    +0.055 C 
ATOM      5  C   UNL     1      47.042  18.173  19.650  0.00  0.00    +0.029 C 
ATOM      6  C   UNL     1      45.970  17.639  20.602  0.00  0.00    +0.050 C 
ATOM      7  C   UNL     1      47.282  17.159  18.530  0.00  0.00    +0.163 C 
ATOM     13  C   UNL     1      48.599  16.463  18.758  0.00  0.00    +0.469 C 
ATOM     14  O   UNL     1      49.521  16.432  17.783  0.00  0.00    -0.330 OA
ATOM     15  C   UNL     1      50.882  16.624  18.175  0.00  0.00    +0.289 C 
ATOM     16  C   UNL     1      51.473  17.771  17.394  0.00  0.00    -0.148 C 
ATOM     17  C   UNL     1      51.384  17.917  16.096  0.00  0.00    -0.003 C 
ATOM     18  C   UNL     1      52.107  19.167  15.707  0.00  0.00    +0.194 C 
ATOM     19  N   UNL     1      52.479  19.941  16.927  0.00  0.00    -0.434 NA
ATOM     20  C   UNL     1      51.355  20.937  17.097  0.00  0.00    +0.152 C 
ATOM     21  C   UNL     1      51.151  20.999  18.623  0.00  0.00    +0.213 C 
ATOM     22  O   UNL     1      49.801  21.333  18.924  0.00  0.00    -0.333 OA
ATOM     23  C   UNL     1      51.486  19.587  19.138  0.00  0.00    +0.015 C 
ATOM     24  C   UNL     1      52.242  18.919  17.986  0.00  0.00    +0.174 C 
ATOM     25  O   UNL     1      48.824  15.931  19.820  0.00  0.00    -0.488 OA
ATOM     26  C   UNL     1      48.906  20.334  18.995  0.00  0.00    +0.462 C 
ATOM     27  O   UNL     1      49.217  19.214  18.671  0.00  0.00    -0.478 OA
ENDROOT
BRANCH   3   2
ATOM      1  C   UNL     1      47.000  22.090  21.440  0.00  0.00    +0.022 C 
ATOM      2  C   UNL     1      47.512  20.713  21.012  0.00  0.00    +0.038 C 
ENDBRANCH   3   2
BRANCH   7   8
ATOM      8  O   UNL     1      46.228  16.195  18.527  0.00  0.00    -0.530 OA
ATOM      9  H   UNL     1      45.359  16.560  18.745  0.00  0.00    +0.386 HD
ENDBRANCH   7   8
BRANCH   7  10
ATOM     10  C   UNL     1      47.315  17.884  17.184  0.00  0.00    +0.186 C 
BRANCH  10  11
ATOM     11  O   UNL     1      46.874  16.996  16.154  0.00  0.00    -0.560 OA
ATOM     12  H   UNL     1      47.004  16.061  16.359  0.00  0.00    +0.380 HD
ENDBRANCH  10  11
ENDBRANCH   7  10
TORSDOF 4
ENDMDL
MODEL 2
REMARK VINA RESULT:      -5.4      3.307      5.988
REMARK  Name = ZINC95486226
REMARK  6 active torsions:
REMARK  status: ('A' for Active; 'I' for Inactive)
REMARK    1  A    between atoms: C1_1  and  C2_2
REMARK    2  A    between atoms: C2_2  and  C3_3
REMARK    3  A    between atoms: C5_6  and  C18_29
REMARK    4  A    between atoms: C6_8  and  C17_26
REMARK    5  A    between atoms: C6_8  and  O6_28
REMARK    6  A    between atoms: C17_26  and  O5_27
REMARK                            x       y       z     vdW  Elec       q    Type
REMARK                         _______ _______ _______ _____ _____    ______ ____
ROOT
ATOM      3  C   UNL     1      45.227  14.877  20.400  0.00  0.00    +0.028 C 
ATOM      4  C   UNL     1      46.065  14.649  19.140  0.00  0.00    +0.055 C 
ATOM      5  C   UNL     1      47.438  15.302  19.316  0.00  0.00    +0.029 C 
ATOM      6  C   UNL     1      48.522  14.224  19.291  0.00  0.00    +0.050 C 
ATOM      7  C   UNL     1      47.676  16.295  18.177  0.00  0.00    +0.163 C 
ATOM     13  C   UNL     1      48.214  17.585  18.740  0.00  0.00    +0.469 C 
ATOM     14  O   UNL     1      47.612  18.749  18.447  0.00  0.00    -0.330 OA
ATOM     15  C   UNL     1      47.481  19.694  19.511  0.00  0.00    +0.289 C 
ATOM     16  C   UNL     1      46.029  20.076  19.669  0.00  0.00    -0.148 C 
ATOM     17  C   UNL     1      45.240  20.434  18.688  0.00  0.00    -0.003 C 
ATOM     18  C   UNL     1      43.891  20.744  19.252  0.00  0.00    +0.194 C 
ATOM     19  N   UNL     1      43.827  20.323  20.682  0.00  0.00    -0.434 NA
ATOM     20  C   UNL     1      43.221  18.940  20.641  0.00  0.00    +0.152 C 
ATOM     21  C   UNL     1      43.992  18.171  21.731  0.00  0.00    +0.213 C 
ATOM     22  O   UNL     1      44.041  16.784  21.412  0.00  0.00    -0.333 OA
ATOM     23  C   UNL     1      45.409  18.775  21.732  0.00  0.00    +0.015 C 
ATOM     24  C   UNL     1      45.273  20.094  20.967  0.00  0.00    +0.174 C 
ATOM     25  O   UNL     1      49.187  17.572  19.455  0.00  0.00    -0.488 OA
ATOM     26  C   UNL     1      45.035  16.356  20.617  0.00  0.00    +0.462 C 
ATOM     27  O   UNL     1      45.770  17.149  20.080  0.00  0.00    -0.478 OA
ENDROOT
BRANCH   3   2
ATOM      1  C   UNL     1      45.082  13.168  22.216  0.00  0.00    +0.022 C 
ATOM      2  C   UNL     1      45.947  14.273  21.607  0.00  0.00    +0.038 C 
ENDBRANCH   3   2
BRANCH   7   8
ATOM      8  O   UNL     1      48.622  15.746  17.258  0.00  0.00    -0.530 OA
ATOM      9  H   UNL     1      48.246  15.513  16.398  0.00  0.00    +0.386 HD
ENDBRANCH   7   8
BRANCH   7  10
ATOM     10  C   UNL     1      46.358  16.566  17.451  0.00  0.00    +0.186 C 
BRANCH  10  11
ATOM     11  O   UNL     1      46.626  16.926  16.094  0.00  0.00    -0.560 OA
ATOM     12  H   UNL     1      47.263  16.348  15.652  0.00  0.00    +0.380 HD
ENDBRANCH  10  11
ENDBRANCH   7  10
TORSDOF 4
ENDMDL
MODEL 3
REMARK VINA RESULT:      -5.2      2.622      5.520
REMARK  Name = ZINC95486226
REMARK  6 active torsions:
REMARK  status: ('A' for Active; 'I' for Inactive)
REMARK    1  A    between atoms: C1_1  and  C2_2
REMARK    2  A    between atoms: C2_2  and  C3_3
REMARK    3  A    between atoms: C5_6  and  C18_29
REMARK    4  A    between atoms: C6_8  and  C17_26
REMARK    5  A    between atoms: C6_8  and  O6_28
REMARK    6  A    between atoms: C17_26  and  O5_27
REMARK                            x       y       z     vdW  Elec       q    Type
REMARK                         _______ _______ _______ _____ _____    ______ ____
ROOT
ATOM      3  C   UNL     1      49.606  20.206  19.805  0.00  0.00    +0.028 C 
ATOM      4  C   UNL     1      49.772  18.705  19.563  0.00  0.00    +0.055 C 
ATOM      5  C   UNL     1      48.893  18.278  18.385  0.00  0.00    +0.029 C 
ATOM      6  C   UNL     1      49.779  17.769  17.247  0.00  0.00    +0.050 C 
ATOM      7  C   UNL     1      47.948  17.163  18.835  0.00  0.00    +0.163 C 
ATOM     13  C   UNL     1      46.554  17.456  18.343  0.00  0.00    +0.469 C 
ATOM     14  O   UNL     1      45.526  17.471  19.204  0.00  0.00    -0.330 OA
ATOM     15  C   UNL     1      44.550  18.501  19.028  0.00  0.00    +0.289 C 
ATOM     16  C   UNL     1      44.402  19.278  20.314  0.00  0.00    -0.148 C 
ATOM     17  C   UNL     1      44.240  18.741  21.497  0.00  0.00    -0.003 C 
ATOM     18  C   UNL     1      44.120  19.840  22.504  0.00  0.00    +0.194 C 
ATOM     19  N   UNL     1      44.455  21.149  21.873  0.00  0.00    -0.434 NA
ATOM     20  C   UNL     1      45.919  21.354  22.187  0.00  0.00    +0.152 C 
ATOM     21  C   UNL     1      46.482  21.990  20.902  0.00  0.00    +0.213 C 
ATOM     22  O   UNL     1      47.859  21.661  20.753  0.00  0.00    -0.333 OA
ATOM     23  C   UNL     1      45.656  21.386  19.751  0.00  0.00    +0.015 C 
ATOM     24  C   UNL     1      44.427  20.776  20.430  0.00  0.00    +0.174 C 
ATOM     25  O   UNL     1      46.364  17.679  17.170  0.00  0.00    -0.488 OA
ATOM     26  C   UNL     1      48.168  20.507  20.140  0.00  0.00    +0.462 C 
ATOM     27  O   UNL     1      47.300  19.717  19.857  0.00  0.00    -0.478 OA
ENDROOT
BRANCH   3   2
ATOM      1  C   UNL     1      51.530  21.129  18.505  0.00  0.00    +0.022 C 
ATOM      2  C   UNL     1      50.008  20.973  18.543  0.00  0.00    +0.038 C 
ENDBRANCH   3   2
BRANCH   7   8
ATOM      8  O   UNL     1      48.391  15.917  18.296  0.00  0.00    -0.530 OA
ATOM      9  H   UNL     1      48.288  15.844  17.337  0.00  0.00    +0.386 HD
ENDBRANCH   7   8
BRANCH   7  10
ATOM     10  C   UNL     1      47.942  17.084  20.363  0.00  0.00    +0.186 C 
BRANCH  10  11
ATOM     11  O   UNL     1      47.295  15.879  20.776  0.00  0.00    -0.560 OA
ATOM     12  H   UNL     1      47.582  15.093  20.291  0.00  0.00    +0.380 HD
ENDBRANCH  10  11
ENDBRANCH   7  10
TORSDOF 4
ENDMDL
MODEL 4
REMARK VINA RESULT:      -5.0      2.507      5.060
REMARK  Name = ZINC95486226
REMARK  6 active torsions:
REMARK  status: ('A' for Active; 'I' for Inactive)
REMARK    1  A    between atoms: C1_1  and  C2_2
REMARK    2  A    between atoms: C2_2  and  C3_3
REMARK    3  A    between atoms: C5_6  and  C18_29
REMARK    4  A    between atoms: C6_8  and  C17_26
REMARK    5  A    between atoms: C6_8  and  O6_28
REMARK    6  A    between atoms: C17_26  and  O5_27
REMARK                            x       y       z     vdW  Elec       q    Type
REMARK                         _______ _______ _______ _____ _____    ______ ____
ROOT
ATOM      3  C   UNL     1      47.376  20.105  19.930  0.00  0.00    +0.028 C 
ATOM      4  C   UNL     1      48.895  20.162  20.097  0.00  0.00    +0.055 C 
ATOM      5  C   UNL     1      49.567  19.844  18.759  0.00  0.00    +0.029 C 
ATOM      6  C   UNL     1      50.353  21.066  18.280  0.00  0.00    +0.050 C 
ATOM      7  C   UNL     1      50.519  18.661  18.938  0.00  0.00    +0.163 C 
ATOM     13  C   UNL     1      50.316  17.678  17.814  0.00  0.00    +0.469 C 
ATOM     14  O   UNL     1      50.071  16.386  18.086  0.00  0.00    -0.330 OA
ATOM     15  C   UNL     1      49.088  15.732  17.282  0.00  0.00    +0.289 C 
ATOM     16  C   UNL     1      48.025  15.136  18.172  0.00  0.00    -0.148 C 
ATOM     17  C   UNL     1      48.262  14.401  19.229  0.00  0.00    -0.003 C 
ATOM     18  C   UNL     1      46.953  13.995  19.828  0.00  0.00    +0.194 C 
ATOM     19  N   UNL     1      45.839  14.741  19.173  0.00  0.00    -0.434 NA
ATOM     20  C   UNL     1      45.603  15.930  20.075  0.00  0.00    +0.152 C 
ATOM     21  C   UNL     1      45.304  17.079  19.093  0.00  0.00    +0.213 C 
ATOM     22  O   UNL     1      45.694  18.325  19.661  0.00  0.00    -0.333 OA
ATOM     23  C   UNL     1      46.142  16.772  17.838  0.00  0.00    +0.015 C 
ATOM     24  C   UNL     1      46.543  15.302  17.985  0.00  0.00    +0.174 C 
ATOM     25  O   UNL     1      50.373  18.053  16.667  0.00  0.00    -0.488 OA
ATOM     26  C   UNL     1      46.967  18.718  19.501  0.00  0.00    +0.462 C 
ATOM     27  O   UNL     1      47.780  17.969  19.017  0.00  0.00    -0.478 OA
ENDROOT
BRANCH   3   2
ATOM      1  C   UNL     1      45.523  21.602  19.178  0.00  0.00    +0.022 C 
ATOM      2  C   UNL     1      46.941  21.117  18.869  0.00  0.00    +0.038 C 
ENDBRANCH   3   2
BRANCH   7   8
ATOM      8  O   UNL     1      51.868  19.129  18.922  0.00  0.00    -0.530 OA
ATOM      9  H   UNL     1      52.347  18.925  18.107  0.00  0.00    +0.386 HD
ENDBRANCH   7   8
BRANCH   7  10
ATOM     10  C   UNL     1      50.233  17.973  20.274  0.00  0.00    +0.186 C 
BRANCH  10  11
ATOM     11  O   UNL     1      51.318  17.104  20.605  0.00  0.00    -0.560 OA
ATOM     12  H   UNL     1      51.632  17.195  21.514  0.00  0.00    +0.380 HD
ENDBRANCH  10  11
ENDBRANCH   7  10
TORSDOF 4
ENDMDL
MODEL 5
REMARK VINA RESULT:      -4.9      2.036      3.244
REMARK  Name = ZINC95486226
REMARK  6 active torsions:
REMARK  status: ('A' for Active; 'I' for Inactive)
REMARK    1  A    between atoms: C1_1  and  C2_2
REMARK    2  A    between atoms: C2_2  and  C3_3
REMARK    3  A    between atoms: C5_6  and  C18_29
REMARK    4  A    between atoms: C6_8  and  C17_26
REMARK    5  A    between atoms: C6_8  and  O6_28
REMARK    6  A    between atoms: C17_26  and  O5_27
REMARK                            x       y       z     vdW  Elec       q    Type
REMARK                         _______ _______ _______ _____ _____    ______ ____
ROOT
ATOM      3  C   UNL     1      45.270  17.660  20.773  0.00  0.00    +0.028 C 
ATOM      4  C   UNL     1      45.067  16.833  19.502  0.00  0.00    +0.055 C 
ATOM      5  C   UNL     1      46.132  15.736  19.432  0.00  0.00    +0.029 C 
ATOM      6  C   UNL     1      45.457  14.365  19.497  0.00  0.00    +0.050 C 
ATOM      7  C   UNL     1      46.906  15.863  18.118  0.00  0.00    +0.163 C 
ATOM     13  C   UNL     1      48.383  15.748  18.392  0.00  0.00    +0.469 C 
ATOM     14  O   UNL     1      49.224  16.699  17.956  0.00  0.00    -0.330 OA
ATOM     15  C   UNL     1      50.273  17.091  18.843  0.00  0.00    +0.289 C 
ATOM     16  C   UNL     1      50.213  18.583  19.064  0.00  0.00    -0.148 C 
ATOM     17  C   UNL     1      50.111  19.475  18.112  0.00  0.00    -0.003 C 
ATOM     18  C   UNL     1      50.096  20.835  18.735  0.00  0.00    +0.194 C 
ATOM     19  N   UNL     1      49.967  20.715  20.217  0.00  0.00    -0.434 NA
ATOM     20  C   UNL     1      48.484  20.849  20.477  0.00  0.00    +0.152 C 
ATOM     21  C   UNL     1      48.220  19.839  21.609  0.00  0.00    +0.213 C 
ATOM     22  O   UNL     1      46.881  19.360  21.537  0.00  0.00    -0.333 OA
ATOM     23  C   UNL     1      49.217  18.690  21.373  0.00  0.00    +0.015 C 
ATOM     24  C   UNL     1      50.253  19.264  20.403  0.00  0.00    +0.174 C 
ATOM     25  O   UNL     1      48.810  14.799  19.006  0.00  0.00    -0.488 OA
ATOM     26  C   UNL     1      46.631  18.307  20.742  0.00  0.00    +0.462 C 
ATOM     27  O   UNL     1      47.490  17.881  20.008  0.00  0.00    -0.478 OA
ENDROOT
BRANCH   3   2
ATOM      1  C   UNL     1      43.698  16.602  22.401  0.00  0.00    +0.022 C 
ATOM      2  C   UNL     1      45.166  16.746  21.996  0.00  0.00    +0.038 C 
ENDBRANCH   3   2
BRANCH   7   8
ATOM      8  O   UNL     1      46.505  14.821  17.227  0.00  0.00    -0.530 OA
ATOM      9  H   UNL     1      47.236  14.279  16.901  0.00  0.00    +0.386 HD
ENDBRANCH   7   8
BRANCH   7  10
ATOM     10  C   UNL     1      46.610  17.221  17.480  0.00  0.00    +0.186 C 
BRANCH  10  11
ATOM     11  O   UNL     1      46.894  17.163  16.081  0.00  0.00    -0.560 OA
ATOM     12  H   UNL     1      47.767  17.503  15.842  0.00  0.00    +0.380 HD
ENDBRANCH  10  11
ENDBRANCH   7  10
TORSDOF 4
ENDMDL
MODEL 6
REMARK VINA RESULT:      -4.8      2.462      4.360
REMARK  Name = ZINC95486226
REMARK  6 active torsions:
REMARK  status: ('A' for Active; 'I' for Inactive)
REMARK    1  A    between atoms: C1_1  and  C2_2
REMARK    2  A    between atoms: C2_2  and  C3_3
REMARK    3  A    between atoms: C5_6  and  C18_29
REMARK    4  A    between atoms: C6_8  and  C17_26
REMARK    5  A    between atoms: C6_8  and  O6_28
REMARK    6  A    between atoms: C17_26  and  O5_27
REMARK                            x       y       z     vdW  Elec       q    Type
REMARK                         _______ _______ _______ _____ _____    ______ ____
ROOT
ATOM      3  C   UNL     1      49.302  20.355  18.891  0.00  0.00    +0.028 C 
ATOM      4  C   UNL     1      47.931  21.026  18.984  0.00  0.00    +0.055 C 
ATOM      5  C   UNL     1      47.220  20.557  20.257  0.00  0.00    +0.029 C 
ATOM      6  C   UNL     1      47.003  21.752  21.188  0.00  0.00    +0.050 C 
ATOM      7  C   UNL     1      45.868  19.945  19.887  0.00  0.00    +0.163 C 
ATOM     13  C   UNL     1      45.687  18.645  20.628  0.00  0.00    +0.469 C 
ATOM     14  O   UNL     1      45.385  17.524  19.955  0.00  0.00    -0.330 OA
ATOM     15  C   UNL     1      46.040  16.324  20.370  0.00  0.00    +0.289 C 
ATOM     16  C   UNL     1      46.752  15.706  19.192  0.00  0.00    -0.148 C 
ATOM     17  C   UNL     1      46.214  15.506  18.015  0.00  0.00    -0.003 C 
ATOM     18  C   UNL     1      47.234  14.864  17.129  0.00  0.00    +0.194 C 
ATOM     19  N   UNL     1      48.569  14.881  17.794  0.00  0.00    -0.434 NA
ATOM     20  C   UNL     1      49.242  16.122  17.256  0.00  0.00    +0.152 C 
ATOM     21  C   UNL     1      50.001  16.682  18.474  0.00  0.00    +0.213 C 
ATOM     22  O   UNL     1      50.132  18.096  18.363  0.00  0.00    -0.333 OA
ATOM     23  C   UNL     1      49.142  16.314  19.697  0.00  0.00    +0.015 C 
ATOM     24  C   UNL     1      48.179  15.237  19.189  0.00  0.00    +0.174 C 
ATOM     25  O   UNL     1      45.813  18.613  21.829  0.00  0.00    -0.488 OA
ATOM     26  C   UNL     1      49.129  18.859  18.826  0.00  0.00    +0.462 C 
ATOM     27  O   UNL     1      48.095  18.351  19.188  0.00  0.00    -0.478 OA
ENDROOT
BRANCH   3   2
ATOM      1  C   UNL     1      51.533  21.152  19.682  0.00  0.00    +0.022 C 
ATOM      2  C   UNL     1      50.133  20.720  20.122  0.00  0.00    +0.038 C 
ENDBRANCH   3   2
BRANCH   7   8
ATOM      8  O   UNL     1      44.822  20.848  20.247  0.00  0.00    -0.530 OA
ATOM      9  H   UNL     1      45.091  21.777  20.261  0.00  0.00    +0.386 HD
ENDBRANCH   7   8
BRANCH   7  10
ATOM     10  C   UNL     1      45.821  19.684  18.380  0.00  0.00    +0.186 C 
BRANCH  10  11
ATOM     11  O   UNL     1      44.503  19.277  18.009  0.00  0.00    -0.560 OA
ATOM     12  H   UNL     1      43.869  19.282  18.739  0.00  0.00    +0.380 HD
ENDBRANCH  10  11
ENDBRANCH   7  10
TORSDOF 4
ENDMDL
MODEL 7
REMARK VINA RESULT:      -4.8      2.614      4.387
REMARK  Name = ZINC95486226
REMARK  6 active torsions:
REMARK  status: ('A' for Active; 'I' for Inactive)
REMARK    1  A    between atoms: C1_1  and  C2_2
REMARK    2  A    between atoms: C2_2  and  C3_3
REMARK    3  A    between atoms: C5_6  and  C18_29
REMARK    4  A    between atoms: C6_8  and  C17_26
REMARK    5  A    between atoms: C6_8  and  O6_28
REMARK    6  A    between atoms: C17_26  and  O5_27
REMARK                            x       y       z     vdW  Elec       q    Type
REMARK                         _______ _______ _______ _____ _____    ______ ____
ROOT
ATOM      3  C   UNL     1      46.059  15.082  20.518  0.00  0.00    +0.028 C 
ATOM      4  C   UNL     1      45.658  14.895  19.054  0.00  0.00    +0.055 C 
ATOM      5  C   UNL     1      46.804  14.223  18.293  0.00  0.00    +0.029 C 
ATOM      6  C   UNL     1      46.344  12.857  17.783  0.00  0.00    +0.050 C 
ATOM      7  C   UNL     1      47.210  15.101  17.108  0.00  0.00    +0.163 C 
ATOM     13  C   UNL     1      48.712  15.216  17.060  0.00  0.00    +0.469 C 
ATOM     14  O   UNL     1      49.293  16.425  17.021  0.00  0.00    -0.330 OA
ATOM     15  C   UNL     1      50.468  16.603  17.813  0.00  0.00    +0.289 C 
ATOM     16  C   UNL     1      50.276  17.777  18.742  0.00  0.00    -0.148 C 
ATOM     17  C   UNL     1      49.832  18.953  18.377  0.00  0.00    -0.003 C 
ATOM     18  C   UNL     1      49.798  19.842  19.579  0.00  0.00    +0.194 C 
ATOM     19  N   UNL     1      50.051  19.042  20.812  0.00  0.00    -0.434 NA
ATOM     20  C   UNL     1      48.672  18.702  21.329  0.00  0.00    +0.152 C 
ATOM     21  C   UNL     1      48.823  17.259  21.848  0.00  0.00    +0.213 C 
ATOM     22  O   UNL     1      47.579  16.572  21.758  0.00  0.00    -0.333 OA
ATOM     23  C   UNL     1      49.870  16.601  20.930  0.00  0.00    +0.015 C 
ATOM     24  C   UNL     1      50.556  17.771  20.218  0.00  0.00    +0.174 C 
ATOM     25  O   UNL     1      49.393  14.218  17.057  0.00  0.00    -0.488 OA
ATOM     26  C   UNL     1      47.278  15.965  20.599  0.00  0.00    +0.462 C 
ATOM     27  O   UNL     1      47.978  16.125  19.628  0.00  0.00    -0.478 OA
ENDROOT
BRANCH   3   2
ATOM      1  C   UNL     1      45.199  13.271  22.008  0.00  0.00    +0.022 C 
ATOM      2  C   UNL     1      46.374  13.719  21.137  0.00  0.00    +0.038 C 
ENDBRANCH   3   2
BRANCH   7   8
ATOM      8  O   UNL     1      46.738  14.512  15.895  0.00  0.00    -0.530 OA
ATOM      9  H   UNL     1      45.787  14.615  15.751  0.00  0.00    +0.386 HD
ENDBRANCH   7   8
BRANCH   7  10
ATOM     10  C   UNL     1      46.597  16.494  17.271  0.00  0.00    +0.186 C 
BRANCH  10  11
ATOM     11  O   UNL     1      46.847  17.264  16.094  0.00  0.00    -0.560 OA
ATOM     12  H   UNL     1      47.531  17.938  16.203  0.00  0.00    +0.380 HD
ENDBRANCH  10  11
ENDBRANCH   7  10
TORSDOF 4
ENDMDL
MODEL 8
REMARK VINA RESULT:      -4.8      3.374      5.869
REMARK  Name = ZINC95486226
REMARK  6 active torsions:
REMARK  status: ('A' for Active; 'I' for Inactive)
REMARK    1  A    between atoms: C1_1  and  C2_2
REMARK    2  A    between atoms: C2_2  and  C3_3
REMARK    3  A    between atoms: C5_6  and  C18_29
REMARK    4  A    between atoms: C6_8  and  C17_26
REMARK    5  A    between atoms: C6_8  and  O6_28
REMARK    6  A    between atoms: C17_26  and  O5_27
REMARK                            x       y       z     vdW  Elec       q    Type
REMARK                         _______ _______ _______ _____ _____    ______ ____
ROOT
ATOM      3  C   UNL     1      43.443  19.032  21.486  0.00  0.00    +0.028 C 
ATOM      4  C   UNL     1      44.133  20.360  21.803  0.00  0.00    +0.055 C 
ATOM      5  C   UNL     1      44.734  20.941  20.521  0.00  0.00    +0.029 C 
ATOM      6  C   UNL     1      44.048  22.269  20.194  0.00  0.00    +0.050 C 
ATOM      7  C   UNL     1      46.232  21.175  20.724  0.00  0.00    +0.163 C 
ATOM     13  C   UNL     1      46.988  20.651  19.531  0.00  0.00    +0.469 C 
ATOM     14  O   UNL     1      47.998  19.784  19.702  0.00  0.00    -0.330 OA
ATOM     15  C   UNL     1      48.089  18.706  18.768  0.00  0.00    +0.289 C 
ATOM     16  C   UNL     1      48.094  17.394  19.514  0.00  0.00    -0.148 C 
ATOM     17  C   UNL     1      48.854  17.124  20.545  0.00  0.00    -0.003 C 
ATOM     18  C   UNL     1      48.574  15.723  20.988  0.00  0.00    +0.194 C 
ATOM     19  N   UNL     1      47.378  15.192  20.273  0.00  0.00    -0.434 NA
ATOM     20  C   UNL     1      46.227  15.459  21.215  0.00  0.00    +0.152 C 
ATOM     21  C   UNL     1      45.075  15.866  20.276  0.00  0.00    +0.213 C 
ATOM     22  O   UNL     1      44.179  16.742  20.951  0.00  0.00    -0.333 OA
ATOM     23  C   UNL     1      45.747  16.589  19.093  0.00  0.00    +0.015 C 
ATOM     24  C   UNL     1      47.227  16.209  19.193  0.00  0.00    +0.174 C 
ATOM     25  O   UNL     1      46.684  21.013  18.419  0.00  0.00    -0.488 OA
ATOM     26  C   UNL     1      44.454  18.056  20.939  0.00  0.00    +0.462 C 
ATOM     27  O   UNL     1      45.503  18.454  20.494  0.00  0.00    -0.478 OA
ENDROOT
BRANCH   3   2
ATOM      1  C   UNL     1      40.983  18.930  21.062  0.00  0.00    +0.022 C 
ATOM      2  C   UNL     1      42.344  19.264  20.447  0.00  0.00    +0.038 C 
ENDBRANCH   3   2
BRANCH   7   8
ATOM      8  O   UNL     1      46.480  22.575  20.868  0.00  0.00    -0.530 OA
ATOM      9  H   UNL     1      47.072  22.797  21.599  0.00  0.00    +0.386 HD
ENDBRANCH   7   8
BRANCH   7  10
ATOM     10  C   UNL     1      46.697  20.443  21.984  0.00  0.00    +0.186 C 
BRANCH  10  11
ATOM     11  O   UNL     1      48.000  20.902  22.348  0.00  0.00    -0.560 OA
ATOM     12  H   UNL     1      48.194  20.827  23.293  0.00  0.00    +0.380 HD
ENDBRANCH  10  11
ENDBRANCH   7  10
TORSDOF 4
ENDMDL
MODEL 9
REMARK VINA RESULT:      -4.8     20.283     22.177
REMARK  Name = ZINC95486226
REMARK  6 active torsions:
REMARK  status: ('A' for Active; 'I' for Inactive)
REMARK    1  A    between atoms: C1_1  and  C2_2
REMARK    2  A    between atoms: C2_2  and  C3_3
REMARK    3  A    between atoms: C5_6  and  C18_29
REMARK    4  A    between atoms: C6_8  and  C17_26
REMARK    5  A    between atoms: C6_8  and  O6_28
REMARK    6  A    between atoms: C17_26  and  O5_27
REMARK                            x       y       z     vdW  Elec       q    Type
REMARK                         _______ _______ _______ _____ _____    ______ ____
ROOT
ATOM      3  C   UNL     1      53.146  33.582   6.041  0.00  0.00    +0.028 C 
ATOM      4  C   UNL     1      54.445  32.809   5.806  0.00  0.00    +0.055 C 
ATOM      5  C   UNL     1      55.409  33.669   4.986  0.00  0.00    +0.029 C 
ATOM      6  C   UNL     1      56.655  33.975   5.820  0.00  0.00    +0.050 C 
ATOM      7  C   UNL     1      55.814  32.912   3.721  0.00  0.00    +0.163 C 
ATOM     13  C   UNL     1      55.722  33.834   2.532  0.00  0.00    +0.469 C 
ATOM     14  O   UNL     1      55.005  33.476   1.456  0.00  0.00    -0.330 OA
ATOM     15  C   UNL     1      54.217  34.493   0.836  0.00  0.00    +0.289 C 
ATOM     16  C   UNL     1      52.779  34.041   0.763  0.00  0.00    -0.148 C 
ATOM     17  C   UNL     1      52.384  32.875   0.321  0.00  0.00    -0.003 C 
ATOM     18  C   UNL     1      50.891  32.817   0.397  0.00  0.00    +0.194 C 
ATOM     19  N   UNL     1      50.375  33.992   1.157  0.00  0.00    -0.434 NA
ATOM     20  C   UNL     1      50.221  33.486   2.573  0.00  0.00    +0.152 C 
ATOM     21  C   UNL     1      50.665  34.682   3.437  0.00  0.00    +0.213 C 
ATOM     22  O   UNL     1      51.200  34.223   4.674  0.00  0.00    -0.333 OA
ATOM     23  C   UNL     1      51.750  35.401   2.615  0.00  0.00    +0.015 C 
ATOM     24  C   UNL     1      51.591  34.854   1.193  0.00  0.00    +0.174 C 
ATOM     25  O   UNL     1      56.295  34.898   2.550  0.00  0.00    -0.488 OA
ATOM     26  C   UNL     1      52.502  33.901   4.716  0.00  0.00    +0.462 C 
ATOM     27  O   UNL     1      53.154  33.868   3.700  0.00  0.00    -0.478 OA
ENDROOT
BRANCH   3   2
ATOM      1  C   UNL     1      52.199  35.361   7.517  0.00  0.00    +0.022 C 
ATOM      2  C   UNL     1      53.455  34.882   6.786  0.00  0.00    +0.038 C 
ENDBRANCH   3   2
BRANCH   7   8
ATOM      8  O   UNL     1      57.156  32.442   3.856  0.00  0.00    -0.530 OA
ATOM      9  H   UNL     1      57.297  31.868   4.622  0.00  0.00    +0.386 HD
ENDBRANCH   7   8
BRANCH   7  10
ATOM     10  C   UNL     1      54.875  31.722   3.515  0.00  0.00    +0.186 C 
BRANCH  10  11
ATOM     11  O   UNL     1      55.320  30.950   2.398  0.00  0.00    -0.560 OA
ATOM     12  H   UNL     1      55.602  30.054   2.627  0.00  0.00    +0.380 HD
ENDBRANCH  10  11
ENDBRANCH   7  10
TORSDOF 4
ENDMDL
