MODEL 1
REMARK VINA RESULT:      -7.0      0.000      0.000
REMARK  Name = ZINC05452752
REMARK  11 active torsions:
REMARK  status: ('A' for Active; 'I' for Inactive)
REMARK    1  A    between atoms: C1_1  and  C2_2
REMARK    2  A    between atoms: C2_2  and  C3_3
REMARK    3  A    between atoms: C2_2  and  C4_4
REMARK    4  A    between atoms: C4_4  and  C5_5
REMARK    5  A    between atoms: C5_5  and  C6_7
REMARK    6  A    between atoms: C8_9  and  C21_25
REMARK    7  A    between atoms: C11_12  and  O2_13
REMARK    8  A    between atoms: C12_14  and  C15_19
REMARK    9  A    between atoms: C21_25  and  C22_26
REMARK   10  A    between atoms: C23_27  and  C24_28
REMARK   11  A    between atoms: C23_27  and  C25_29
REMARK                            x       y       z     vdW  Elec       q    Type
REMARK                         _______ _______ _______ _____ _____    ______ ____
ROOT
ATOM      5  C   UNL     1      46.981  17.926  18.718  0.00  0.00    -0.359 A 
ATOM      6  C   UNL     1      48.289  18.450  18.786  0.00  0.00    +0.373 A 
ATOM      7  O   UNL     1      49.315  17.774  18.216  0.00  0.00    -0.611 OA
ATOM      8  C   UNL     1      48.530  19.646  19.432  0.00  0.00    -0.257 A 
ATOM     14  C   UNL     1      47.487  20.354  20.015  0.00  0.00    +0.227 A 
ATOM     15  C   UNL     1      46.175  19.846  19.952  0.00  0.00    -0.356 A 
ATOM     16  C   UNL     1      45.085  20.611  20.576  0.00  0.00    +0.103 A 
ATOM     23  C   UNL     1      45.406  21.803  21.201  0.00  0.00    -0.175 A 
ATOM     24  C   UNL     1      46.741  22.236  21.218  0.00  0.00    +0.518 A 
ATOM     25  O   UNL     1      47.016  23.287  21.770  0.00  0.00    -0.502 OA
ATOM     26  O   UNL     1      47.724  21.525  20.643  0.00  0.00    -0.275 OA
ATOM     27  C   UNL     1      45.919  18.633  19.304  0.00  0.00    +0.308 A 
ENDROOT
BRANCH  16  17
ATOM     17  C   UNL     1      43.690  20.122  20.537  0.00  0.00    -0.071 A 
ATOM     18  C   UNL     1      42.841  20.507  19.499  0.00  0.00    +0.046 A 
ATOM     19  C   UNL     1      41.542  20.043  19.466  0.00  0.00    +0.024 A 
ATOM     20  C   UNL     1      41.077  19.207  20.465  0.00  0.00    +0.024 A 
ATOM     21  C   UNL     1      41.913  18.825  21.500  0.00  0.00    +0.028 A 
ATOM     22  C   UNL     1      43.215  19.277  21.542  0.00  0.00    +0.036 A 
ENDBRANCH  16  17
BRANCH   5   4
ATOM      4  C   UNL     1      46.733  16.656  18.038  0.00  0.00    +0.403 C 
ATOM     30  O   UNL     1      46.364  16.649  16.881  0.00  0.00    -0.454 OA
BRANCH   4   3
ATOM      3  C   UNL     1      46.932  15.356  18.773  0.00  0.00    +0.034 C 
BRANCH   3   2
ATOM      1  C   UNL     1      45.531  13.293  18.918  0.00  0.00    +0.007 C 
ATOM      2  C   UNL     1      45.573  14.796  19.197  0.00  0.00    -0.020 C 
ATOM     31  C   UNL     1      45.364  15.043  20.692  0.00  0.00    +0.011 C 
ENDBRANCH   3   2
ENDBRANCH   4   3
ENDBRANCH   5   4
BRANCH  27  28
ATOM     28  O   UNL     1      44.659  18.143  19.243  0.00  0.00    -0.529 OA
ATOM     29  H   UNL     1      43.982  18.258  20.103  0.00  0.00    +0.402 HD
ENDBRANCH  27  28
BRANCH   8   9
ATOM      9  C   UNL     1      49.934  20.191  19.501  0.00  0.00    +0.125 C 
BRANCH   9  10
ATOM     10  C   UNL     1      50.240  20.951  18.235  0.00  0.00    -0.039 C 
ATOM     11  C   UNL     1      51.313  20.662  17.541  0.00  0.00    -0.150 C 
ATOM     12  C   UNL     1      52.296  19.644  18.061  0.00  0.00    +0.073 C 
ATOM     13  C   UNL     1      51.565  21.348  16.223  0.00  0.00    +0.059 C 
ENDBRANCH   9  10
ENDBRANCH   8   9
TORSDOF 7
ENDMDL
MODEL 2
REMARK VINA RESULT:      -6.1      1.418      5.006
REMARK  Name = ZINC05452752
REMARK  11 active torsions:
REMARK  status: ('A' for Active; 'I' for Inactive)
REMARK    1  A    between atoms: C1_1  and  C2_2
REMARK    2  A    between atoms: C2_2  and  C3_3
REMARK    3  A    between atoms: C2_2  and  C4_4
REMARK    4  A    between atoms: C4_4  and  C5_5
REMARK    5  A    between atoms: C5_5  and  C6_7
REMARK    6  A    between atoms: C8_9  and  C21_25
REMARK    7  A    between atoms: C11_12  and  O2_13
REMARK    8  A    between atoms: C12_14  and  C15_19
REMARK    9  A    between atoms: C21_25  and  C22_26
REMARK   10  A    between atoms: C23_27  and  C24_28
REMARK   11  A    between atoms: C23_27  and  C25_29
REMARK                            x       y       z     vdW  Elec       q    Type
REMARK                         _______ _______ _______ _____ _____    ______ ____
ROOT
ATOM      5  C   UNL     1      45.946  19.100  19.358  0.00  0.00    -0.359 A 
ATOM      6  C   UNL     1      46.978  20.057  19.463  0.00  0.00    +0.373 A 
ATOM      7  O   UNL     1      46.669  21.371  19.566  0.00  0.00    -0.611 OA
ATOM      8  C   UNL     1      48.301  19.661  19.458  0.00  0.00    -0.257 A 
ATOM     14  C   UNL     1      48.632  18.316  19.360  0.00  0.00    +0.227 A 
ATOM     15  C   UNL     1      47.613  17.349  19.259  0.00  0.00    -0.356 A 
ATOM     16  C   UNL     1      47.986  15.930  19.156  0.00  0.00    +0.103 A 
ATOM     23  C   UNL     1      49.334  15.613  19.162  0.00  0.00    -0.175 A 
ATOM     24  C   UNL     1      50.284  16.640  19.266  0.00  0.00    +0.518 A 
ATOM     25  O   UNL     1      51.468  16.352  19.271  0.00  0.00    -0.502 OA
ATOM     26  O   UNL     1      49.926  17.931  19.359  0.00  0.00    -0.275 OA
ATOM     27  C   UNL     1      46.270  17.738  19.258  0.00  0.00    +0.308 A 
ENDROOT
BRANCH  16  17
ATOM     17  C   UNL     1      46.955  14.875  19.049  0.00  0.00    -0.071 A 
ATOM     18  C   UNL     1      46.309  14.408  20.194  0.00  0.00    +0.046 A 
ATOM     19  C   UNL     1      45.344  13.427  20.086  0.00  0.00    +0.024 A 
ATOM     20  C   UNL     1      45.024  12.900  18.848  0.00  0.00    +0.024 A 
ATOM     21  C   UNL     1      45.665  13.357  17.709  0.00  0.00    +0.028 A 
ATOM     22  C   UNL     1      46.627  14.340  17.802  0.00  0.00    +0.036 A 
ENDBRANCH  16  17
BRANCH   5   4
ATOM      4  C   UNL     1      44.547  19.526  19.358  0.00  0.00    +0.403 C 
ATOM     30  O   UNL     1      43.984  19.760  18.308  0.00  0.00    -0.454 OA
BRANCH   4   3
ATOM      3  C   UNL     1      43.804  19.674  20.661  0.00  0.00    +0.034 C 
BRANCH   3   2
ATOM      1  C   UNL     1      43.164  17.695  22.044  0.00  0.00    +0.007 C 
ATOM      2  C   UNL     1      42.805  18.526  20.811  0.00  0.00    -0.020 C 
ATOM     31  C   UNL     1      41.395  19.095  20.973  0.00  0.00    +0.011 C 
ENDBRANCH   3   2
ENDBRANCH   4   3
ENDBRANCH   5   4
BRANCH  27  28
ATOM     28  O   UNL     1      45.289  16.810  19.161  0.00  0.00    -0.529 OA
ATOM     29  H   UNL     1      45.518  15.748  19.337  0.00  0.00    +0.402 HD
ENDBRANCH  27  28
BRANCH   8   9
ATOM      9  C   UNL     1      49.392  20.695  19.565  0.00  0.00    +0.125 C 
BRANCH   9  10
ATOM     10  C   UNL     1      49.882  21.053  18.185  0.00  0.00    -0.039 C 
ATOM     11  C   UNL     1      51.157  20.955  17.897  0.00  0.00    -0.150 C 
ATOM     12  C   UNL     1      52.146  20.587  18.972  0.00  0.00    +0.073 C 
ATOM     13  C   UNL     1      51.633  21.211  16.490  0.00  0.00    +0.059 C 
ENDBRANCH   9  10
ENDBRANCH   8   9
TORSDOF 7
ENDMDL
MODEL 3
REMARK VINA RESULT:      -5.8      1.513      6.030
REMARK  Name = ZINC05452752
REMARK  11 active torsions:
REMARK  status: ('A' for Active; 'I' for Inactive)
REMARK    1  A    between atoms: C1_1  and  C2_2
REMARK    2  A    between atoms: C2_2  and  C3_3
REMARK    3  A    between atoms: C2_2  and  C4_4
REMARK    4  A    between atoms: C4_4  and  C5_5
REMARK    5  A    between atoms: C5_5  and  C6_7
REMARK    6  A    between atoms: C8_9  and  C21_25
REMARK    7  A    between atoms: C11_12  and  O2_13
REMARK    8  A    between atoms: C12_14  and  C15_19
REMARK    9  A    between atoms: C21_25  and  C22_26
REMARK   10  A    between atoms: C23_27  and  C24_28
REMARK   11  A    between atoms: C23_27  and  C25_29
REMARK                            x       y       z     vdW  Elec       q    Type
REMARK                         _______ _______ _______ _____ _____    ______ ____
ROOT
ATOM      5  C   UNL     1      47.016  17.169  19.534  0.00  0.00    -0.359 A 
ATOM      6  C   UNL     1      45.668  17.212  19.948  0.00  0.00    +0.373 A 
ATOM      7  O   UNL     1      44.892  16.109  19.829  0.00  0.00    -0.611 OA
ATOM      8  C   UNL     1      45.135  18.374  20.469  0.00  0.00    -0.257 A 
ATOM     14  C   UNL     1      45.921  19.512  20.602  0.00  0.00    +0.227 A 
ATOM     15  C   UNL     1      47.269  19.482  20.198  0.00  0.00    -0.356 A 
ATOM     16  C   UNL     1      48.084  20.697  20.348  0.00  0.00    +0.103 A 
ATOM     23  C   UNL     1      47.479  21.821  20.883  0.00  0.00    -0.175 A 
ATOM     24  C   UNL     1      46.128  21.763  21.259  0.00  0.00    +0.518 A 
ATOM     25  O   UNL     1      45.602  22.757  21.730  0.00  0.00    -0.502 OA
ATOM     26  O   UNL     1      45.399  20.645  21.116  0.00  0.00    -0.275 OA
ATOM     27  C   UNL     1      47.820  18.312  19.664  0.00  0.00    +0.308 A 
ENDROOT
BRANCH  16  17
ATOM     17  C   UNL     1      49.506  20.718  19.940  0.00  0.00    -0.071 A 
ATOM     18  C   UNL     1      49.851  20.996  18.617  0.00  0.00    +0.046 A 
ATOM     19  C   UNL     1      51.180  21.020  18.245  0.00  0.00    +0.024 A 
ATOM     20  C   UNL     1      52.168  20.757  19.177  0.00  0.00    +0.024 A 
ATOM     21  C   UNL     1      51.831  20.475  20.489  0.00  0.00    +0.028 A 
ATOM     22  C   UNL     1      50.507  20.455  20.876  0.00  0.00    +0.036 A 
ENDBRANCH  16  17
BRANCH   5   4
ATOM      4  C   UNL     1      47.574  15.937  18.977  0.00  0.00    +0.403 C 
ATOM     30  O   UNL     1      48.348  15.270  19.633  0.00  0.00    -0.454 OA
BRANCH   4   3
ATOM      3  C   UNL     1      47.190  15.496  17.588  0.00  0.00    +0.034 C 
BRANCH   3   2
ATOM      1  C   UNL     1      45.947  13.351  17.894  0.00  0.00    +0.007 C 
ATOM      2  C   UNL     1      47.286  13.973  17.492  0.00  0.00    -0.020 C 
ATOM     31  C   UNL     1      47.622  13.572  16.055  0.00  0.00    +0.011 C 
ENDBRANCH   3   2
ENDBRANCH   4   3
ENDBRANCH   5   4
BRANCH  27  28
ATOM     28  O   UNL     1      49.116  18.282  19.275  0.00  0.00    -0.529 OA
ATOM     29  H   UNL     1      49.633  17.317  19.159  0.00  0.00    +0.402 HD
ENDBRANCH  27  28
BRANCH   8   9
ATOM      9  C   UNL     1      43.691  18.408  20.901  0.00  0.00    +0.125 C 
BRANCH   9  10
ATOM     10  C   UNL     1      42.875  19.143  19.869  0.00  0.00    -0.039 C 
ATOM     11  C   UNL     1      41.613  19.409  20.101  0.00  0.00    -0.150 C 
ATOM     12  C   UNL     1      40.950  18.889  21.350  0.00  0.00    +0.073 C 
ATOM     13  C   UNL     1      40.824  20.235  19.117  0.00  0.00    +0.059 C 
ENDBRANCH   9  10
ENDBRANCH   8   9
TORSDOF 7
ENDMDL
MODEL 4
REMARK VINA RESULT:      -5.7      2.007      7.278
REMARK  Name = ZINC05452752
REMARK  11 active torsions:
REMARK  status: ('A' for Active; 'I' for Inactive)
REMARK    1  A    between atoms: C1_1  and  C2_2
REMARK    2  A    between atoms: C2_2  and  C3_3
REMARK    3  A    between atoms: C2_2  and  C4_4
REMARK    4  A    between atoms: C4_4  and  C5_5
REMARK    5  A    between atoms: C5_5  and  C6_7
REMARK    6  A    between atoms: C8_9  and  C21_25
REMARK    7  A    between atoms: C11_12  and  O2_13
REMARK    8  A    between atoms: C12_14  and  C15_19
REMARK    9  A    between atoms: C21_25  and  C22_26
REMARK   10  A    between atoms: C23_27  and  C24_28
REMARK   11  A    between atoms: C23_27  and  C25_29
REMARK                            x       y       z     vdW  Elec       q    Type
REMARK                         _______ _______ _______ _____ _____    ______ ____
ROOT
ATOM      5  C   UNL     1      47.163  19.495  19.137  0.00  0.00    -0.359 A 
ATOM      6  C   UNL     1      46.583  18.486  18.340  0.00  0.00    +0.373 A 
ATOM      7  O   UNL     1      45.236  18.417  18.216  0.00  0.00    -0.611 OA
ATOM      8  C   UNL     1      47.380  17.565  17.688  0.00  0.00    -0.257 A 
ATOM     14  C   UNL     1      48.763  17.627  17.801  0.00  0.00    +0.227 A 
ATOM     15  C   UNL     1      49.357  18.632  18.589  0.00  0.00    -0.356 A 
ATOM     16  C   UNL     1      50.823  18.679  18.695  0.00  0.00    +0.103 A 
ATOM     23  C   UNL     1      51.553  17.725  18.009  0.00  0.00    -0.175 A 
ATOM     24  C   UNL     1      50.880  16.758  17.246  0.00  0.00    +0.518 A 
ATOM     25  O   UNL     1      51.530  15.921  16.644  0.00  0.00    -0.502 OA
ATOM     26  O   UNL     1      49.540  16.729  17.160  0.00  0.00    -0.275 OA
ATOM     27  C   UNL     1      48.559  19.567  19.258  0.00  0.00    +0.308 A 
ENDROOT
BRANCH  16  17
ATOM     17  C   UNL     1      51.496  19.715  19.509  0.00  0.00    -0.071 A 
ATOM     18  C   UNL     1      51.852  20.936  18.935  0.00  0.00    +0.046 A 
ATOM     19  C   UNL     1      52.476  21.899  19.702  0.00  0.00    +0.024 A 
ATOM     20  C   UNL     1      52.758  21.653  21.033  0.00  0.00    +0.024 A 
ATOM     21  C   UNL     1      52.411  20.441  21.607  0.00  0.00    +0.028 A 
ATOM     22  C   UNL     1      51.782  19.472  20.853  0.00  0.00    +0.036 A 
ENDBRANCH  16  17
BRANCH   5   4
ATOM      4  C   UNL     1      46.314  20.463  19.829  0.00  0.00    +0.403 C 
ATOM     30  O   UNL     1      46.193  20.411  21.036  0.00  0.00    -0.454 OA
BRANCH   4   3
ATOM      3  C   UNL     1      45.588  21.526  19.044  0.00  0.00    +0.034 C 
BRANCH   3   2
ATOM      1  C   UNL     1      44.049  23.440  19.502  0.00  0.00    +0.007 C 
ATOM      2  C   UNL     1      44.347  21.973  19.819  0.00  0.00    -0.020 C 
ATOM     31  C   UNL     1      43.152  21.110  19.410  0.00  0.00    +0.011 C 
ENDBRANCH   3   2
ENDBRANCH   4   3
ENDBRANCH   5   4
BRANCH  27  28
ATOM     28  O   UNL     1      49.129  20.533  20.016  0.00  0.00    -0.529 OA
ATOM     29  H   UNL     1      49.312  20.356  21.086  0.00  0.00    +0.402 HD
ENDBRANCH  27  28
BRANCH   8   9
ATOM      9  C   UNL     1      46.746  16.489  16.845  0.00  0.00    +0.125 C 
BRANCH   9  10
ATOM     10  C   UNL     1      46.397  15.309  17.715  0.00  0.00    -0.039 C 
ATOM     11  C   UNL     1      46.801  14.108  17.383  0.00  0.00    -0.150 C 
ATOM     12  C   UNL     1      47.524  13.890  16.078  0.00  0.00    +0.073 C 
ATOM     13  C   UNL     1      46.544  12.944  18.305  0.00  0.00    +0.059 C 
ENDBRANCH   9  10
ENDBRANCH   8   9
TORSDOF 7
ENDMDL
MODEL 5
REMARK VINA RESULT:      -5.5      2.906      6.149
REMARK  Name = ZINC05452752
REMARK  11 active torsions:
REMARK  status: ('A' for Active; 'I' for Inactive)
REMARK    1  A    between atoms: C1_1  and  C2_2
REMARK    2  A    between atoms: C2_2  and  C3_3
REMARK    3  A    between atoms: C2_2  and  C4_4
REMARK    4  A    between atoms: C4_4  and  C5_5
REMARK    5  A    between atoms: C5_5  and  C6_7
REMARK    6  A    between atoms: C8_9  and  C21_25
REMARK    7  A    between atoms: C11_12  and  O2_13
REMARK    8  A    between atoms: C12_14  and  C15_19
REMARK    9  A    between atoms: C21_25  and  C22_26
REMARK   10  A    between atoms: C23_27  and  C24_28
REMARK   11  A    between atoms: C23_27  and  C25_29
REMARK                            x       y       z     vdW  Elec       q    Type
REMARK                         _______ _______ _______ _____ _____    ______ ____
ROOT
ATOM      5  C   UNL     1      50.791  17.989  18.903  0.00  0.00    -0.359 A 
ATOM      6  C   UNL     1      51.149  16.676  18.534  0.00  0.00    +0.373 A 
ATOM      7  O   UNL     1      52.454  16.355  18.368  0.00  0.00    -0.611 OA
ATOM      8  C   UNL     1      50.176  15.716  18.338  0.00  0.00    -0.257 A 
ATOM     14  C   UNL     1      48.834  16.028  18.511  0.00  0.00    +0.227 A 
ATOM     15  C   UNL     1      48.462  17.334  18.884  0.00  0.00    -0.356 A 
ATOM     16  C   UNL     1      47.035  17.644  19.062  0.00  0.00    +0.103 A 
ATOM     23  C   UNL     1      46.120  16.627  18.851  0.00  0.00    -0.175 A 
ATOM     24  C   UNL     1      46.578  15.352  18.481  0.00  0.00    +0.518 A 
ATOM     25  O   UNL     1      45.766  14.462  18.298  0.00  0.00    -0.502 OA
ATOM     26  O   UNL     1      47.885  15.087  18.324  0.00  0.00    -0.275 OA
ATOM     27  C   UNL     1      49.438  18.317  19.080  0.00  0.00    +0.308 A 
ENDROOT
BRANCH  16  17
ATOM     17  C   UNL     1      46.591  18.999  19.453  0.00  0.00    -0.071 A 
ATOM     18  C   UNL     1      46.281  19.945  18.475  0.00  0.00    +0.046 A 
ATOM     19  C   UNL     1      45.862  21.206  18.848  0.00  0.00    +0.024 A 
ATOM     20  C   UNL     1      45.761  21.538  20.187  0.00  0.00    +0.024 A 
ATOM     21  C   UNL     1      46.072  20.605  21.162  0.00  0.00    +0.028 A 
ATOM     22  C   UNL     1      46.485  19.339  20.803  0.00  0.00    +0.036 A 
ENDBRANCH  16  17
BRANCH   5   4
ATOM      4  C   UNL     1      51.825  19.004  19.103  0.00  0.00    +0.403 C 
ATOM     30  O   UNL     1      52.108  19.368  20.226  0.00  0.00    -0.454 OA
BRANCH   4   3
ATOM      3  C   UNL     1      52.538  19.598  17.915  0.00  0.00    +0.034 C 
BRANCH   3   2
ATOM      1  C   UNL     1      51.517  21.257  16.351  0.00  0.00    +0.007 C 
ATOM      2  C   UNL     1      51.545  19.785  16.767  0.00  0.00    -0.020 C 
ATOM     31  C   UNL     1      51.976  18.927  15.576  0.00  0.00    +0.011 C 
ENDBRANCH   3   2
ENDBRANCH   4   3
ENDBRANCH   5   4
BRANCH  27  28
ATOM     28  O   UNL     1      49.081  19.573  19.438  0.00  0.00    -0.529 OA
ATOM     29  H   UNL     1      48.228  19.730  20.115  0.00  0.00    +0.402 HD
ENDBRANCH  27  28
BRANCH   8   9
ATOM      9  C   UNL     1      50.573  14.317  17.939  0.00  0.00    +0.125 C 
BRANCH   9  10
ATOM     10  C   UNL     1      50.767  14.257  16.446  0.00  0.00    -0.039 C 
ATOM     11  C   UNL     1      51.401  13.245  15.907  0.00  0.00    -0.150 C 
ATOM     12  C   UNL     1      52.028  12.195  16.788  0.00  0.00    +0.073 C 
ATOM     13  C   UNL     1      51.504  13.130  14.408  0.00  0.00    +0.059 C 
ENDBRANCH   9  10
ENDBRANCH   8   9
TORSDOF 7
ENDMDL
MODEL 6
REMARK VINA RESULT:      -5.5      1.462      6.191
REMARK  Name = ZINC05452752
REMARK  11 active torsions:
REMARK  status: ('A' for Active; 'I' for Inactive)
REMARK    1  A    between atoms: C1_1  and  C2_2
REMARK    2  A    between atoms: C2_2  and  C3_3
REMARK    3  A    between atoms: C2_2  and  C4_4
REMARK    4  A    between atoms: C4_4  and  C5_5
REMARK    5  A    between atoms: C5_5  and  C6_7
REMARK    6  A    between atoms: C8_9  and  C21_25
REMARK    7  A    between atoms: C11_12  and  O2_13
REMARK    8  A    between atoms: C12_14  and  C15_19
REMARK    9  A    between atoms: C21_25  and  C22_26
REMARK   10  A    between atoms: C23_27  and  C24_28
REMARK   11  A    between atoms: C23_27  and  C25_29
REMARK                            x       y       z     vdW  Elec       q    Type
REMARK                         _______ _______ _______ _____ _____    ______ ____
ROOT
ATOM      5  C   UNL     1      47.306  17.287  18.633  0.00  0.00    -0.359 A 
ATOM      6  C   UNL     1      46.328  17.330  19.648  0.00  0.00    +0.373 A 
ATOM      7  O   UNL     1      45.333  16.411  19.663  0.00  0.00    -0.611 OA
ATOM      8  C   UNL     1      46.376  18.305  20.624  0.00  0.00    -0.257 A 
ATOM     14  C   UNL     1      47.394  19.251  20.625  0.00  0.00    +0.227 A 
ATOM     15  C   UNL     1      48.381  19.217  19.622  0.00  0.00    -0.356 A 
ATOM     16  C   UNL     1      49.449  20.228  19.641  0.00  0.00    +0.103 A 
ATOM     23  C   UNL     1      49.431  21.170  20.655  0.00  0.00    -0.175 A 
ATOM     24  C   UNL     1      48.409  21.130  21.616  0.00  0.00    +0.518 A 
ATOM     25  O   UNL     1      48.401  21.963  22.505  0.00  0.00    -0.502 OA
ATOM     26  O   UNL     1      47.441  20.200  21.583  0.00  0.00    -0.275 OA
ATOM     27  C   UNL     1      48.340  18.237  18.624  0.00  0.00    +0.308 A 
ENDROOT
BRANCH  16  17
ATOM     17  C   UNL     1      50.510  20.236  18.610  0.00  0.00    -0.071 A 
ATOM     18  C   UNL     1      51.580  19.345  18.698  0.00  0.00    +0.046 A 
ATOM     19  C   UNL     1      52.563  19.355  17.729  0.00  0.00    +0.024 A 
ATOM     20  C   UNL     1      52.497  20.254  16.681  0.00  0.00    +0.024 A 
ATOM     21  C   UNL     1      51.440  21.144  16.591  0.00  0.00    +0.028 A 
ATOM     22  C   UNL     1      50.448  21.141  17.549  0.00  0.00    +0.036 A 
ENDBRANCH  16  17
BRANCH   5   4
ATOM      4  C   UNL     1      47.247  16.255  17.598  0.00  0.00    +0.403 C 
ATOM     30  O   UNL     1      46.620  16.455  16.578  0.00  0.00    -0.454 OA
BRANCH   4   3
ATOM      3  C   UNL     1      47.964  14.945  17.799  0.00  0.00    +0.034 C 
BRANCH   3   2
ATOM      1  C   UNL     1      47.977  12.616  16.894  0.00  0.00    +0.007 C 
ATOM      2  C   UNL     1      47.090  13.802  17.280  0.00  0.00    -0.020 C 
ATOM     31  C   UNL     1      46.111  13.371  18.374  0.00  0.00    +0.011 C 
ENDBRANCH   3   2
ENDBRANCH   4   3
ENDBRANCH   5   4
BRANCH  27  28
ATOM     28  O   UNL     1      49.288  18.204  17.658  0.00  0.00    -0.529 OA
ATOM     29  H   UNL     1      50.344  18.055  17.930  0.00  0.00    +0.402 HD
ENDBRANCH  27  28
BRANCH   8   9
ATOM      9  C   UNL     1      45.320  18.342  21.699  0.00  0.00    +0.125 C 
BRANCH   9  10
ATOM     10  C   UNL     1      44.062  18.961  21.146  0.00  0.00    -0.039 C 
ATOM     11  C   UNL     1      42.898  18.413  21.395  0.00  0.00    -0.150 C 
ATOM     12  C   UNL     1      42.825  17.107  22.144  0.00  0.00    +0.073 C 
ATOM     13  C   UNL     1      41.632  19.088  20.932  0.00  0.00    +0.059 C 
ENDBRANCH   9  10
ENDBRANCH   8   9
TORSDOF 7
ENDMDL
MODEL 7
REMARK VINA RESULT:      -5.5      1.829      5.708
REMARK  Name = ZINC05452752
REMARK  11 active torsions:
REMARK  status: ('A' for Active; 'I' for Inactive)
REMARK    1  A    between atoms: C1_1  and  C2_2
REMARK    2  A    between atoms: C2_2  and  C3_3
REMARK    3  A    between atoms: C2_2  and  C4_4
REMARK    4  A    between atoms: C4_4  and  C5_5
REMARK    5  A    between atoms: C5_5  and  C6_7
REMARK    6  A    between atoms: C8_9  and  C21_25
REMARK    7  A    between atoms: C11_12  and  O2_13
REMARK    8  A    between atoms: C12_14  and  C15_19
REMARK    9  A    between atoms: C21_25  and  C22_26
REMARK   10  A    between atoms: C23_27  and  C24_28
REMARK   11  A    between atoms: C23_27  and  C25_29
REMARK                            x       y       z     vdW  Elec       q    Type
REMARK                         _______ _______ _______ _____ _____    ______ ____
ROOT
ATOM      5  C   UNL     1      46.528  18.799  19.178  0.00  0.00    -0.359 A 
ATOM      6  C   UNL     1      47.455  19.862  19.177  0.00  0.00    +0.373 A 
ATOM      7  O   UNL     1      47.053  21.106  19.530  0.00  0.00    -0.611 OA
ATOM      8  C   UNL     1      48.769  19.642  18.815  0.00  0.00    -0.257 A 
ATOM     14  C   UNL     1      49.197  18.370  18.457  0.00  0.00    +0.227 A 
ATOM     15  C   UNL     1      48.284  17.298  18.458  0.00  0.00    -0.356 A 
ATOM     16  C   UNL     1      48.758  15.959  18.075  0.00  0.00    +0.103 A 
ATOM     23  C   UNL     1      50.090  15.818  17.730  0.00  0.00    -0.175 A 
ATOM     24  C   UNL     1      50.932  16.941  17.756  0.00  0.00    +0.518 A 
ATOM     25  O   UNL     1      52.105  16.808  17.450  0.00  0.00    -0.502 OA
ATOM     26  O   UNL     1      50.483  18.156  18.108  0.00  0.00    -0.275 OA
ATOM     27  C   UNL     1      46.948  17.510  18.818  0.00  0.00    +0.308 A 
ENDROOT
BRANCH  16  17
ATOM     17  C   UNL     1      47.839  14.800  18.060  0.00  0.00    -0.071 A 
ATOM     18  C   UNL     1      47.167  14.453  16.888  0.00  0.00    +0.046 A 
ATOM     19  C   UNL     1      46.315  13.367  16.880  0.00  0.00    +0.024 A 
ATOM     20  C   UNL     1      46.119  12.629  18.033  0.00  0.00    +0.024 A 
ATOM     21  C   UNL     1      46.779  12.971  19.201  0.00  0.00    +0.028 A 
ATOM     22  C   UNL     1      47.638  14.051  19.221  0.00  0.00    +0.036 A 
ENDBRANCH  16  17
BRANCH   5   4
ATOM      4  C   UNL     1      45.135  19.039  19.556  0.00  0.00    +0.403 C 
ATOM     30  O   UNL     1      44.724  18.656  20.632  0.00  0.00    -0.454 OA
BRANCH   4   3
ATOM      3  C   UNL     1      44.211  19.762  18.610  0.00  0.00    +0.034 C 
BRANCH   3   2
ATOM      1  C   UNL     1      43.650  21.963  19.650  0.00  0.00    +0.007 C 
ATOM      2  C   UNL     1      43.161  20.532  19.412  0.00  0.00    -0.020 C 
ATOM     31  C   UNL     1      41.847  20.566  18.631  0.00  0.00    +0.011 C 
ENDBRANCH   3   2
ENDBRANCH   4   3
ENDBRANCH   5   4
BRANCH  27  28
ATOM     28  O   UNL     1      46.069  16.480  18.819  0.00  0.00    -0.529 OA
ATOM     29  H   UNL     1      46.225  15.624  18.145  0.00  0.00    +0.402 HD
ENDBRANCH  27  28
BRANCH   8   9
ATOM      9  C   UNL     1      49.748  20.788  18.814  0.00  0.00    +0.125 C 
BRANCH   9  10
ATOM     10  C   UNL     1      50.453  20.847  20.145  0.00  0.00    -0.039 C 
ATOM     11  C   UNL     1      51.760  20.935  20.190  0.00  0.00    -0.150 C 
ATOM     12  C   UNL     1      52.564  20.871  18.917  0.00  0.00    +0.073 C 
ATOM     13  C   UNL     1      52.459  21.100  21.515  0.00  0.00    +0.059 C 
ENDBRANCH   9  10
ENDBRANCH   8   9
TORSDOF 7
ENDMDL
MODEL 8
REMARK VINA RESULT:      -5.5      2.626      8.032
REMARK  Name = ZINC05452752
REMARK  11 active torsions:
REMARK  status: ('A' for Active; 'I' for Inactive)
REMARK    1  A    between atoms: C1_1  and  C2_2
REMARK    2  A    between atoms: C2_2  and  C3_3
REMARK    3  A    between atoms: C2_2  and  C4_4
REMARK    4  A    between atoms: C4_4  and  C5_5
REMARK    5  A    between atoms: C5_5  and  C6_7
REMARK    6  A    between atoms: C8_9  and  C21_25
REMARK    7  A    between atoms: C11_12  and  O2_13
REMARK    8  A    between atoms: C12_14  and  C15_19
REMARK    9  A    between atoms: C21_25  and  C22_26
REMARK   10  A    between atoms: C23_27  and  C24_28
REMARK   11  A    between atoms: C23_27  and  C25_29
REMARK                            x       y       z     vdW  Elec       q    Type
REMARK                         _______ _______ _______ _____ _____    ______ ____
ROOT
ATOM      5  C   UNL     1      47.333  16.947  18.868  0.00  0.00    -0.359 A 
ATOM      6  C   UNL     1      46.835  15.629  18.920  0.00  0.00    +0.373 A 
ATOM      7  O   UNL     1      45.598  15.395  19.422  0.00  0.00    -0.611 OA
ATOM      8  C   UNL     1      47.601  14.573  18.466  0.00  0.00    -0.257 A 
ATOM     14  C   UNL     1      48.868  14.798  17.943  0.00  0.00    +0.227 A 
ATOM     15  C   UNL     1      49.377  16.109  17.880  0.00  0.00    -0.356 A 
ATOM     16  C   UNL     1      50.721  16.325  17.322  0.00  0.00    +0.103 A 
ATOM     23  C   UNL     1      51.425  15.217  16.884  0.00  0.00    -0.175 A 
ATOM     24  C   UNL     1      50.842  13.945  16.984  0.00  0.00    +0.518 A 
ATOM     25  O   UNL     1      51.469  12.974  16.595  0.00  0.00    -0.502 OA
ATOM     26  O   UNL     1      49.613  13.766  17.495  0.00  0.00    -0.275 OA
ATOM     27  C   UNL     1      48.612  17.186  18.342  0.00  0.00    +0.308 A 
ENDROOT
BRANCH  16  17
ATOM     17  C   UNL     1      51.301  17.683  17.233  0.00  0.00    -0.071 A 
ATOM     18  C   UNL     1      52.037  18.202  18.299  0.00  0.00    +0.046 A 
ATOM     19  C   UNL     1      52.580  19.467  18.206  0.00  0.00    +0.024 A 
ATOM     20  C   UNL     1      52.387  20.225  17.065  0.00  0.00    +0.024 A 
ATOM     21  C   UNL     1      51.654  19.717  16.006  0.00  0.00    +0.028 A 
ATOM     22  C   UNL     1      51.111  18.452  16.083  0.00  0.00    +0.036 A 
ENDBRANCH  16  17
BRANCH   5   4
ATOM      4  C   UNL     1      46.519  18.060  19.356  0.00  0.00    +0.403 C 
ATOM     30  O   UNL     1      46.613  18.419  20.512  0.00  0.00    -0.454 OA
BRANCH   4   3
ATOM      3  C   UNL     1      45.563  18.760  18.424  0.00  0.00    +0.034 C 
BRANCH   3   2
ATOM      1  C   UNL     1      45.705  21.237  18.718  0.00  0.00    +0.007 C 
ATOM      2  C   UNL     1      44.954  19.970  19.134  0.00  0.00    -0.020 C 
ATOM     31  C   UNL     1      43.480  20.100  18.746  0.00  0.00    +0.011 C 
ENDBRANCH   3   2
ENDBRANCH   4   3
ENDBRANCH   5   4
BRANCH  27  28
ATOM     28  O   UNL     1      49.100  18.447  18.282  0.00  0.00    -0.529 OA
ATOM     29  H   UNL     1      48.708  19.153  17.533  0.00  0.00    +0.402 HD
ENDBRANCH  27  28
BRANCH   8   9
ATOM      9  C   UNL     1      47.057  13.169  18.533  0.00  0.00    +0.125 C 
BRANCH   9  10
ATOM     10  C   UNL     1      46.550  12.762  17.173  0.00  0.00    -0.039 C 
ATOM     11  C   UNL     1      46.760  11.545  16.733  0.00  0.00    -0.150 C 
ATOM     12  C   UNL     1      47.597  10.586  17.540  0.00  0.00    +0.073 C 
ATOM     13  C   UNL     1      46.164  11.105  15.421  0.00  0.00    +0.059 C 
ENDBRANCH   9  10
ENDBRANCH   8   9
TORSDOF 7
ENDMDL
MODEL 9
REMARK VINA RESULT:      -5.4      1.918      7.467
REMARK  Name = ZINC05452752
REMARK  11 active torsions:
REMARK  status: ('A' for Active; 'I' for Inactive)
REMARK    1  A    between atoms: C1_1  and  C2_2
REMARK    2  A    between atoms: C2_2  and  C3_3
REMARK    3  A    between atoms: C2_2  and  C4_4
REMARK    4  A    between atoms: C4_4  and  C5_5
REMARK    5  A    between atoms: C5_5  and  C6_7
REMARK    6  A    between atoms: C8_9  and  C21_25
REMARK    7  A    between atoms: C11_12  and  O2_13
REMARK    8  A    between atoms: C12_14  and  C15_19
REMARK    9  A    between atoms: C21_25  and  C22_26
REMARK   10  A    between atoms: C23_27  and  C24_28
REMARK   11  A    between atoms: C23_27  and  C25_29
REMARK                            x       y       z     vdW  Elec       q    Type
REMARK                         _______ _______ _______ _____ _____    ______ ____
ROOT
ATOM      5  C   UNL     1      46.440  19.825  20.034  0.00  0.00    -0.359 A 
ATOM      6  C   UNL     1      45.621  18.690  19.859  0.00  0.00    +0.373 A 
ATOM      7  O   UNL     1      44.275  18.808  19.958  0.00  0.00    -0.611 OA
ATOM      8  C   UNL     1      46.183  17.457  19.591  0.00  0.00    -0.257 A 
ATOM     14  C   UNL     1      47.561  17.322  19.479  0.00  0.00    +0.227 A 
ATOM     15  C   UNL     1      48.391  18.447  19.647  0.00  0.00    -0.356 A 
ATOM     16  C   UNL     1      49.847  18.281  19.525  0.00  0.00    +0.103 A 
ATOM     23  C   UNL     1      50.334  17.015  19.251  0.00  0.00    -0.175 A 
ATOM     24  C   UNL     1      49.435  15.948  19.099  0.00  0.00    +0.518 A 
ATOM     25  O   UNL     1      49.872  14.836  18.857  0.00  0.00    -0.502 OA
ATOM     26  O   UNL     1      48.108  16.117  19.213  0.00  0.00    -0.275 OA
ATOM     27  C   UNL     1      47.833  19.699  19.924  0.00  0.00    +0.308 A 
ENDROOT
BRANCH  16  17
ATOM     17  C   UNL     1      50.763  19.431  19.692  0.00  0.00    -0.071 A 
ATOM     18  C   UNL     1      51.082  20.237  18.598  0.00  0.00    +0.046 A 
ATOM     19  C   UNL     1      51.933  21.311  18.762  0.00  0.00    +0.024 A 
ATOM     20  C   UNL     1      52.478  21.583  20.004  0.00  0.00    +0.024 A 
ATOM     21  C   UNL     1      52.169  20.784  21.091  0.00  0.00    +0.028 A 
ATOM     22  C   UNL     1      51.315  19.711  20.943  0.00  0.00    +0.036 A 
ENDBRANCH  16  17
BRANCH   5   4
ATOM      4  C   UNL     1      45.839  21.126  20.324  0.00  0.00    +0.403 C 
ATOM     30  O   UNL     1      45.718  21.496  21.474  0.00  0.00    -0.454 OA
BRANCH   4   3
ATOM      3  C   UNL     1      45.370  22.008  19.195  0.00  0.00    +0.034 C 
BRANCH   3   2
ATOM      1  C   UNL     1      44.485  24.335  18.990  0.00  0.00    +0.007 C 
ATOM      2  C   UNL     1      44.332  23.001  19.722  0.00  0.00    -0.020 C 
ATOM     31  C   UNL     1      42.927  22.446  19.482  0.00  0.00    +0.011 C 
ENDBRANCH   3   2
ENDBRANCH   4   3
ENDBRANCH   5   4
BRANCH  27  28
ATOM     28  O   UNL     1      48.630  20.782  20.086  0.00  0.00    -0.529 OA
ATOM     29  H   UNL     1      49.000  21.047  21.087  0.00  0.00    +0.402 HD
ENDBRANCH  27  28
BRANCH   8   9
ATOM      9  C   UNL     1      45.296  16.252  19.411  0.00  0.00    +0.125 C 
BRANCH   9  10
ATOM     10  C   UNL     1      45.193  15.506  20.717  0.00  0.00    -0.039 C 
ATOM     11  C   UNL     1      45.302  14.200  20.735  0.00  0.00    -0.150 C 
ATOM     12  C   UNL     1      45.425  13.436  19.442  0.00  0.00    +0.073 C 
ATOM     13  C   UNL     1      45.305  13.462  22.049  0.00  0.00    +0.059 C 
ENDBRANCH   9  10
ENDBRANCH   8   9
TORSDOF 7
ENDMDL
