MODEL 1
REMARK VINA RESULT:      -5.6      0.000      0.000
REMARK  Name = ZINC95486351
REMARK  11 active torsions:
REMARK  status: ('A' for Active; 'I' for Inactive)
REMARK    1  A    between atoms: C2_2  and  C7_10
REMARK    2  A    between atoms: C4_4  and  O3_9
REMARK    3  A    between atoms: C5_5  and  O2_8
REMARK    4  A    between atoms: C6_6  and  O1_7
REMARK    5  A    between atoms: C7_10  and  O5_12
REMARK    6  A    between atoms: O5_12  and  C8_13
REMARK    7  A    between atoms: C9_15  and  O10_28
REMARK    8  A    between atoms: C10_17  and  O9_27
REMARK    9  A    between atoms: C11_19  and  O8_26
REMARK   10  A    between atoms: C12_21  and  C13_24
REMARK   11  A    between atoms: C13_24  and  O7_25
REMARK                            x       y       z     vdW  Elec       q    Type
REMARK                         _______ _______ _______ _____ _____    ______ ____
ROOT
ATOM      4  O   UNL     1      44.483  18.398  20.878  0.00  0.00    -0.339 OA
ENDROOT
BRANCH   4   5
ATOM      5  C   UNL     1      44.918  17.572  19.795  0.00  0.00    +0.326 C 
ATOM      6  C   UNL     1      46.320  18.002  19.357  0.00  0.00    +0.147 C 
ATOM      9  C   UNL     1      46.803  17.075  18.236  0.00  0.00    +0.168 C 
ATOM     12  C   UNL     1      46.769  15.627  18.737  0.00  0.00    +0.174 C 
ATOM     15  C   UNL     1      45.348  15.289  19.200  0.00  0.00    +0.203 C 
ATOM     19  O   UNL     1      44.950  16.208  20.219  0.00  0.00    -0.369 OA
BRANCH   6   7
ATOM      7  O   UNL     1      46.279  19.348  18.878  0.00  0.00    -0.552 OA
ATOM      8  H   UNL     1      46.262  19.422  17.914  0.00  0.00    +0.394 HD
ENDBRANCH   6   7
BRANCH   9  10
ATOM     10  O   UNL     1      45.947  17.210  17.101  0.00  0.00    -0.546 OA
ATOM     11  H   UNL     1      46.130  17.990  16.561  0.00  0.00    +0.390 HD
ENDBRANCH   9  10
BRANCH  12  13
ATOM     13  O   UNL     1      47.149  14.746  17.678  0.00  0.00    -0.540 OA
ATOM     14  H   UNL     1      48.096  14.756  17.480  0.00  0.00    +0.387 HD
ENDBRANCH  12  13
BRANCH  15  16
ATOM     16  C   UNL     1      45.319  13.865  19.756  0.00  0.00    +0.219 C 
BRANCH  16  17
ATOM     17  O   UNL     1      44.676  13.000  18.818  0.00  0.00    -0.562 OA
ATOM     18  H   UNL     1      44.077  12.357  19.222  0.00  0.00    +0.382 HD
ENDBRANCH  16  17
ENDBRANCH  15  16
ENDBRANCH   4   5
BRANCH   4   3
ATOM      3  C   UNL     1      43.170  18.698  20.929  0.00  0.00    +0.514 C 
ATOM     20  O   UNL     1      42.424  18.040  21.626  0.00  0.00    -0.468 OA
BRANCH   3   2
ATOM      1  C   UNL     1      41.471  19.670  19.392  0.00  0.00    +0.082 A 
ATOM      2  C   UNL     1      42.641  19.827  20.142  0.00  0.00    -0.101 A 
ATOM     21  C   UNL     1      43.307  21.055  20.144  0.00  0.00    +0.070 A 
ATOM     22  C   UNL     1      42.809  22.111  19.405  0.00  0.00    +0.085 A 
ATOM     25  C   UNL     1      41.643  21.952  18.659  0.00  0.00    +0.095 A 
ATOM     28  C   UNL     1      40.977  20.730  18.656  0.00  0.00    +0.090 A 
BRANCH  22  23
ATOM     23  O   UNL     1      43.456  23.307  19.406  0.00  0.00    -0.479 OA
ATOM     24  H   UNL     1      44.398  23.245  19.196  0.00  0.00    +0.393 HD
ENDBRANCH  22  23
BRANCH  25  26
ATOM     26  O   UNL     1      41.155  22.993  17.934  0.00  0.00    -0.478 OA
ATOM     27  H   UNL     1      41.776  23.727  17.834  0.00  0.00    +0.397 HD
ENDBRANCH  25  26
BRANCH  28  29
ATOM     29  O   UNL     1      39.839  20.578  17.927  0.00  0.00    -0.484 OA
ATOM     30  H   UNL     1      39.334  21.394  17.811  0.00  0.00    +0.400 HD
ENDBRANCH  28  29
ENDBRANCH   3   2
ENDBRANCH   4   3
TORSDOF 11
ENDMDL
MODEL 2
REMARK VINA RESULT:      -5.5      4.194      7.795
REMARK  Name = ZINC95486351
REMARK  11 active torsions:
REMARK  status: ('A' for Active; 'I' for Inactive)
REMARK    1  A    between atoms: C2_2  and  C7_10
REMARK    2  A    between atoms: C4_4  and  O3_9
REMARK    3  A    between atoms: C5_5  and  O2_8
REMARK    4  A    between atoms: C6_6  and  O1_7
REMARK    5  A    between atoms: C7_10  and  O5_12
REMARK    6  A    between atoms: O5_12  and  C8_13
REMARK    7  A    between atoms: C9_15  and  O10_28
REMARK    8  A    between atoms: C10_17  and  O9_27
REMARK    9  A    between atoms: C11_19  and  O8_26
REMARK   10  A    between atoms: C12_21  and  C13_24
REMARK   11  A    between atoms: C13_24  and  O7_25
REMARK                            x       y       z     vdW  Elec       q    Type
REMARK                         _______ _______ _______ _____ _____    ______ ____
ROOT
ATOM      4  O   UNL     1      47.241  20.369  21.383  0.00  0.00    -0.339 OA
ENDROOT
BRANCH   4   5
ATOM      5  C   UNL     1      46.009  21.094  21.346  0.00  0.00    +0.326 C 
ATOM      6  C   UNL     1      46.289  22.559  21.000  0.00  0.00    +0.147 C 
ATOM      9  C   UNL     1      44.960  23.315  20.905  0.00  0.00    +0.168 C 
ATOM     12  C   UNL     1      44.071  22.632  19.861  0.00  0.00    +0.174 C 
ATOM     15  C   UNL     1      43.877  21.163  20.251  0.00  0.00    +0.203 C 
ATOM     19  O   UNL     1      45.152  20.527  20.354  0.00  0.00    -0.369 OA
BRANCH   6   7
ATOM      7  O   UNL     1      47.099  23.144  22.022  0.00  0.00    -0.552 OA
ATOM      8  H   UNL     1      47.518  23.976  21.763  0.00  0.00    +0.394 HD
ENDBRANCH   6   7
BRANCH   9  10
ATOM     10  O   UNL     1      44.308  23.299  22.176  0.00  0.00    -0.546 OA
ATOM     11  H   UNL     1      44.910  23.194  22.925  0.00  0.00    +0.390 HD
ENDBRANCH   9  10
BRANCH  12  13
ATOM     13  O   UNL     1      42.801  23.285  19.814  0.00  0.00    -0.540 OA
ATOM     14  H   UNL     1      42.694  23.880  19.059  0.00  0.00    +0.387 HD
ENDBRANCH  12  13
BRANCH  15  16
ATOM     16  C   UNL     1      43.039  20.458  19.183  0.00  0.00    +0.219 C 
BRANCH  16  17
ATOM     17  O   UNL     1      41.652  20.604  19.493  0.00  0.00    -0.562 OA
ATOM     18  H   UNL     1      41.280  21.461  19.242  0.00  0.00    +0.382 HD
ENDBRANCH  16  17
ENDBRANCH  15  16
ENDBRANCH   4   5
BRANCH   4   3
ATOM      3  C   UNL     1      47.867  20.167  20.207  0.00  0.00    +0.514 C 
ATOM     20  O   UNL     1      47.277  19.631  19.289  0.00  0.00    -0.468 OA
BRANCH   3   2
ATOM      1  C   UNL     1      49.790  20.776  18.750  0.00  0.00    +0.082 A 
ATOM      2  C   UNL     1      49.266  20.597  20.034  0.00  0.00    -0.101 A 
ATOM     21  C   UNL     1      50.072  20.826  21.152  0.00  0.00    +0.070 A 
ATOM     22  C   UNL     1      51.383  21.230  20.986  0.00  0.00    +0.085 A 
ATOM     25  C   UNL     1      51.902  21.407  19.706  0.00  0.00    +0.095 A 
ATOM     28  C   UNL     1      51.102  21.180  18.590  0.00  0.00    +0.090 A 
BRANCH  22  23
ATOM     23  O   UNL     1      52.169  21.453  22.074  0.00  0.00    -0.479 OA
ATOM     24  H   UNL     1      52.194  20.716  22.700  0.00  0.00    +0.393 HD
ENDBRANCH  22  23
BRANCH  25  26
ATOM     26  O   UNL     1      53.192  21.805  19.546  0.00  0.00    -0.478 OA
ATOM     27  H   UNL     1      53.421  22.043  18.638  0.00  0.00    +0.397 HD
ENDBRANCH  25  26
BRANCH  28  29
ATOM     29  O   UNL     1      51.611  21.355  17.341  0.00  0.00    -0.484 OA
ATOM     30  H   UNL     1      51.044  21.873  16.754  0.00  0.00    +0.400 HD
ENDBRANCH  28  29
ENDBRANCH   3   2
ENDBRANCH   4   3
TORSDOF 11
ENDMDL
MODEL 3
REMARK VINA RESULT:      -5.5      4.094      7.779
REMARK  Name = ZINC95486351
REMARK  11 active torsions:
REMARK  status: ('A' for Active; 'I' for Inactive)
REMARK    1  A    between atoms: C2_2  and  C7_10
REMARK    2  A    between atoms: C4_4  and  O3_9
REMARK    3  A    between atoms: C5_5  and  O2_8
REMARK    4  A    between atoms: C6_6  and  O1_7
REMARK    5  A    between atoms: C7_10  and  O5_12
REMARK    6  A    between atoms: O5_12  and  C8_13
REMARK    7  A    between atoms: C9_15  and  O10_28
REMARK    8  A    between atoms: C10_17  and  O9_27
REMARK    9  A    between atoms: C11_19  and  O8_26
REMARK   10  A    between atoms: C12_21  and  C13_24
REMARK   11  A    between atoms: C13_24  and  O7_25
REMARK                            x       y       z     vdW  Elec       q    Type
REMARK                         _______ _______ _______ _____ _____    ______ ____
ROOT
ATOM      4  O   UNL     1      48.618  19.519  20.503  0.00  0.00    -0.339 OA
ENDROOT
BRANCH   4   5
ATOM      5  C   UNL     1      47.507  19.648  19.611  0.00  0.00    +0.326 C 
ATOM      6  C   UNL     1      46.607  18.416  19.736  0.00  0.00    +0.147 C 
ATOM      9  C   UNL     1      45.389  18.589  18.822  0.00  0.00    +0.168 C 
ATOM     12  C   UNL     1      44.661  19.883  19.201  0.00  0.00    +0.174 C 
ATOM     15  C   UNL     1      45.637  21.058  19.098  0.00  0.00    +0.203 C 
ATOM     19  O   UNL     1      46.761  20.819  19.948  0.00  0.00    -0.369 OA
BRANCH   6   7
ATOM      7  O   UNL     1      47.336  17.251  19.345  0.00  0.00    -0.552 OA
ATOM      8  H   UNL     1      47.944  17.397  18.608  0.00  0.00    +0.394 HD
ENDBRANCH   6   7
BRANCH   9  10
ATOM     10  O   UNL     1      45.819  18.662  17.462  0.00  0.00    -0.546 OA
ATOM     11  H   UNL     1      46.279  17.870  17.152  0.00  0.00    +0.390 HD
ENDBRANCH   9  10
BRANCH  12  13
ATOM     13  O   UNL     1      43.564  20.092  18.309  0.00  0.00    -0.540 OA
ATOM     14  H   UNL     1      42.857  20.639  18.679  0.00  0.00    +0.387 HD
ENDBRANCH  12  13
BRANCH  15  16
ATOM     16  C   UNL     1      44.933  22.346  19.531  0.00  0.00    +0.219 C 
BRANCH  16  17
ATOM     17  O   UNL     1      43.887  22.030  20.452  0.00  0.00    -0.562 OA
ATOM     18  H   UNL     1      43.465  22.804  20.849  0.00  0.00    +0.382 HD
ENDBRANCH  16  17
ENDBRANCH  15  16
ENDBRANCH   4   5
BRANCH   4   3
ATOM      3  C   UNL     1      49.717  20.244  20.220  0.00  0.00    +0.514 C 
ATOM     20  O   UNL     1      50.079  21.121  20.980  0.00  0.00    -0.468 OA
BRANCH   3   2
ATOM      1  C   UNL     1      50.694  20.993  18.057  0.00  0.00    +0.082 A 
ATOM      2  C   UNL     1      50.482  19.973  18.989  0.00  0.00    -0.101 A 
ATOM     21  C   UNL     1      50.996  18.696  18.752  0.00  0.00    +0.070 A 
ATOM     22  C   UNL     1      51.713  18.444  17.597  0.00  0.00    +0.085 A 
ATOM     25  C   UNL     1      51.923  19.462  16.670  0.00  0.00    +0.095 A 
ATOM     28  C   UNL     1      51.412  20.736  16.904  0.00  0.00    +0.090 A 
BRANCH  22  23
ATOM     23  O   UNL     1      52.214  17.201  17.365  0.00  0.00    -0.479 OA
ATOM     24  H   UNL     1      53.110  17.199  17.000  0.00  0.00    +0.393 HD
ENDBRANCH  22  23
BRANCH  25  26
ATOM     26  O   UNL     1      52.629  19.212  15.536  0.00  0.00    -0.478 OA
ATOM     27  H   UNL     1      53.444  19.726  15.459  0.00  0.00    +0.397 HD
ENDBRANCH  25  26
BRANCH  28  29
ATOM     29  O   UNL     1      51.619  21.728  15.998  0.00  0.00    -0.484 OA
ATOM     30  H   UNL     1      52.122  22.478  16.343  0.00  0.00    +0.400 HD
ENDBRANCH  28  29
ENDBRANCH   3   2
ENDBRANCH   4   3
TORSDOF 11
ENDMDL
MODEL 4
REMARK VINA RESULT:      -5.5      4.189      7.973
REMARK  Name = ZINC95486351
REMARK  11 active torsions:
REMARK  status: ('A' for Active; 'I' for Inactive)
REMARK    1  A    between atoms: C2_2  and  C7_10
REMARK    2  A    between atoms: C4_4  and  O3_9
REMARK    3  A    between atoms: C5_5  and  O2_8
REMARK    4  A    between atoms: C6_6  and  O1_7
REMARK    5  A    between atoms: C7_10  and  O5_12
REMARK    6  A    between atoms: O5_12  and  C8_13
REMARK    7  A    between atoms: C9_15  and  O10_28
REMARK    8  A    between atoms: C10_17  and  O9_27
REMARK    9  A    between atoms: C11_19  and  O8_26
REMARK   10  A    between atoms: C12_21  and  C13_24
REMARK   11  A    between atoms: C13_24  and  O7_25
REMARK                            x       y       z     vdW  Elec       q    Type
REMARK                         _______ _______ _______ _____ _____    ______ ____
ROOT
ATOM      4  O   UNL     1      48.538  19.588  20.413  0.00  0.00    -0.339 OA
ENDROOT
BRANCH   4   5
ATOM      5  C   UNL     1      47.293  20.225  20.117  0.00  0.00    +0.326 C 
ATOM      6  C   UNL     1      46.301  19.185  19.589  0.00  0.00    +0.147 C 
ATOM      9  C   UNL     1      44.952  19.863  19.330  0.00  0.00    +0.168 C 
ATOM     12  C   UNL     1      44.468  20.522  20.626  0.00  0.00    +0.174 C 
ATOM     15  C   UNL     1      45.531  21.510  21.114  0.00  0.00    +0.203 C 
ATOM     19  O   UNL     1      46.768  20.821  21.304  0.00  0.00    -0.369 OA
BRANCH   6   7
ATOM      7  O   UNL     1      46.797  18.628  18.369  0.00  0.00    -0.552 OA
ATOM      8  H   UNL     1      47.676  18.232  18.447  0.00  0.00    +0.394 HD
ENDBRANCH   6   7
BRANCH   9  10
ATOM     10  O   UNL     1      45.102  20.856  18.314  0.00  0.00    -0.546 OA
ATOM     11  H   UNL     1      44.736  21.719  18.551  0.00  0.00    +0.390 HD
ENDBRANCH   9  10
BRANCH  12  13
ATOM     13  O   UNL     1      43.245  21.218  20.380  0.00  0.00    -0.540 OA
ATOM     14  H   UNL     1      42.508  20.642  20.134  0.00  0.00    +0.387 HD
ENDBRANCH  12  13
BRANCH  15  16
ATOM     16  C   UNL     1      45.082  22.129  22.439  0.00  0.00    +0.219 C 
BRANCH  16  17
ATOM     17  O   UNL     1      44.234  23.249  22.179  0.00  0.00    -0.562 OA
ATOM     18  H   UNL     1      44.193  23.503  21.247  0.00  0.00    +0.382 HD
ENDBRANCH  16  17
ENDBRANCH  15  16
ENDBRANCH   4   5
BRANCH   4   3
ATOM      3  C   UNL     1      49.659  20.301  20.186  0.00  0.00    +0.514 C 
ATOM     20  O   UNL     1      50.012  21.148  20.983  0.00  0.00    -0.468 OA
BRANCH   3   2
ATOM      1  C   UNL     1      50.982  18.780  18.727  0.00  0.00    +0.082 A 
ATOM      2  C   UNL     1      50.457  20.053  18.971  0.00  0.00    -0.101 A 
ATOM     21  C   UNL     1      50.690  21.088  18.063  0.00  0.00    +0.070 A 
ATOM     22  C   UNL     1      51.438  20.852  16.925  0.00  0.00    +0.085 A 
ATOM     25  C   UNL     1      51.960  19.583  16.684  0.00  0.00    +0.095 A 
ATOM     28  C   UNL     1      51.730  18.550  17.588  0.00  0.00    +0.090 A 
BRANCH  22  23
ATOM     23  O   UNL     1      51.665  21.859  16.039  0.00  0.00    -0.479 OA
ATOM     24  H   UNL     1      50.890  22.408  15.859  0.00  0.00    +0.393 HD
ENDBRANCH  22  23
BRANCH  25  26
ATOM     26  O   UNL     1      52.696  19.355  15.564  0.00  0.00    -0.478 OA
ATOM     27  H   UNL     1      52.477  18.528  15.113  0.00  0.00    +0.397 HD
ENDBRANCH  25  26
BRANCH  28  29
ATOM     29  O   UNL     1      52.241  17.312  17.349  0.00  0.00    -0.484 OA
ATOM     30  H   UNL     1      52.672  16.911  18.115  0.00  0.00    +0.400 HD
ENDBRANCH  28  29
ENDBRANCH   3   2
ENDBRANCH   4   3
TORSDOF 11
ENDMDL
MODEL 5
REMARK VINA RESULT:      -5.5      1.275      2.347
REMARK  Name = ZINC95486351
REMARK  11 active torsions:
REMARK  status: ('A' for Active; 'I' for Inactive)
REMARK    1  A    between atoms: C2_2  and  C7_10
REMARK    2  A    between atoms: C4_4  and  O3_9
REMARK    3  A    between atoms: C5_5  and  O2_8
REMARK    4  A    between atoms: C6_6  and  O1_7
REMARK    5  A    between atoms: C7_10  and  O5_12
REMARK    6  A    between atoms: O5_12  and  C8_13
REMARK    7  A    between atoms: C9_15  and  O10_28
REMARK    8  A    between atoms: C10_17  and  O9_27
REMARK    9  A    between atoms: C11_19  and  O8_26
REMARK   10  A    between atoms: C12_21  and  C13_24
REMARK   11  A    between atoms: C13_24  and  O7_25
REMARK                            x       y       z     vdW  Elec       q    Type
REMARK                         _______ _______ _______ _____ _____    ______ ____
ROOT
ATOM      4  O   UNL     1      43.961  17.647  20.459  0.00  0.00    -0.339 OA
ENDROOT
BRANCH   4   5
ATOM      5  C   UNL     1      45.195  17.039  20.068  0.00  0.00    +0.326 C 
ATOM      6  C   UNL     1      45.080  15.519  20.204  0.00  0.00    +0.147 C 
ATOM      9  C   UNL     1      46.384  14.871  19.728  0.00  0.00    +0.168 C 
ATOM     12  C   UNL     1      46.659  15.307  18.285  0.00  0.00    +0.174 C 
ATOM     15  C   UNL     1      46.712  16.836  18.222  0.00  0.00    +0.203 C 
ATOM     19  O   UNL     1      45.481  17.374  18.709  0.00  0.00    -0.369 OA
BRANCH   6   7
ATOM      7  O   UNL     1      44.850  15.178  21.574  0.00  0.00    -0.552 OA
ATOM      8  H   UNL     1      45.184  14.306  21.823  0.00  0.00    +0.394 HD
ENDBRANCH   6   7
BRANCH   9  10
ATOM     10  O   UNL     1      47.461  15.290  20.568  0.00  0.00    -0.546 OA
ATOM     11  H   UNL     1      47.811  16.165  20.351  0.00  0.00    +0.390 HD
ENDBRANCH   9  10
BRANCH  12  13
ATOM     13  O   UNL     1      47.909  14.767  17.853  0.00  0.00    -0.540 OA
ATOM     14  H   UNL     1      48.003  14.716  16.891  0.00  0.00    +0.387 HD
ENDBRANCH  12  13
BRANCH  15  16
ATOM     16  C   UNL     1      46.927  17.280  16.774  0.00  0.00    +0.219 C 
BRANCH  16  17
ATOM     17  O   UNL     1      46.381  16.301  15.889  0.00  0.00    -0.562 OA
ATOM     18  H   UNL     1      45.516  16.536  15.526  0.00  0.00    +0.382 HD
ENDBRANCH  16  17
ENDBRANCH  15  16
ENDBRANCH   4   5
BRANCH   4   3
ATOM      3  C   UNL     1      44.016  18.924  20.887  0.00  0.00    +0.514 C 
ATOM     20  O   UNL     1      44.676  19.207  21.868  0.00  0.00    -0.468 OA
BRANCH   3   2
ATOM      1  C   UNL     1      42.133  19.652  19.433  0.00  0.00    +0.082 A 
ATOM      2  C   UNL     1      43.280  19.976  20.164  0.00  0.00    -0.101 A 
ATOM     21  C   UNL     1      43.726  21.299  20.208  0.00  0.00    +0.070 A 
ATOM     22  C   UNL     1      43.033  22.284  19.529  0.00  0.00    +0.085 A 
ATOM     25  C   UNL     1      41.891  21.958  18.802  0.00  0.00    +0.095 A 
ATOM     28  C   UNL     1      41.444  20.641  18.757  0.00  0.00    +0.090 A 
BRANCH  22  23
ATOM     23  O   UNL     1      43.467  23.572  19.571  0.00  0.00    -0.479 OA
ATOM     24  H   UNL     1      43.801  23.848  20.436  0.00  0.00    +0.393 HD
ENDBRANCH  22  23
BRANCH  25  26
ATOM     26  O   UNL     1      41.212  22.929  18.136  0.00  0.00    -0.478 OA
ATOM     27  H   UNL     1      41.481  23.828  18.369  0.00  0.00    +0.397 HD
ENDBRANCH  25  26
BRANCH  28  29
ATOM     29  O   UNL     1      40.328  20.326  18.046  0.00  0.00    -0.484 OA
ATOM     30  H   UNL     1      40.301  20.716  17.162  0.00  0.00    +0.400 HD
ENDBRANCH  28  29
ENDBRANCH   3   2
ENDBRANCH   4   3
TORSDOF 11
ENDMDL
MODEL 6
REMARK VINA RESULT:      -5.4      1.791      6.729
REMARK  Name = ZINC95486351
REMARK  11 active torsions:
REMARK  status: ('A' for Active; 'I' for Inactive)
REMARK    1  A    between atoms: C2_2  and  C7_10
REMARK    2  A    between atoms: C4_4  and  O3_9
REMARK    3  A    between atoms: C5_5  and  O2_8
REMARK    4  A    between atoms: C6_6  and  O1_7
REMARK    5  A    between atoms: C7_10  and  O5_12
REMARK    6  A    between atoms: O5_12  and  C8_13
REMARK    7  A    between atoms: C9_15  and  O10_28
REMARK    8  A    between atoms: C10_17  and  O9_27
REMARK    9  A    between atoms: C11_19  and  O8_26
REMARK   10  A    between atoms: C12_21  and  C13_24
REMARK   11  A    between atoms: C13_24  and  O7_25
REMARK                            x       y       z     vdW  Elec       q    Type
REMARK                         _______ _______ _______ _____ _____    ______ ____
ROOT
ATOM      4  O   UNL     1      45.908  18.410  20.768  0.00  0.00    -0.339 OA
ENDROOT
BRANCH   4   5
ATOM      5  C   UNL     1      45.066  19.550  20.959  0.00  0.00    +0.326 C 
ATOM      6  C   UNL     1      45.923  20.818  20.989  0.00  0.00    +0.147 C 
ATOM      9  C   UNL     1      45.008  22.039  21.134  0.00  0.00    +0.168 C 
ATOM     12  C   UNL     1      43.999  22.046  19.981  0.00  0.00    +0.174 C 
ATOM     15  C   UNL     1      43.217  20.729  19.990  0.00  0.00    +0.203 C 
ATOM     19  O   UNL     1      44.129  19.634  19.884  0.00  0.00    -0.369 OA
BRANCH   6   7
ATOM      7  O   UNL     1      46.822  20.760  22.099  0.00  0.00    -0.552 OA
ATOM      8  H   UNL     1      46.393  20.561  22.942  0.00  0.00    +0.394 HD
ENDBRANCH   6   7
BRANCH   9  10
ATOM     10  O   UNL     1      44.313  21.970  22.380  0.00  0.00    -0.546 OA
ATOM     11  H   UNL     1      44.684  21.331  23.003  0.00  0.00    +0.390 HD
ENDBRANCH   9  10
BRANCH  12  13
ATOM     13  O   UNL     1      43.095  23.140  20.144  0.00  0.00    -0.540 OA
ATOM     14  H   UNL     1      42.957  23.658  19.339  0.00  0.00    +0.387 HD
ENDBRANCH  12  13
BRANCH  15  16
ATOM     16  C   UNL     1      42.249  20.704  18.806  0.00  0.00    +0.219 C 
BRANCH  16  17
ATOM     17  O   UNL     1      41.025  21.340  19.178  0.00  0.00    -0.562 OA
ATOM     18  H   UNL     1      41.072  22.305  19.194  0.00  0.00    +0.382 HD
ENDBRANCH  16  17
ENDBRANCH  15  16
ENDBRANCH   4   5
BRANCH   4   3
ATOM      3  C   UNL     1      45.306  17.253  20.431  0.00  0.00    +0.514 C 
ATOM     20  O   UNL     1      44.412  16.809  21.125  0.00  0.00    -0.468 OA
BRANCH   3   2
ATOM      1  C   UNL     1      46.178  17.237  18.100  0.00  0.00    +0.082 A 
ATOM      2  C   UNL     1      45.728  16.528  19.219  0.00  0.00    -0.101 A 
ATOM     21  C   UNL     1      45.680  15.132  19.186  0.00  0.00    +0.070 A 
ATOM     22  C   UNL     1      46.078  14.455  18.048  0.00  0.00    +0.085 A 
ATOM     25  C   UNL     1      46.525  15.163  16.935  0.00  0.00    +0.095 A 
ATOM     28  C   UNL     1      46.574  16.554  16.966  0.00  0.00    +0.090 A 
BRANCH  22  23
ATOM     23  O   UNL     1      46.032  13.096  18.015  0.00  0.00    -0.479 OA
ATOM     24  H   UNL     1      46.285  12.673  18.847  0.00  0.00    +0.393 HD
ENDBRANCH  22  23
BRANCH  25  26
ATOM     26  O   UNL     1      46.916  14.495  15.818  0.00  0.00    -0.478 OA
ATOM     27  H   UNL     1      47.839  14.210  15.834  0.00  0.00    +0.397 HD
ENDBRANCH  25  26
BRANCH  28  29
ATOM     29  O   UNL     1      47.012  17.243  15.878  0.00  0.00    -0.484 OA
ATOM     30  H   UNL     1      47.952  17.466  15.906  0.00  0.00    +0.400 HD
ENDBRANCH  28  29
ENDBRANCH   3   2
ENDBRANCH   4   3
TORSDOF 11
ENDMDL
MODEL 7
REMARK VINA RESULT:      -5.4      1.814      7.177
REMARK  Name = ZINC95486351
REMARK  11 active torsions:
REMARK  status: ('A' for Active; 'I' for Inactive)
REMARK    1  A    between atoms: C2_2  and  C7_10
REMARK    2  A    between atoms: C4_4  and  O3_9
REMARK    3  A    between atoms: C5_5  and  O2_8
REMARK    4  A    between atoms: C6_6  and  O1_7
REMARK    5  A    between atoms: C7_10  and  O5_12
REMARK    6  A    between atoms: O5_12  and  C8_13
REMARK    7  A    between atoms: C9_15  and  O10_28
REMARK    8  A    between atoms: C10_17  and  O9_27
REMARK    9  A    between atoms: C11_19  and  O8_26
REMARK   10  A    between atoms: C12_21  and  C13_24
REMARK   11  A    between atoms: C13_24  and  O7_25
REMARK                            x       y       z     vdW  Elec       q    Type
REMARK                         _______ _______ _______ _____ _____    ______ ____
ROOT
ATOM      4  O   UNL     1      45.839  18.700  18.019  0.00  0.00    -0.339 OA
ENDROOT
BRANCH   4   5
ATOM      5  C   UNL     1      45.260  19.648  18.919  0.00  0.00    +0.326 C 
ATOM      6  C   UNL     1      45.972  20.995  18.769  0.00  0.00    +0.147 C 
ATOM      9  C   UNL     1      45.308  22.020  19.694  0.00  0.00    +0.168 C 
ATOM     12  C   UNL     1      43.817  22.109  19.351  0.00  0.00    +0.174 C 
ATOM     15  C   UNL     1      43.189  20.718  19.478  0.00  0.00    +0.203 C 
ATOM     19  O   UNL     1      43.873  19.807  18.616  0.00  0.00    -0.369 OA
BRANCH   6   7
ATOM      7  O   UNL     1      47.348  20.850  19.127  0.00  0.00    -0.552 OA
ATOM      8  H   UNL     1      47.489  20.579  20.045  0.00  0.00    +0.394 HD
ENDBRANCH   6   7
BRANCH   9  10
ATOM     10  O   UNL     1      45.464  21.609  21.053  0.00  0.00    -0.546 OA
ATOM     11  H   UNL     1      44.789  20.986  21.356  0.00  0.00    +0.390 HD
ENDBRANCH   9  10
BRANCH  12  13
ATOM     13  O   UNL     1      43.173  23.009  20.254  0.00  0.00    -0.540 OA
ATOM     14  H   UNL     1      43.782  23.591  20.730  0.00  0.00    +0.387 HD
ENDBRANCH  12  13
BRANCH  15  16
ATOM     16  C   UNL     1      41.713  20.787  19.080  0.00  0.00    +0.219 C 
BRANCH  16  17
ATOM     17  O   UNL     1      41.471  21.994  18.354  0.00  0.00    -0.562 OA
ATOM     18  H   UNL     1      40.999  21.864  17.521  0.00  0.00    +0.382 HD
ENDBRANCH  16  17
ENDBRANCH  15  16
ENDBRANCH   4   5
BRANCH   4   3
ATOM      3  C   UNL     1      46.630  17.750  18.555  0.00  0.00    +0.514 C 
ATOM     20  O   UNL     1      47.495  18.059  19.351  0.00  0.00    -0.468 OA
BRANCH   3   2
ATOM      1  C   UNL     1      46.871  15.887  16.924  0.00  0.00    +0.082 A 
ATOM      2  C   UNL     1      46.446  16.337  18.177  0.00  0.00    -0.101 A 
ATOM     21  C   UNL     1      45.846  15.447  19.070  0.00  0.00    +0.070 A 
ATOM     22  C   UNL     1      45.674  14.122  18.714  0.00  0.00    +0.085 A 
ATOM     25  C   UNL     1      46.098  13.676  17.464  0.00  0.00    +0.095 A 
ATOM     28  C   UNL     1      46.697  14.561  16.572  0.00  0.00    +0.090 A 
BRANCH  22  23
ATOM     23  O   UNL     1      45.090  13.254  19.582  0.00  0.00    -0.479 OA
ATOM     24  H   UNL     1      44.791  13.663  20.406  0.00  0.00    +0.393 HD
ENDBRANCH  22  23
BRANCH  25  26
ATOM     26  O   UNL     1      45.929  12.373  17.116  0.00  0.00    -0.478 OA
ATOM     27  H   UNL     1      45.586  12.247  16.221  0.00  0.00    +0.397 HD
ENDBRANCH  25  26
BRANCH  28  29
ATOM     29  O   UNL     1      47.111  14.122  15.353  0.00  0.00    -0.484 OA
ATOM     30  H   UNL     1      47.043  13.165  15.236  0.00  0.00    +0.400 HD
ENDBRANCH  28  29
ENDBRANCH   3   2
ENDBRANCH   4   3
TORSDOF 11
ENDMDL
MODEL 8
REMARK VINA RESULT:      -5.3      3.715      7.274
REMARK  Name = ZINC95486351
REMARK  11 active torsions:
REMARK  status: ('A' for Active; 'I' for Inactive)
REMARK    1  A    between atoms: C2_2  and  C7_10
REMARK    2  A    between atoms: C4_4  and  O3_9
REMARK    3  A    between atoms: C5_5  and  O2_8
REMARK    4  A    between atoms: C6_6  and  O1_7
REMARK    5  A    between atoms: C7_10  and  O5_12
REMARK    6  A    between atoms: O5_12  and  C8_13
REMARK    7  A    between atoms: C9_15  and  O10_28
REMARK    8  A    between atoms: C10_17  and  O9_27
REMARK    9  A    between atoms: C11_19  and  O8_26
REMARK   10  A    between atoms: C12_21  and  C13_24
REMARK   11  A    between atoms: C13_24  and  O7_25
REMARK                            x       y       z     vdW  Elec       q    Type
REMARK                         _______ _______ _______ _____ _____    ______ ____
ROOT
ATOM      4  O   UNL     1      47.478  20.997  18.923  0.00  0.00    -0.339 OA
ENDROOT
BRANCH   4   5
ATOM      5  C   UNL     1      46.380  20.540  19.716  0.00  0.00    +0.326 C 
ATOM      6  C   UNL     1      45.064  20.937  19.042  0.00  0.00    +0.147 C 
ATOM      9  C   UNL     1      43.892  20.393  19.867  0.00  0.00    +0.168 C 
ATOM     12  C   UNL     1      44.041  18.875  20.004  0.00  0.00    +0.174 C 
ATOM     15  C   UNL     1      45.397  18.558  20.640  0.00  0.00    +0.203 C 
ATOM     19  O   UNL     1      46.440  19.119  19.840  0.00  0.00    -0.369 OA
BRANCH   6   7
ATOM      7  O   UNL     1      44.975  22.362  18.968  0.00  0.00    -0.552 OA
ATOM      8  H   UNL     1      45.458  22.747  18.225  0.00  0.00    +0.394 HD
ENDBRANCH   6   7
BRANCH   9  10
ATOM     10  O   UNL     1      43.900  20.995  21.163  0.00  0.00    -0.546 OA
ATOM     11  H   UNL     1      44.686  20.788  21.687  0.00  0.00    +0.390 HD
ENDBRANCH   9  10
BRANCH  12  13
ATOM     13  O   UNL     1      42.994  18.365  20.831  0.00  0.00    -0.540 OA
ATOM     14  H   UNL     1      42.232  18.030  20.337  0.00  0.00    +0.387 HD
ENDBRANCH  12  13
BRANCH  15  16
ATOM     16  C   UNL     1      45.579  17.041  20.726  0.00  0.00    +0.219 C 
BRANCH  16  17
ATOM     17  O   UNL     1      44.859  16.414  19.663  0.00  0.00    -0.562 OA
ATOM     18  H   UNL     1      43.936  16.692  19.595  0.00  0.00    +0.382 HD
ENDBRANCH  16  17
ENDBRANCH  15  16
ENDBRANCH   4   5
BRANCH   4   3
ATOM      3  C   UNL     1      48.716  20.687  19.356  0.00  0.00    +0.514 C 
ATOM     20  O   UNL     1      49.005  20.836  20.526  0.00  0.00    -0.468 OA
BRANCH   3   2
ATOM      1  C   UNL     1      50.542  21.047  17.705  0.00  0.00    +0.082 A 
ATOM      2  C   UNL     1      49.718  20.165  18.409  0.00  0.00    -0.101 A 
ATOM     21  C   UNL     1      49.846  18.787  18.214  0.00  0.00    +0.070 A 
ATOM     22  C   UNL     1      50.786  18.300  17.326  0.00  0.00    +0.085 A 
ATOM     25  C   UNL     1      51.607  19.182  16.625  0.00  0.00    +0.095 A 
ATOM     28  C   UNL     1      51.482  20.555  16.818  0.00  0.00    +0.090 A 
BRANCH  22  23
ATOM     23  O   UNL     1      50.912  16.960  17.135  0.00  0.00    -0.479 OA
ATOM     24  H   UNL     1      50.332  16.426  17.695  0.00  0.00    +0.393 HD
ENDBRANCH  22  23
BRANCH  25  26
ATOM     26  O   UNL     1      52.531  18.700  15.753  0.00  0.00    -0.478 OA
ATOM     27  H   UNL     1      52.476  17.746  15.610  0.00  0.00    +0.397 HD
ENDBRANCH  25  26
BRANCH  28  29
ATOM     29  O   UNL     1      52.284  21.413  16.133  0.00  0.00    -0.484 OA
ATOM     30  H   UNL     1      51.925  22.307  16.050  0.00  0.00    +0.400 HD
ENDBRANCH  28  29
ENDBRANCH   3   2
ENDBRANCH   4   3
TORSDOF 11
ENDMDL
MODEL 9
REMARK VINA RESULT:      -5.1      3.884      5.841
REMARK  Name = ZINC95486351
REMARK  11 active torsions:
REMARK  status: ('A' for Active; 'I' for Inactive)
REMARK    1  A    between atoms: C2_2  and  C7_10
REMARK    2  A    between atoms: C4_4  and  O3_9
REMARK    3  A    between atoms: C5_5  and  O2_8
REMARK    4  A    between atoms: C6_6  and  O1_7
REMARK    5  A    between atoms: C7_10  and  O5_12
REMARK    6  A    between atoms: O5_12  and  C8_13
REMARK    7  A    between atoms: C9_15  and  O10_28
REMARK    8  A    between atoms: C10_17  and  O9_27
REMARK    9  A    between atoms: C11_19  and  O8_26
REMARK   10  A    between atoms: C12_21  and  C13_24
REMARK   11  A    between atoms: C13_24  and  O7_25
REMARK                            x       y       z     vdW  Elec       q    Type
REMARK                         _______ _______ _______ _____ _____    ______ ____
ROOT
ATOM      4  O   UNL     1      48.170  18.881  19.256  0.00  0.00    -0.339 OA
ENDROOT
BRANCH   4   5
ATOM      5  C   UNL     1      49.458  18.662  18.676  0.00  0.00    +0.326 C 
ATOM      6  C   UNL     1      49.373  17.517  17.663  0.00  0.00    +0.147 C 
ATOM      9  C   UNL     1      50.743  17.327  17.003  0.00  0.00    +0.168 C 
ATOM     12  C   UNL     1      51.172  18.647  16.355  0.00  0.00    +0.174 C 
ATOM     15  C   UNL     1      51.186  19.749  17.419  0.00  0.00    +0.203 C 
ATOM     19  O   UNL     1      49.892  19.851  18.014  0.00  0.00    -0.369 OA
BRANCH   6   7
ATOM      7  O   UNL     1      48.995  16.313  18.334  0.00  0.00    -0.552 OA
ATOM      8  H   UNL     1      48.995  16.384  19.298  0.00  0.00    +0.394 HD
ENDBRANCH   6   7
BRANCH   9  10
ATOM     10  O   UNL     1      51.701  16.946  17.992  0.00  0.00    -0.546 OA
ATOM     11  H   UNL     1      51.723  17.527  18.764  0.00  0.00    +0.390 HD
ENDBRANCH   9  10
BRANCH  12  13
ATOM     13  O   UNL     1      52.479  18.503  15.797  0.00  0.00    -0.540 OA
ATOM     14  H   UNL     1      53.117  19.157  16.118  0.00  0.00    +0.387 HD
ENDBRANCH  12  13
BRANCH  15  16
ATOM     16  C   UNL     1      51.556  21.083  16.767  0.00  0.00    +0.219 C 
BRANCH  16  17
ATOM     17  O   UNL     1      51.450  20.965  15.347  0.00  0.00    -0.562 OA
ATOM     18  H   UNL     1      51.039  21.727  14.918  0.00  0.00    +0.382 HD
ENDBRANCH  16  17
ENDBRANCH  15  16
ENDBRANCH   4   5
BRANCH   4   3
ATOM      3  C   UNL     1      48.076  19.850  20.188  0.00  0.00    +0.514 C 
ATOM     20  O   UNL     1      48.968  20.000  21.000  0.00  0.00    -0.468 OA
BRANCH   3   2
ATOM      1  C   UNL     1      46.902  21.888  21.002  0.00  0.00    +0.082 A 
ATOM      2  C   UNL     1      46.891  20.727  20.223  0.00  0.00    -0.101 A 
ATOM     21  C   UNL     1      45.756  20.400  19.477  0.00  0.00    +0.070 A 
ATOM     22  C   UNL     1      44.648  21.224  19.510  0.00  0.00    +0.085 A 
ATOM     25  C   UNL     1      44.661  22.380  20.287  0.00  0.00    +0.095 A 
ATOM     28  C   UNL     1      45.791  22.709  21.031  0.00  0.00    +0.090 A 
BRANCH  22  23
ATOM     23  O   UNL     1      43.542  20.907  18.784  0.00  0.00    -0.479 OA
ATOM     24  H   UNL     1      43.256  21.604  18.178  0.00  0.00    +0.393 HD
ENDBRANCH  22  23
BRANCH  25  26
ATOM     26  O   UNL     1      43.569  23.189  20.318  0.00  0.00    -0.478 OA
ATOM     27  H   UNL     1      43.043  23.170  19.507  0.00  0.00    +0.397 HD
ENDBRANCH  25  26
BRANCH  28  29
ATOM     29  O   UNL     1      45.801  23.838  21.789  0.00  0.00    -0.484 OA
ATOM     30  H   UNL     1      45.796  23.673  22.741  0.00  0.00    +0.400 HD
ENDBRANCH  28  29
ENDBRANCH   3   2
ENDBRANCH   4   3
TORSDOF 11
ENDMDL
