MODEL 1
REMARK VINA RESULT:      -6.7      0.000      0.000
REMARK  Name = ZINC95485998
REMARK  16 active torsions:
REMARK  status: ('A' for Active; 'I' for Inactive)
REMARK    1  A    between atoms: C1_1  and  C2_2
REMARK    2  A    between atoms: C2_2  and  C3_3
REMARK    3  A    between atoms: C5_7  and  O9_41
REMARK    4  A    between atoms: C6_9  and  O6_33
REMARK    5  A    between atoms: C7_11  and  C21_32
REMARK    6  A    between atoms: C8_12  and  O3_24
REMARK    7  A    between atoms: C11_16  and  C14_22
REMARK    8  A    between atoms: C11_16  and  C15_23
REMARK    9  A    between atoms: C13_18  and  O1_20
REMARK   10  A    between atoms: O3_24  and  C16_25
REMARK   11  A    between atoms: C16_25  and  C17_27
REMARK   12  A    between atoms: O6_33  and  C22_34
REMARK   13  A    between atoms: C22_34  and  C23_36
REMARK   14  A    between atoms: O9_41  and  C27_42
REMARK   15  A    between atoms: C27_42  and  C28_44
REMARK   16  A    between atoms: N1_49  and  C33_51
REMARK                            x       y       z     vdW  Elec       q    Type
REMARK                         _______ _______ _______ _____ _____    ______ ____
ROOT
ATOM      3  C   UNL     1      45.667  17.064  21.344  0.00  0.00    +0.189 C 
ATOM      4  C   UNL     1      44.924  17.156  19.988  0.00  0.00    -0.036 C 
ATOM      5  C   UNL     1      45.994  17.284  18.887  0.00  0.00    +0.186 C 
ATOM     17  C   UNL     1      47.091  18.237  19.360  0.00  0.00    +0.181 C 
ATOM     26  C   UNL     1      46.492  19.583  19.789  0.00  0.00    -0.051 C 
ATOM     27  C   UNL     1      45.912  20.308  18.574  0.00  0.00    +0.067 C 
ATOM     28  C   UNL     1      47.603  20.421  20.430  0.00  0.00    +0.212 C 
ATOM     37  C   UNL     1      47.025  21.728  20.972  0.00  0.00    +0.011 C 
ATOM     38  C   UNL     1      45.989  21.410  22.053  0.00  0.00    +0.045 C 
ATOM     39  C   UNL     1      44.852  20.599  21.427  0.00  0.00    -0.041 C 
ATOM     40  C   UNL     1      43.823  20.254  22.505  0.00  0.00    +0.055 C 
ATOM     41  C   UNL     1      44.176  21.434  20.337  0.00  0.00    +0.035 C 
ATOM     42  C   UNL     1      45.387  19.320  20.818  0.00  0.00    +0.146 C 
ATOM     43  C   UNL     1      44.231  18.546  20.102  0.00  0.00    +0.167 C 
ATOM     46  O   UNL     1      45.861  18.405  21.818  0.00  0.00    -0.332 OA
ENDROOT
BRANCH   3   2
ATOM      1  C   UNL     1      44.939  14.779  22.041  0.00  0.00    +0.014 C 
ATOM      2  C   UNL     1      44.825  16.273  22.347  0.00  0.00    +0.010 C 
ENDBRANCH   3   2
BRANCH  43  44
ATOM     44  O   UNL     1      43.042  18.475  20.894  0.00  0.00    -0.523 OA
ATOM     45  H   UNL     1      42.962  17.661  21.410  0.00  0.00    +0.374 HD
ENDBRANCH  43  44
BRANCH   5   6
ATOM      6  O   UNL     1      46.558  15.999  18.620  0.00  0.00    -0.333 OA
BRANCH   6   7
ATOM      7  C   UNL     1      46.583  15.597  17.334  0.00  0.00    +0.541 C 
ATOM     16  O   UNL     1      46.524  16.418  16.439  0.00  0.00    -0.511 OA
BRANCH   7   8
ATOM      8  C   UNL     1      46.683  14.163  17.011  0.00  0.00    -0.231 A 
ATOM      9  C   UNL     1      45.952  13.210  17.762  0.00  0.00    +0.163 A 
ATOM     10  C   UNL     1      46.063  11.893  17.443  0.00  0.00    -0.086 A 
ATOM     11  C   UNL     1      46.897  11.507  16.377  0.00  0.00    +0.516 A 
ATOM     12  N   UNL     1      47.581  12.429  15.676  0.00  0.00    -0.490 N 
ATOM     13  C   UNL     1      48.443  12.001  14.570  0.00  0.00    +0.329 C 
ATOM     14  O   UNL     1      47.000  10.327  16.085  0.00  0.00    -0.533 OA
ATOM     15  C   UNL     1      47.484  13.739  15.970  0.00  0.00    +0.404 A 
ENDBRANCH   7   8
ENDBRANCH   6   7
ENDBRANCH   5   6
BRANCH  17  18
ATOM     18  O   UNL     1      47.777  17.652  20.469  0.00  0.00    -0.314 OA
BRANCH  18  19
ATOM     19  C   UNL     1      49.089  17.393  20.310  0.00  0.00    +0.532 C 
ATOM     25  O   UNL     1      49.870  17.625  21.213  0.00  0.00    -0.496 OA
BRANCH  19  20
ATOM     20  C   UNL     1      49.580  16.829  19.042  0.00  0.00    -0.230 A 
ATOM     21  C   UNL     1      50.026  15.450  18.795  0.00  0.00    -0.002 A 
ATOM     22  C   UNL     1      50.381  15.402  17.502  0.00  0.00    +0.177 A 
ATOM     23  O   UNL     1      50.193  16.611  16.950  0.00  0.00    -0.169 OA
ATOM     24  C   UNL     1      49.711  17.476  17.846  0.00  0.00    +0.278 A 
ENDBRANCH  19  20
ENDBRANCH  18  19
ENDBRANCH  17  18
BRANCH  28  29
ATOM     29  O   UNL     1      48.600  20.715  19.450  0.00  0.00    -0.347 OA
BRANCH  29  30
ATOM     30  C   UNL     1      49.879  20.756  19.871  0.00  0.00    +0.537 C 
ATOM     36  O   UNL     1      50.127  20.968  21.042  0.00  0.00    -0.496 OA
BRANCH  30  31
ATOM     31  C   UNL     1      50.977  20.541  18.913  0.00  0.00    -0.231 A 
ATOM     32  C   UNL     1      51.032  20.982  17.511  0.00  0.00    -0.000 A 
ATOM     33  C   UNL     1      52.217  20.563  17.040  0.00  0.00    +0.178 A 
ATOM     34  O   UNL     1      52.876  19.920  18.016  0.00  0.00    -0.170 OA
ATOM     35  C   UNL     1      52.158  19.899  19.143  0.00  0.00    +0.276 A 
ENDBRANCH  30  31
ENDBRANCH  29  30
ENDBRANCH  28  29
TORSDOF 11
ENDMDL
MODEL 2
REMARK VINA RESULT:      -6.6      2.416      7.049
REMARK  Name = ZINC95485998
REMARK  16 active torsions:
REMARK  status: ('A' for Active; 'I' for Inactive)
REMARK    1  A    between atoms: C1_1  and  C2_2
REMARK    2  A    between atoms: C2_2  and  C3_3
REMARK    3  A    between atoms: C5_7  and  O9_41
REMARK    4  A    between atoms: C6_9  and  O6_33
REMARK    5  A    between atoms: C7_11  and  C21_32
REMARK    6  A    between atoms: C8_12  and  O3_24
REMARK    7  A    between atoms: C11_16  and  C14_22
REMARK    8  A    between atoms: C11_16  and  C15_23
REMARK    9  A    between atoms: C13_18  and  O1_20
REMARK   10  A    between atoms: O3_24  and  C16_25
REMARK   11  A    between atoms: C16_25  and  C17_27
REMARK   12  A    between atoms: O6_33  and  C22_34
REMARK   13  A    between atoms: C22_34  and  C23_36
REMARK   14  A    between atoms: O9_41  and  C27_42
REMARK   15  A    between atoms: C27_42  and  C28_44
REMARK   16  A    between atoms: N1_49  and  C33_51
REMARK                            x       y       z     vdW  Elec       q    Type
REMARK                         _______ _______ _______ _____ _____    ______ ____
ROOT
ATOM      3  C   UNL     1      49.790  19.920  20.579  0.00  0.00    +0.189 C 
ATOM      4  C   UNL     1      49.109  20.585  19.357  0.00  0.00    -0.036 C 
ATOM      5  C   UNL     1      47.833  19.779  19.050  0.00  0.00    +0.186 C 
ATOM     17  C   UNL     1      48.134  18.287  19.191  0.00  0.00    +0.181 C 
ATOM     26  C   UNL     1      49.332  17.890  18.318  0.00  0.00    -0.051 C 
ATOM     27  C   UNL     1      48.967  18.026  16.839  0.00  0.00    +0.067 C 
ATOM     28  C   UNL     1      49.707  16.442  18.644  0.00  0.00    +0.212 C 
ATOM     37  C   UNL     1      50.965  16.041  17.876  0.00  0.00    +0.011 C 
ATOM     38  C   UNL     1      52.126  16.940  18.310  0.00  0.00    +0.045 C 
ATOM     39  C   UNL     1      51.788  18.391  17.963  0.00  0.00    -0.041 C 
ATOM     40  C   UNL     1      52.931  19.301  18.417  0.00  0.00    +0.055 C 
ATOM     41  C   UNL     1      51.613  18.522  16.449  0.00  0.00    +0.035 C 
ATOM     42  C   UNL     1      50.507  18.815  18.653  0.00  0.00    +0.146 C 
ATOM     43  C   UNL     1      50.124  20.268  18.219  0.00  0.00    +0.167 C 
ATOM     46  O   UNL     1      50.667  18.900  20.077  0.00  0.00    -0.332 OA
ENDROOT
BRANCH   3   2
ATOM      1  C   UNL     1      51.926  20.355  21.798  0.00  0.00    +0.014 C 
ATOM      2  C   UNL     1      50.594  20.963  21.358  0.00  0.00    +0.010 C 
ENDBRANCH   3   2
BRANCH  43  44
ATOM     44  O   UNL     1      51.237  21.164  18.247  0.00  0.00    -0.523 OA
ATOM     45  H   UNL     1      51.677  21.219  19.106  0.00  0.00    +0.374 HD
ENDBRANCH  43  44
BRANCH   5   6
ATOM      6  O   UNL     1      46.803  20.148  19.969  0.00  0.00    -0.333 OA
BRANCH   6   7
ATOM      7  C   UNL     1      45.675  20.669  19.447  0.00  0.00    +0.541 C 
ATOM     16  O   UNL     1      45.741  21.571  18.635  0.00  0.00    -0.511 OA
BRANCH   7   8
ATOM      8  C   UNL     1      44.361  20.144  19.858  0.00  0.00    -0.231 A 
ATOM      9  C   UNL     1      44.211  19.499  21.110  0.00  0.00    +0.163 A 
ATOM     10  C   UNL     1      42.987  19.024  21.464  0.00  0.00    -0.086 A 
ATOM     11  C   UNL     1      41.901  19.184  20.584  0.00  0.00    +0.516 A 
ATOM     12  N   UNL     1      42.065  19.801  19.400  0.00  0.00    -0.490 N 
ATOM     13  C   UNL     1      40.918  19.955  18.502  0.00  0.00    +0.329 C 
ATOM     14  O   UNL     1      40.800  18.761  20.897  0.00  0.00    -0.533 OA
ATOM     15  C   UNL     1      43.266  20.284  19.029  0.00  0.00    +0.404 A 
ENDBRANCH   7   8
ENDBRANCH   6   7
ENDBRANCH   5   6
BRANCH  17  18
ATOM     18  O   UNL     1      48.430  17.994  20.558  0.00  0.00    -0.314 OA
BRANCH  18  19
ATOM     19  C   UNL     1      47.430  17.489  21.307  0.00  0.00    +0.532 C 
ATOM     25  O   UNL     1      47.104  18.042  22.339  0.00  0.00    -0.496 OA
BRANCH  19  20
ATOM     20  C   UNL     1      46.731  16.267  20.874  0.00  0.00    -0.230 A 
ATOM     21  C   UNL     1      45.581  16.176  19.962  0.00  0.00    -0.002 A 
ATOM     22  C   UNL     1      45.290  14.869  19.866  0.00  0.00    +0.177 A 
ATOM     23  O   UNL     1      46.147  14.170  20.626  0.00  0.00    -0.169 OA
ATOM     24  C   UNL     1      47.019  14.981  21.232  0.00  0.00    +0.278 A 
ENDBRANCH  19  20
ENDBRANCH  18  19
ENDBRANCH  17  18
BRANCH  28  29
ATOM     29  O   UNL     1      48.630  15.579  18.271  0.00  0.00    -0.347 OA
BRANCH  29  30
ATOM     30  C   UNL     1      48.933  14.285  18.047  0.00  0.00    +0.537 C 
ATOM     36  O   UNL     1      49.378  13.600  18.948  0.00  0.00    -0.496 OA
BRANCH  30  31
ATOM     31  C   UNL     1      48.726  13.700  16.711  0.00  0.00    -0.231 A 
ATOM     32  C   UNL     1      49.760  13.282  15.753  0.00  0.00    -0.000 A 
ATOM     33  C   UNL     1      49.102  12.812  14.682  0.00  0.00    +0.178 A 
ATOM     34  O   UNL     1      47.781  12.905  14.901  0.00  0.00    -0.170 OA
ATOM     35  C   UNL     1      47.534  13.427  16.107  0.00  0.00    +0.276 A 
ENDBRANCH  30  31
ENDBRANCH  29  30
ENDBRANCH  28  29
TORSDOF 11
ENDMDL
MODEL 3
REMARK VINA RESULT:      -6.4      2.646      6.750
REMARK  Name = ZINC95485998
REMARK  16 active torsions:
REMARK  status: ('A' for Active; 'I' for Inactive)
REMARK    1  A    between atoms: C1_1  and  C2_2
REMARK    2  A    between atoms: C2_2  and  C3_3
REMARK    3  A    between atoms: C5_7  and  O9_41
REMARK    4  A    between atoms: C6_9  and  O6_33
REMARK    5  A    between atoms: C7_11  and  C21_32
REMARK    6  A    between atoms: C8_12  and  O3_24
REMARK    7  A    between atoms: C11_16  and  C14_22
REMARK    8  A    between atoms: C11_16  and  C15_23
REMARK    9  A    between atoms: C13_18  and  O1_20
REMARK   10  A    between atoms: O3_24  and  C16_25
REMARK   11  A    between atoms: C16_25  and  C17_27
REMARK   12  A    between atoms: O6_33  and  C22_34
REMARK   13  A    between atoms: C22_34  and  C23_36
REMARK   14  A    between atoms: O9_41  and  C27_42
REMARK   15  A    between atoms: C27_42  and  C28_44
REMARK   16  A    between atoms: N1_49  and  C33_51
REMARK                            x       y       z     vdW  Elec       q    Type
REMARK                         _______ _______ _______ _____ _____    ______ ____
ROOT
ATOM      3  C   UNL     1      49.310  19.526  20.759  0.00  0.00    +0.189 C 
ATOM      4  C   UNL     1      48.556  19.976  19.483  0.00  0.00    -0.036 C 
ATOM      5  C   UNL     1      47.739  18.769  18.985  0.00  0.00    +0.186 C 
ATOM     17  C   UNL     1      48.583  17.502  19.113  0.00  0.00    +0.181 C 
ATOM     26  C   UNL     1      49.927  17.670  18.389  0.00  0.00    -0.051 C 
ATOM     27  C   UNL     1      49.697  17.776  16.880  0.00  0.00    +0.067 C 
ATOM     28  C   UNL     1      50.802  16.455  18.711  0.00  0.00    +0.212 C 
ATOM     37  C   UNL     1      52.191  16.635  18.100  0.00  0.00    +0.011 C 
ATOM     38  C   UNL     1      52.854  17.871  18.712  0.00  0.00    +0.045 C 
ATOM     39  C   UNL     1      52.012  19.104  18.374  0.00  0.00    -0.041 C 
ATOM     40  C   UNL     1      52.653  20.343  19.003  0.00  0.00    +0.055 C 
ATOM     41  C   UNL     1      51.962  19.282  16.855  0.00  0.00    +0.035 C 
ATOM     42  C   UNL     1      50.603  18.944  18.906  0.00  0.00    +0.146 C 
ATOM     43  C   UNL     1      49.729  20.168  18.476  0.00  0.00    +0.167 C 
ATOM     46  O   UNL     1      50.564  18.967  20.341  0.00  0.00    -0.332 OA
ENDROOT
BRANCH   3   2
ATOM      1  C   UNL     1      48.249  21.510  21.844  0.00  0.00    +0.014 C 
ATOM      2  C   UNL     1      49.553  20.729  21.671  0.00  0.00    +0.010 C 
ENDBRANCH   3   2
BRANCH  43  44
ATOM     44  O   UNL     1      50.393  21.419  18.679  0.00  0.00    -0.523 OA
ATOM     45  H   UNL     1      49.954  22.170  18.257  0.00  0.00    +0.374 HD
ENDBRANCH  43  44
BRANCH   5   6
ATOM      6  O   UNL     1      46.555  18.637  19.774  0.00  0.00    -0.333 OA
BRANCH   6   7
ATOM      7  C   UNL     1      45.416  18.332  19.122  0.00  0.00    +0.541 C 
ATOM     16  O   UNL     1      45.463  17.856  18.005  0.00  0.00    -0.511 OA
BRANCH   7   8
ATOM      8  C   UNL     1      44.112  18.576  19.763  0.00  0.00    -0.231 A 
ATOM      9  C   UNL     1      43.799  17.960  21.000  0.00  0.00    +0.163 A 
ATOM     10  C   UNL     1      42.588  18.201  21.569  0.00  0.00    -0.086 A 
ATOM     11  C   UNL     1      41.676  19.055  20.921  0.00  0.00    +0.516 A 
ATOM     12  N   UNL     1      41.994  19.631  19.748  0.00  0.00    -0.490 N 
ATOM     13  C   UNL     1      41.027  20.516  19.093  0.00  0.00    +0.329 C 
ATOM     14  O   UNL     1      40.589  19.277  21.428  0.00  0.00    -0.533 OA
ATOM     15  C   UNL     1      43.189  19.411  19.167  0.00  0.00    +0.404 A 
ENDBRANCH   7   8
ENDBRANCH   6   7
ENDBRANCH   5   6
BRANCH  17  18
ATOM     18  O   UNL     1      48.824  17.233  20.495  0.00  0.00    -0.314 OA
BRANCH  18  19
ATOM     19  C   UNL     1      48.493  16.008  20.948  0.00  0.00    +0.532 C 
ATOM     25  O   UNL     1      49.266  15.391  21.654  0.00  0.00    -0.496 OA
BRANCH  19  20
ATOM     20  C   UNL     1      47.193  15.417  20.588  0.00  0.00    -0.230 A 
ATOM     21  C   UNL     1      46.824  14.794  19.308  0.00  0.00    -0.002 A 
ATOM     22  C   UNL     1      45.548  14.402  19.444  0.00  0.00    +0.177 A 
ATOM     23  O   UNL     1      45.116  14.727  20.672  0.00  0.00    -0.169 OA
ATOM     24  C   UNL     1      46.081  15.327  21.374  0.00  0.00    +0.278 A 
ENDBRANCH  19  20
ENDBRANCH  18  19
ENDBRANCH  17  18
BRANCH  28  29
ATOM     29  O   UNL     1      50.196  15.279  18.172  0.00  0.00    -0.347 OA
BRANCH  29  30
ATOM     30  C   UNL     1      50.855  14.116  18.347  0.00  0.00    +0.537 C 
ATOM     36  O   UNL     1      51.081  13.708  19.470  0.00  0.00    -0.496 OA
BRANCH  30  31
ATOM     31  C   UNL     1      51.301  13.339  17.178  0.00  0.00    -0.231 A 
ATOM     32  C   UNL     1      51.088  13.665  15.760  0.00  0.00    -0.000 A 
ATOM     33  C   UNL     1      51.667  12.676  15.063  0.00  0.00    +0.178 A 
ATOM     34  O   UNL     1      52.206  11.792  15.918  0.00  0.00    -0.170 OA
ATOM     35  C   UNL     1      52.004  12.170  17.184  0.00  0.00    +0.276 A 
ENDBRANCH  30  31
ENDBRANCH  29  30
ENDBRANCH  28  29
TORSDOF 11
ENDMDL
MODEL 4
REMARK VINA RESULT:      -6.4      2.290      3.226
REMARK  Name = ZINC95485998
REMARK  16 active torsions:
REMARK  status: ('A' for Active; 'I' for Inactive)
REMARK    1  A    between atoms: C1_1  and  C2_2
REMARK    2  A    between atoms: C2_2  and  C3_3
REMARK    3  A    between atoms: C5_7  and  O9_41
REMARK    4  A    between atoms: C6_9  and  O6_33
REMARK    5  A    between atoms: C7_11  and  C21_32
REMARK    6  A    between atoms: C8_12  and  O3_24
REMARK    7  A    between atoms: C11_16  and  C14_22
REMARK    8  A    between atoms: C11_16  and  C15_23
REMARK    9  A    between atoms: C13_18  and  O1_20
REMARK   10  A    between atoms: O3_24  and  C16_25
REMARK   11  A    between atoms: C16_25  and  C17_27
REMARK   12  A    between atoms: O6_33  and  C22_34
REMARK   13  A    between atoms: C22_34  and  C23_36
REMARK   14  A    between atoms: O9_41  and  C27_42
REMARK   15  A    between atoms: C27_42  and  C28_44
REMARK   16  A    between atoms: N1_49  and  C33_51
REMARK                            x       y       z     vdW  Elec       q    Type
REMARK                         _______ _______ _______ _____ _____    ______ ____
ROOT
ATOM      3  C   UNL     1      46.422  15.213  21.188  0.00  0.00    +0.189 C 
ATOM      4  C   UNL     1      45.393  15.175  20.031  0.00  0.00    -0.036 C 
ATOM      5  C   UNL     1      46.166  14.841  18.741  0.00  0.00    +0.186 C 
ATOM     17  C   UNL     1      47.482  15.617  18.729  0.00  0.00    +0.181 C 
ATOM     26  C   UNL     1      47.229  17.119  18.917  0.00  0.00    -0.051 C 
ATOM     27  C   UNL     1      46.491  17.680  17.700  0.00  0.00    +0.067 C 
ATOM     28  C   UNL     1      48.581  17.817  19.089  0.00  0.00    +0.212 C 
ATOM     37  C   UNL     1      48.369  19.300  19.390  0.00  0.00    +0.011 C 
ATOM     38  C   UNL     1      47.593  19.441  20.702  0.00  0.00    +0.045 C 
ATOM     39  C   UNL     1      46.223  18.778  20.542  0.00  0.00    -0.041 C 
ATOM     40  C   UNL     1      45.449  18.891  21.857  0.00  0.00    +0.055 C 
ATOM     41  C   UNL     1      45.442  19.491  19.436  0.00  0.00    +0.035 C 
ATOM     42  C   UNL     1      46.382  17.316  20.179  0.00  0.00    +0.146 C 
ATOM     43  C   UNL     1      44.978  16.673  19.929  0.00  0.00    +0.167 C 
ATOM     46  O   UNL     1      46.936  16.551  21.260  0.00  0.00    -0.332 OA
ENDROOT
BRANCH   3   2
ATOM      1  C   UNL     1      45.075  13.473  22.371  0.00  0.00    +0.014 C 
ATOM      2  C   UNL     1      45.737  14.845  22.505  0.00  0.00    +0.010 C 
ENDBRANCH   3   2
BRANCH  43  44
ATOM     44  O   UNL     1      44.025  17.022  20.936  0.00  0.00    -0.523 OA
ATOM     45  H   UNL     1      43.715  16.271  21.460  0.00  0.00    +0.374 HD
ENDBRANCH  43  44
BRANCH   5   6
ATOM      6  O   UNL     1      46.436  13.438  18.697  0.00  0.00    -0.333 OA
BRANCH   6   7
ATOM      7  C   UNL     1      46.303  12.827  17.504  0.00  0.00    +0.541 C 
ATOM     16  O   UNL     1      45.199  12.539  17.088  0.00  0.00    -0.511 OA
BRANCH   7   8
ATOM      8  C   UNL     1      47.498  12.509  16.702  0.00  0.00    -0.231 A 
ATOM      9  C   UNL     1      47.724  13.165  15.468  0.00  0.00    +0.163 A 
ATOM     10  C   UNL     1      48.834  12.852  14.748  0.00  0.00    -0.086 A 
ATOM     11  C   UNL     1      49.731  11.888  15.243  0.00  0.00    +0.516 A 
ATOM     12  N   UNL     1      49.498  11.277  16.418  0.00  0.00    -0.490 N 
ATOM     13  C   UNL     1      50.448  10.277  16.912  0.00  0.00    +0.329 C 
ATOM     14  O   UNL     1      50.729  11.604  14.602  0.00  0.00    -0.533 OA
ATOM     15  C   UNL     1      48.408  11.574  17.152  0.00  0.00    +0.404 A 
ENDBRANCH   7   8
ENDBRANCH   6   7
ENDBRANCH   5   6
BRANCH  17  18
ATOM     18  O   UNL     1      48.318  15.144  19.788  0.00  0.00    -0.314 OA
BRANCH  18  19
ATOM     19  C   UNL     1      49.295  14.278  19.456  0.00  0.00    +0.532 C 
ATOM     25  O   UNL     1      49.988  14.487  18.479  0.00  0.00    -0.496 OA
BRANCH  19  20
ATOM     20  C   UNL     1      49.526  13.078  20.277  0.00  0.00    -0.230 A 
ATOM     21  C   UNL     1      48.685  12.576  21.375  0.00  0.00    -0.002 A 
ATOM     22  C   UNL     1      49.288  11.464  21.822  0.00  0.00    +0.177 A 
ATOM     23  O   UNL     1      50.403  11.249  21.106  0.00  0.00    -0.169 OA
ATOM     24  C   UNL     1      50.562  12.195  20.175  0.00  0.00    +0.278 A 
ENDBRANCH  19  20
ENDBRANCH  18  19
ENDBRANCH  17  18
BRANCH  28  29
ATOM     29  O   UNL     1      49.340  17.682  17.886  0.00  0.00    -0.347 OA
BRANCH  29  30
ATOM     30  C   UNL     1      50.652  17.982  17.954  0.00  0.00    +0.537 C 
ATOM     36  O   UNL     1      51.374  17.383  18.727  0.00  0.00    -0.496 OA
BRANCH  30  31
ATOM     31  C   UNL     1      51.212  19.037  17.091  0.00  0.00    -0.231 A 
ATOM     32  C   UNL     1      51.250  20.482  17.363  0.00  0.00    -0.000 A 
ATOM     33  C   UNL     1      51.850  21.041  16.302  0.00  0.00    +0.178 A 
ATOM     34  O   UNL     1      52.177  20.080  15.424  0.00  0.00    -0.170 OA
ATOM     35  C   UNL     1      51.811  18.876  15.876  0.00  0.00    +0.276 A 
ENDBRANCH  30  31
ENDBRANCH  29  30
ENDBRANCH  28  29
TORSDOF 11
ENDMDL
MODEL 5
REMARK VINA RESULT:      -6.3      2.527      6.918
REMARK  Name = ZINC95485998
REMARK  16 active torsions:
REMARK  status: ('A' for Active; 'I' for Inactive)
REMARK    1  A    between atoms: C1_1  and  C2_2
REMARK    2  A    between atoms: C2_2  and  C3_3
REMARK    3  A    between atoms: C5_7  and  O9_41
REMARK    4  A    between atoms: C6_9  and  O6_33
REMARK    5  A    between atoms: C7_11  and  C21_32
REMARK    6  A    between atoms: C8_12  and  O3_24
REMARK    7  A    between atoms: C11_16  and  C14_22
REMARK    8  A    between atoms: C11_16  and  C15_23
REMARK    9  A    between atoms: C13_18  and  O1_20
REMARK   10  A    between atoms: O3_24  and  C16_25
REMARK   11  A    between atoms: C16_25  and  C17_27
REMARK   12  A    between atoms: O6_33  and  C22_34
REMARK   13  A    between atoms: C22_34  and  C23_36
REMARK   14  A    between atoms: O9_41  and  C27_42
REMARK   15  A    between atoms: C27_42  and  C28_44
REMARK   16  A    between atoms: N1_49  and  C33_51
REMARK                            x       y       z     vdW  Elec       q    Type
REMARK                         _______ _______ _______ _____ _____    ______ ____
ROOT
ATOM      3  C   UNL     1      48.375  18.239  20.657  0.00  0.00    +0.189 C 
ATOM      4  C   UNL     1      48.249  19.370  19.606  0.00  0.00    -0.036 C 
ATOM      5  C   UNL     1      47.696  18.736  18.316  0.00  0.00    +0.186 C 
ATOM     17  C   UNL     1      48.377  17.387  18.086  0.00  0.00    +0.181 C 
ATOM     26  C   UNL     1      49.904  17.544  18.084  0.00  0.00    -0.051 C 
ATOM     27  C   UNL     1      50.343  18.359  16.866  0.00  0.00    +0.067 C 
ATOM     28  C   UNL     1      50.530  16.147  18.044  0.00  0.00    +0.212 C 
ATOM     37  C   UNL     1      52.051  16.252  18.152  0.00  0.00    +0.011 C 
ATOM     38  C   UNL     1      52.416  16.898  19.491  0.00  0.00    +0.045 C 
ATOM     39  C   UNL     1      51.827  18.309  19.540  0.00  0.00    -0.041 C 
ATOM     40  C   UNL     1      52.165  18.953  20.886  0.00  0.00    +0.055 C 
ATOM     41  C   UNL     1      52.434  19.149  18.414  0.00  0.00    +0.035 C 
ATOM     42  C   UNL     1      50.322  18.260  19.372  0.00  0.00    +0.146 C 
ATOM     43  C   UNL     1      49.744  19.713  19.332  0.00  0.00    +0.167 C 
ATOM     46  O   UNL     1      49.675  17.651  20.500  0.00  0.00    -0.332 OA
ENDROOT
BRANCH   3   2
ATOM      1  C   UNL     1      47.200  19.947  22.050  0.00  0.00    +0.014 C 
ATOM      2  C   UNL     1      48.232  18.819  22.066  0.00  0.00    +0.010 C 
ENDBRANCH   3   2
BRANCH  43  44
ATOM     44  O   UNL     1      50.285  20.551  20.356  0.00  0.00    -0.523 OA
ATOM     45  H   UNL     1      50.866  20.090  20.975  0.00  0.00    +0.374 HD
ENDBRANCH  43  44
BRANCH   5   6
ATOM      6  O   UNL     1      46.286  18.545  18.446  0.00  0.00    -0.333 OA
BRANCH   6   7
ATOM      7  C   UNL     1      45.541  19.638  18.699  0.00  0.00    +0.541 C 
ATOM     16  O   UNL     1      45.948  20.738  18.382  0.00  0.00    -0.511 OA
BRANCH   7   8
ATOM      8  C   UNL     1      44.230  19.501  19.359  0.00  0.00    -0.231 A 
ATOM      9  C   UNL     1      44.088  18.669  20.496  0.00  0.00    +0.163 A 
ATOM     10  C   UNL     1      42.867  18.560  21.084  0.00  0.00    -0.086 A 
ATOM     11  C   UNL     1      41.777  19.276  20.555  0.00  0.00    +0.516 A 
ATOM     12  N   UNL     1      41.935  20.062  19.475  0.00  0.00    -0.490 N 
ATOM     13  C   UNL     1      40.784  20.797  18.944  0.00  0.00    +0.329 C 
ATOM     14  O   UNL     1      40.680  19.183  21.080  0.00  0.00    -0.533 OA
ATOM     15  C   UNL     1      43.134  20.189  18.878  0.00  0.00    +0.404 A 
ENDBRANCH   7   8
ENDBRANCH   6   7
ENDBRANCH   5   6
BRANCH  17  18
ATOM     18  O   UNL     1      47.998  16.485  19.128  0.00  0.00    -0.314 OA
BRANCH  18  19
ATOM     19  C   UNL     1      47.091  15.537  18.817  0.00  0.00    +0.532 C 
ATOM     25  O   UNL     1      46.764  15.365  17.658  0.00  0.00    -0.496 OA
BRANCH  19  20
ATOM     20  C   UNL     1      46.497  14.710  19.880  0.00  0.00    -0.230 A 
ATOM     21  C   UNL     1      46.908  14.643  21.290  0.00  0.00    -0.002 A 
ATOM     22  C   UNL     1      46.082  13.761  21.874  0.00  0.00    +0.177 A 
ATOM     23  O   UNL     1      45.221  13.292  20.957  0.00  0.00    -0.169 OA
ATOM     24  C   UNL     1      45.444  13.848  19.763  0.00  0.00    +0.278 A 
ENDBRANCH  19  20
ENDBRANCH  18  19
ENDBRANCH  17  18
BRANCH  28  29
ATOM     29  O   UNL     1      50.187  15.508  16.813  0.00  0.00    -0.347 OA
BRANCH  29  30
ATOM     30  C   UNL     1      50.418  14.183  16.725  0.00  0.00    +0.537 C 
ATOM     36  O   UNL     1      51.294  13.766  15.992  0.00  0.00    -0.496 OA
BRANCH  30  31
ATOM     31  C   UNL     1      49.611  13.240  17.518  0.00  0.00    -0.231 A 
ATOM     32  C   UNL     1      49.790  12.890  18.935  0.00  0.00    -0.000 A 
ATOM     33  C   UNL     1      48.828  11.998  19.219  0.00  0.00    +0.178 A 
ATOM     34  O   UNL     1      48.091  11.781  18.118  0.00  0.00    -0.170 OA
ATOM     35  C   UNL     1      48.537  12.515  17.093  0.00  0.00    +0.276 A 
ENDBRANCH  30  31
ENDBRANCH  29  30
ENDBRANCH  28  29
TORSDOF 11
ENDMDL
MODEL 6
REMARK VINA RESULT:      -6.1      1.587      2.087
REMARK  Name = ZINC95485998
REMARK  16 active torsions:
REMARK  status: ('A' for Active; 'I' for Inactive)
REMARK    1  A    between atoms: C1_1  and  C2_2
REMARK    2  A    between atoms: C2_2  and  C3_3
REMARK    3  A    between atoms: C5_7  and  O9_41
REMARK    4  A    between atoms: C6_9  and  O6_33
REMARK    5  A    between atoms: C7_11  and  C21_32
REMARK    6  A    between atoms: C8_12  and  O3_24
REMARK    7  A    between atoms: C11_16  and  C14_22
REMARK    8  A    between atoms: C11_16  and  C15_23
REMARK    9  A    between atoms: C13_18  and  O1_20
REMARK   10  A    between atoms: O3_24  and  C16_25
REMARK   11  A    between atoms: C16_25  and  C17_27
REMARK   12  A    between atoms: O6_33  and  C22_34
REMARK   13  A    between atoms: C22_34  and  C23_36
REMARK   14  A    between atoms: O9_41  and  C27_42
REMARK   15  A    between atoms: C27_42  and  C28_44
REMARK   16  A    between atoms: N1_49  and  C33_51
REMARK                            x       y       z     vdW  Elec       q    Type
REMARK                         _______ _______ _______ _____ _____    ______ ____
ROOT
ATOM      3  C   UNL     1      45.688  16.968  21.454  0.00  0.00    +0.189 C 
ATOM      4  C   UNL     1      45.109  16.579  20.071  0.00  0.00    -0.036 C 
ATOM      5  C   UNL     1      46.238  15.894  19.278  0.00  0.00    +0.186 C 
ATOM     17  C   UNL     1      47.545  16.652  19.508  0.00  0.00    +0.181 C 
ATOM     26  C   UNL     1      47.377  18.139  19.169  0.00  0.00    -0.051 C 
ATOM     27  C   UNL     1      47.143  18.309  17.668  0.00  0.00    +0.067 C 
ATOM     28  C   UNL     1      48.648  18.878  19.599  0.00  0.00    +0.212 C 
ATOM     37  C   UNL     1      48.479  20.380  19.381  0.00  0.00    +0.011 C 
ATOM     38  C   UNL     1      47.322  20.887  20.246  0.00  0.00    +0.045 C 
ATOM     39  C   UNL     1      46.033  20.186  19.812  0.00  0.00    -0.041 C 
ATOM     40  C   UNL     1      44.875  20.666  20.689  0.00  0.00    +0.055 C 
ATOM     41  C   UNL     1      45.735  20.533  18.352  0.00  0.00    +0.035 C 
ATOM     42  C   UNL     1      46.176  18.684  19.950  0.00  0.00    +0.146 C 
ATOM     43  C   UNL     1      44.887  17.976  19.418  0.00  0.00    +0.167 C 
ATOM     46  O   UNL     1      46.264  18.276  21.324  0.00  0.00    -0.332 OA
ENDROOT
BRANCH   3   2
ATOM      1  C   UNL     1      43.639  15.799  22.275  0.00  0.00    +0.014 C 
ATOM      2  C   UNL     1      44.571  16.991  22.499  0.00  0.00    +0.010 C 
ENDBRANCH   3   2
BRANCH  43  44
ATOM     44  O   UNL     1      43.685  18.589  19.891  0.00  0.00    -0.523 OA
ATOM     45  H   UNL     1      43.468  19.421  19.449  0.00  0.00    +0.374 HD
ENDBRANCH  43  44
BRANCH   5   6
ATOM      6  O   UNL     1      46.383  14.544  19.724  0.00  0.00    -0.333 OA
BRANCH   6   7
ATOM      7  C   UNL     1      45.715  13.598  19.036  0.00  0.00    +0.541 C 
ATOM     16  O   UNL     1      44.610  13.247  19.399  0.00  0.00    -0.511 OA
BRANCH   7   8
ATOM      8  C   UNL     1      46.324  12.988  17.840  0.00  0.00    -0.231 A 
ATOM      9  C   UNL     1      45.656  11.946  17.152  0.00  0.00    +0.163 A 
ATOM     10  C   UNL     1      46.241  11.402  16.052  0.00  0.00    -0.086 A 
ATOM     11  C   UNL     1      47.492  11.884  15.622  0.00  0.00    +0.516 A 
ATOM     12  N   UNL     1      48.108  12.875  16.290  0.00  0.00    -0.490 N 
ATOM     13  C   UNL     1      49.410  13.359  15.822  0.00  0.00    +0.329 C 
ATOM     14  O   UNL     1      48.020  11.400  14.635  0.00  0.00    -0.533 OA
ATOM     15  C   UNL     1      47.547  13.433  17.379  0.00  0.00    +0.404 A 
ENDBRANCH   7   8
ENDBRANCH   6   7
ENDBRANCH   5   6
BRANCH  17  18
ATOM     18  O   UNL     1      47.931  16.522  20.878  0.00  0.00    -0.314 OA
BRANCH  18  19
ATOM     19  C   UNL     1      49.190  16.110  21.123  0.00  0.00    +0.532 C 
ATOM     25  O   UNL     1      49.863  16.675  21.963  0.00  0.00    -0.496 OA
BRANCH  19  20
ATOM     20  C   UNL     1      49.752  14.974  20.374  0.00  0.00    -0.230 A 
ATOM     21  C   UNL     1      49.553  13.542  20.646  0.00  0.00    -0.002 A 
ATOM     22  C   UNL     1      50.254  12.887  19.708  0.00  0.00    +0.177 A 
ATOM     23  O   UNL     1      50.853  13.779  18.903  0.00  0.00    -0.169 OA
ATOM     24  C   UNL     1      50.563  15.029  19.277  0.00  0.00    +0.278 A 
ENDBRANCH  19  20
ENDBRANCH  18  19
ENDBRANCH  17  18
BRANCH  28  29
ATOM     29  O   UNL     1      49.753  18.409  18.823  0.00  0.00    -0.347 OA
BRANCH  29  30
ATOM     30  C   UNL     1      50.885  19.138  18.867  0.00  0.00    +0.537 C 
ATOM     36  O   UNL     1      51.453  19.317  19.928  0.00  0.00    -0.496 OA
BRANCH  30  31
ATOM     31  C   UNL     1      51.435  19.720  17.631  0.00  0.00    -0.231 A 
ATOM     32  C   UNL     1      51.824  19.001  16.408  0.00  0.00    -0.000 A 
ATOM     33  C   UNL     1      52.268  19.938  15.556  0.00  0.00    +0.178 A 
ATOM     34  O   UNL     1      52.183  21.142  16.143  0.00  0.00    -0.170 OA
ATOM     35  C   UNL     1      51.684  21.037  17.379  0.00  0.00    +0.276 A 
ENDBRANCH  30  31
ENDBRANCH  29  30
ENDBRANCH  28  29
TORSDOF 11
ENDMDL
MODEL 7
REMARK VINA RESULT:      -6.0      2.322      3.617
REMARK  Name = ZINC95485998
REMARK  16 active torsions:
REMARK  status: ('A' for Active; 'I' for Inactive)
REMARK    1  A    between atoms: C1_1  and  C2_2
REMARK    2  A    between atoms: C2_2  and  C3_3
REMARK    3  A    between atoms: C5_7  and  O9_41
REMARK    4  A    between atoms: C6_9  and  O6_33
REMARK    5  A    between atoms: C7_11  and  C21_32
REMARK    6  A    between atoms: C8_12  and  O3_24
REMARK    7  A    between atoms: C11_16  and  C14_22
REMARK    8  A    between atoms: C11_16  and  C15_23
REMARK    9  A    between atoms: C13_18  and  O1_20
REMARK   10  A    between atoms: O3_24  and  C16_25
REMARK   11  A    between atoms: C16_25  and  C17_27
REMARK   12  A    between atoms: O6_33  and  C22_34
REMARK   13  A    between atoms: C22_34  and  C23_36
REMARK   14  A    between atoms: O9_41  and  C27_42
REMARK   15  A    between atoms: C27_42  and  C28_44
REMARK   16  A    between atoms: N1_49  and  C33_51
REMARK                            x       y       z     vdW  Elec       q    Type
REMARK                         _______ _______ _______ _____ _____    ______ ____
ROOT
ATOM      3  C   UNL     1      47.121  14.720  20.876  0.00  0.00    +0.189 C 
ATOM      4  C   UNL     1      46.562  14.390  19.469  0.00  0.00    -0.036 C 
ATOM      5  C   UNL     1      47.755  13.975  18.588  0.00  0.00    +0.186 C 
ATOM     17  C   UNL     1      48.937  14.900  18.875  0.00  0.00    +0.181 C 
ATOM     26  C   UNL     1      48.532  16.370  18.701  0.00  0.00    -0.051 C 
ATOM     27  C   UNL     1      48.224  16.656  17.230  0.00  0.00    +0.067 C 
ATOM     28  C   UNL     1      49.689  17.249  19.185  0.00  0.00    +0.212 C 
ATOM     37  C   UNL     1      49.284  18.721  19.133  0.00  0.00    +0.011 C 
ATOM     38  C   UNL     1      48.093  18.949  20.067  0.00  0.00    +0.045 C 
ATOM     39  C   UNL     1      46.913  18.104  19.583  0.00  0.00    -0.041 C 
ATOM     40  C   UNL     1      45.725  18.305  20.526  0.00  0.00    +0.055 C 
ATOM     41  C   UNL     1      46.516  18.550  18.174  0.00  0.00    +0.035 C 
ATOM     42  C   UNL     1      47.289  16.637  19.557  0.00  0.00    +0.146 C 
ATOM     43  C   UNL     1      46.106  15.795  18.974  0.00  0.00    +0.167 C 
ATOM     46  O   UNL     1      47.484  16.108  20.877  0.00  0.00    -0.332 OA
ENDROOT
BRANCH   3   2
ATOM      1  C   UNL     1      45.245  13.216  21.554  0.00  0.00    +0.014 C 
ATOM      2  C   UNL     1      46.049  14.460  21.936  0.00  0.00    +0.010 C 
ENDBRANCH   3   2
BRANCH  43  44
ATOM     44  O   UNL     1      44.841  16.161  19.531  0.00  0.00    -0.523 OA
ATOM     45  H   UNL     1      44.101  16.075  18.915  0.00  0.00    +0.374 HD
ENDBRANCH  43  44
BRANCH   5   6
ATOM      6  O   UNL     1      48.119  12.626  18.884  0.00  0.00    -0.333 OA
BRANCH   6   7
ATOM      7  C   UNL     1      48.005  11.728  17.886  0.00  0.00    +0.541 C 
ATOM     16  O   UNL     1      47.542  10.627  18.108  0.00  0.00    -0.511 OA
BRANCH   7   8
ATOM      8  C   UNL     1      48.439  12.082  16.523  0.00  0.00    -0.231 A 
ATOM      9  C   UNL     1      47.487  12.210  15.482  0.00  0.00    +0.163 A 
ATOM     10  C   UNL     1      47.915  12.537  14.233  0.00  0.00    -0.086 A 
ATOM     11  C   UNL     1      49.289  12.741  14.004  0.00  0.00    +0.516 A 
ATOM     12  N   UNL     1      50.176  12.616  15.007  0.00  0.00    -0.490 N 
ATOM     13  C   UNL     1      51.600  12.835  14.742  0.00  0.00    +0.329 C 
ATOM     14  O   UNL     1      49.678  13.036  12.886  0.00  0.00    -0.533 OA
ATOM     15  C   UNL     1      49.775  12.298  16.253  0.00  0.00    +0.404 A 
ENDBRANCH   7   8
ENDBRANCH   6   7
ENDBRANCH   5   6
BRANCH  17  18
ATOM     18  O   UNL     1      49.385  14.690  20.216  0.00  0.00    -0.314 OA
BRANCH  18  19
ATOM     19  C   UNL     1      50.706  14.498  20.398  0.00  0.00    +0.532 C 
ATOM     25  O   UNL     1      51.311  15.167  21.213  0.00  0.00    -0.496 OA
BRANCH  19  20
ATOM     20  C   UNL     1      51.416  13.477  19.611  0.00  0.00    -0.230 A 
ATOM     21  C   UNL     1      51.321  12.017  19.755  0.00  0.00    -0.002 A 
ATOM     22  C   UNL     1      52.143  11.500  18.828  0.00  0.00    +0.177 A 
ATOM     23  O   UNL     1      52.721  12.501  18.146  0.00  0.00    -0.169 OA
ATOM     24  C   UNL     1      52.299  13.688  18.590  0.00  0.00    +0.278 A 
ENDBRANCH  19  20
ENDBRANCH  18  19
ENDBRANCH  17  18
BRANCH  28  29
ATOM     29  O   UNL     1      50.825  17.040  18.344  0.00  0.00    -0.347 OA
BRANCH  29  30
ATOM     30  C   UNL     1      51.828  17.936  18.438  0.00  0.00    +0.537 C 
ATOM     36  O   UNL     1      52.626  17.862  19.352  0.00  0.00    -0.496 OA
BRANCH  30  31
ATOM     31  C   UNL     1      51.957  19.005  17.432  0.00  0.00    -0.231 A 
ATOM     32  C   UNL     1      51.731  18.894  15.983  0.00  0.00    -0.000 A 
ATOM     33  C   UNL     1      51.966  20.115  15.479  0.00  0.00    +0.178 A 
ATOM     34  O   UNL     1      52.308  20.945  16.477  0.00  0.00    -0.170 OA
ATOM     35  C   UNL     1      52.304  20.306  17.652  0.00  0.00    +0.276 A 
ENDBRANCH  30  31
ENDBRANCH  29  30
ENDBRANCH  28  29
TORSDOF 11
ENDMDL
MODEL 8
REMARK VINA RESULT:      -6.0      2.672      6.700
REMARK  Name = ZINC95485998
REMARK  16 active torsions:
REMARK  status: ('A' for Active; 'I' for Inactive)
REMARK    1  A    between atoms: C1_1  and  C2_2
REMARK    2  A    between atoms: C2_2  and  C3_3
REMARK    3  A    between atoms: C5_7  and  O9_41
REMARK    4  A    between atoms: C6_9  and  O6_33
REMARK    5  A    between atoms: C7_11  and  C21_32
REMARK    6  A    between atoms: C8_12  and  O3_24
REMARK    7  A    between atoms: C11_16  and  C14_22
REMARK    8  A    between atoms: C11_16  and  C15_23
REMARK    9  A    between atoms: C13_18  and  O1_20
REMARK   10  A    between atoms: O3_24  and  C16_25
REMARK   11  A    between atoms: C16_25  and  C17_27
REMARK   12  A    between atoms: O6_33  and  C22_34
REMARK   13  A    between atoms: C22_34  and  C23_36
REMARK   14  A    between atoms: O9_41  and  C27_42
REMARK   15  A    between atoms: C27_42  and  C28_44
REMARK   16  A    between atoms: N1_49  and  C33_51
REMARK                            x       y       z     vdW  Elec       q    Type
REMARK                         _______ _______ _______ _____ _____    ______ ____
ROOT
ATOM      3  C   UNL     1      49.363  14.950  21.697  0.00  0.00    +0.189 C 
ATOM      4  C   UNL     1      49.287  14.490  20.220  0.00  0.00    -0.036 C 
ATOM      5  C   UNL     1      49.081  15.750  19.358  0.00  0.00    +0.186 C 
ATOM     17  C   UNL     1      48.079  16.674  20.049  0.00  0.00    +0.181 C 
ATOM     26  C   UNL     1      46.775  15.926  20.358  0.00  0.00    -0.051 C 
ATOM     27  C   UNL     1      46.061  15.561  19.055  0.00  0.00    +0.067 C 
ATOM     28  C   UNL     1      45.890  16.836  21.215  0.00  0.00    +0.212 C 
ATOM     37  C   UNL     1      44.626  16.088  21.639  0.00  0.00    +0.011 C 
ATOM     38  C   UNL     1      45.020  14.876  22.486  0.00  0.00    +0.045 C 
ATOM     39  C   UNL     1      45.879  13.935  21.639  0.00  0.00    -0.041 C 
ATOM     40  C   UNL     1      46.300  12.732  22.485  0.00  0.00    +0.055 C 
ATOM     41  C   UNL     1      45.062  13.445  20.441  0.00  0.00    +0.035 C 
ATOM     42  C   UNL     1      47.116  14.653  21.141  0.00  0.00    +0.146 C 
ATOM     43  C   UNL     1      47.938  13.710  20.202  0.00  0.00    +0.167 C 
ATOM     46  O   UNL     1      48.022  14.968  22.209  0.00  0.00    -0.332 OA
ENDROOT
BRANCH   3   2
ATOM      1  C   UNL     1      51.410  13.520  21.661  0.00  0.00    +0.014 C 
ATOM      2  C   UNL     1      50.216  13.970  22.504  0.00  0.00    +0.010 C 
ENDBRANCH   3   2
BRANCH  43  44
ATOM     44  O   UNL     1      48.089  12.393  20.738  0.00  0.00    -0.523 OA
ATOM     45  H   UNL     1      47.282  12.034  21.131  0.00  0.00    +0.374 HD
ENDBRANCH  43  44
BRANCH   5   6
ATOM      6  O   UNL     1      50.328  16.429  19.201  0.00  0.00    -0.333 OA
BRANCH   6   7
ATOM      7  C   UNL     1      50.817  16.529  17.949  0.00  0.00    +0.541 C 
ATOM     16  O   UNL     1      50.951  15.532  17.267  0.00  0.00    -0.511 OA
BRANCH   7   8
ATOM      8  C   UNL     1      51.187  17.848  17.405  0.00  0.00    -0.231 A 
ATOM      9  C   UNL     1      51.536  17.983  16.040  0.00  0.00    +0.163 A 
ATOM     10  C   UNL     1      51.874  19.212  15.565  0.00  0.00    -0.086 A 
ATOM     11  C   UNL     1      51.867  20.317  16.436  0.00  0.00    +0.516 A 
ATOM     12  N   UNL     1      51.530  20.166  17.729  0.00  0.00    -0.490 N 
ATOM     13  C   UNL     1      51.531  21.333  18.615  0.00  0.00    +0.329 C 
ATOM     14  O   UNL     1      52.168  21.422  16.014  0.00  0.00    -0.533 OA
ATOM     15  C   UNL     1      51.188  18.961  18.222  0.00  0.00    +0.404 A 
ENDBRANCH   7   8
ENDBRANCH   6   7
ENDBRANCH   5   6
BRANCH  17  18
ATOM     18  O   UNL     1      48.646  17.156  21.270  0.00  0.00    -0.314 OA
BRANCH  18  19
ATOM     19  C   UNL     1      49.230  18.369  21.236  0.00  0.00    +0.532 C 
ATOM     25  O   UNL     1      50.403  18.488  21.531  0.00  0.00    -0.496 OA
BRANCH  19  20
ATOM     20  C   UNL     1      48.447  19.552  20.842  0.00  0.00    -0.230 A 
ATOM     21  C   UNL     1      48.031  19.932  19.484  0.00  0.00    -0.002 A 
ATOM     22  C   UNL     1      47.343  21.076  19.615  0.00  0.00    +0.177 A 
ATOM     23  O   UNL     1      47.304  21.420  20.912  0.00  0.00    -0.169 OA
ATOM     24  C   UNL     1      47.950  20.524  21.663  0.00  0.00    +0.278 A 
ENDBRANCH  19  20
ENDBRANCH  18  19
ENDBRANCH  17  18
BRANCH  28  29
ATOM     29  O   UNL     1      45.524  17.991  20.458  0.00  0.00    -0.347 OA
BRANCH  29  30
ATOM     30  C   UNL     1      44.658  18.849  21.031  0.00  0.00    +0.537 C 
ATOM     36  O   UNL     1      44.855  19.248  22.163  0.00  0.00    -0.496 OA
BRANCH  30  31
ATOM     31  C   UNL     1      43.472  19.306  20.287  0.00  0.00    -0.231 A 
ATOM     32  C   UNL     1      43.451  20.078  19.035  0.00  0.00    -0.000 A 
ATOM     33  C   UNL     1      42.156  20.260  18.735  0.00  0.00    +0.178 A 
ATOM     34  O   UNL     1      41.400  19.676  19.679  0.00  0.00    -0.170 OA
ATOM     35  C   UNL     1      42.164  19.097  20.611  0.00  0.00    +0.276 A 
ENDBRANCH  30  31
ENDBRANCH  29  30
ENDBRANCH  28  29
TORSDOF 11
ENDMDL
MODEL 9
REMARK VINA RESULT:      -6.0      3.140      7.043
REMARK  Name = ZINC95485998
REMARK  16 active torsions:
REMARK  status: ('A' for Active; 'I' for Inactive)
REMARK    1  A    between atoms: C1_1  and  C2_2
REMARK    2  A    between atoms: C2_2  and  C3_3
REMARK    3  A    between atoms: C5_7  and  O9_41
REMARK    4  A    between atoms: C6_9  and  O6_33
REMARK    5  A    between atoms: C7_11  and  C21_32
REMARK    6  A    between atoms: C8_12  and  O3_24
REMARK    7  A    between atoms: C11_16  and  C14_22
REMARK    8  A    between atoms: C11_16  and  C15_23
REMARK    9  A    between atoms: C13_18  and  O1_20
REMARK   10  A    between atoms: O3_24  and  C16_25
REMARK   11  A    between atoms: C16_25  and  C17_27
REMARK   12  A    between atoms: O6_33  and  C22_34
REMARK   13  A    between atoms: C22_34  and  C23_36
REMARK   14  A    between atoms: O9_41  and  C27_42
REMARK   15  A    between atoms: C27_42  and  C28_44
REMARK   16  A    between atoms: N1_49  and  C33_51
REMARK                            x       y       z     vdW  Elec       q    Type
REMARK                         _______ _______ _______ _____ _____    ______ ____
ROOT
ATOM      3  C   UNL     1      48.157  16.755  17.935  0.00  0.00    +0.189 C 
ATOM      4  C   UNL     1      47.565  16.432  19.330  0.00  0.00    -0.036 C 
ATOM      5  C   UNL     1      48.562  16.954  20.382  0.00  0.00    +0.186 C 
ATOM     17  C   UNL     1      49.985  16.632  19.929  0.00  0.00    +0.181 C 
ATOM     26  C   UNL     1      50.136  15.133  19.637  0.00  0.00    -0.051 C 
ATOM     27  C   UNL     1      50.001  14.332  20.933  0.00  0.00    +0.067 C 
ATOM     28  C   UNL     1      51.513  14.901  19.008  0.00  0.00    +0.212 C 
ATOM     37  C   UNL     1      51.662  13.437  18.598  0.00  0.00    +0.011 C 
ATOM     38  C   UNL     1      50.599  13.097  17.550  0.00  0.00    +0.045 C 
ATOM     39  C   UNL     1      49.213  13.290  18.167  0.00  0.00    -0.041 C 
ATOM     40  C   UNL     1      48.143  12.979  17.119  0.00  0.00    +0.055 C 
ATOM     41  C   UNL     1      49.049  12.335  19.351  0.00  0.00    +0.035 C 
ATOM     42  C   UNL     1      49.041  14.716  18.648  0.00  0.00    +0.146 C 
ATOM     43  C   UNL     1      47.657  14.877  19.358  0.00  0.00    +0.167 C 
ATOM     46  O   UNL     1      48.991  15.649  17.558  0.00  0.00    -0.332 OA
ENDROOT
BRANCH   3   2
ATOM      1  C   UNL     1      45.856  17.659  17.575  0.00  0.00    +0.014 C 
ATOM      2  C   UNL     1      47.028  16.927  16.918  0.00  0.00    +0.010 C 
ENDBRANCH   3   2
BRANCH  43  44
ATOM     44  O   UNL     1      46.587  14.276  18.624  0.00  0.00    -0.523 OA
ATOM     45  H   UNL     1      46.824  14.020  17.723  0.00  0.00    +0.374 HD
ENDBRANCH  43  44
BRANCH   5   6
ATOM      6  O   UNL     1      48.411  18.368  20.520  0.00  0.00    -0.333 OA
BRANCH   6   7
ATOM      7  C   UNL     1      47.403  18.802  21.301  0.00  0.00    +0.541 C 
ATOM     16  O   UNL     1      47.446  18.628  22.503  0.00  0.00    -0.511 OA
BRANCH   7   8
ATOM      8  C   UNL     1      46.248  19.491  20.698  0.00  0.00    -0.231 A 
ATOM      9  C   UNL     1      46.449  20.552  19.782  0.00  0.00    +0.163 A 
ATOM     10  C   UNL     1      45.365  21.170  19.242  0.00  0.00    -0.086 A 
ATOM     11  C   UNL     1      44.073  20.744  19.602  0.00  0.00    +0.516 A 
ATOM     12  N   UNL     1      43.905  19.733  20.473  0.00  0.00    -0.490 N 
ATOM     13  C   UNL     1      42.549  19.307  20.831  0.00  0.00    +0.329 C 
ATOM     14  O   UNL     1      43.098  21.294  19.119  0.00  0.00    -0.533 OA
ATOM     15  C   UNL     1      44.963  19.102  21.017  0.00  0.00    +0.404 A 
ENDBRANCH   7   8
ENDBRANCH   6   7
ENDBRANCH   5   6
BRANCH  17  18
ATOM     18  O   UNL     1      50.283  17.375  18.745  0.00  0.00    -0.314 OA
BRANCH  18  19
ATOM     19  C   UNL     1      51.104  18.434  18.878  0.00  0.00    +0.532 C 
ATOM     25  O   UNL     1      51.626  18.670  19.951  0.00  0.00    -0.496 OA
BRANCH  19  20
ATOM     20  C   UNL     1      51.371  19.308  17.723  0.00  0.00    -0.230 A 
ATOM     21  C   UNL     1      51.155  20.760  17.638  0.00  0.00    -0.002 A 
ATOM     22  C   UNL     1      51.539  21.118  16.403  0.00  0.00    +0.177 A 
ATOM     23  O   UNL     1      51.961  20.030  15.740  0.00  0.00    -0.169 OA
ATOM     24  C   UNL     1      51.876  18.940  16.509  0.00  0.00    +0.278 A 
ENDBRANCH  19  20
ENDBRANCH  18  19
ENDBRANCH  17  18
BRANCH  28  29
ATOM     29  O   UNL     1      52.529  15.232  19.957  0.00  0.00    -0.347 OA
BRANCH  29  30
ATOM     30  C   UNL     1      53.722  15.620  19.465  0.00  0.00    +0.537 C 
ATOM     36  O   UNL     1      53.796  16.601  18.751  0.00  0.00    -0.496 OA
BRANCH  30  31
ATOM     31  C   UNL     1      54.938  14.855  19.794  0.00  0.00    -0.231 A 
ATOM     32  C   UNL     1      55.023  13.430  20.148  0.00  0.00    -0.000 A 
ATOM     33  C   UNL     1      56.324  13.181  20.362  0.00  0.00    +0.178 A 
ATOM     34  O   UNL     1      57.025  14.309  20.171  0.00  0.00    -0.170 OA
ATOM     35  C   UNL     1      56.220  15.319  19.826  0.00  0.00    +0.276 A 
ENDBRANCH  30  31
ENDBRANCH  29  30
ENDBRANCH  28  29
TORSDOF 11
ENDMDL
