MODEL 1
REMARK VINA RESULT:      -6.2      0.000      0.000
REMARK  Name = ZINC15217320
REMARK  11 active torsions:
REMARK  status: ('A' for Active; 'I' for Inactive)
REMARK    1  A    between atoms: C1_1  and  C2_2
REMARK    2  A    between atoms: C6_6  and  O1_8
REMARK    3  A    between atoms: C14_16  and  O3_17
REMARK    4  A    between atoms: C15_18  and  C16_19
REMARK    5  A    between atoms: C15_18  and  O8_32
REMARK    6  A    between atoms: C17_20  and  O7_31
REMARK    7  A    between atoms: C19_22  and  O6_29
REMARK    8  A    between atoms: C20_23  and  C22_26
REMARK    9  A    between atoms: C21_24  and  O4_25
REMARK   10  A    between atoms: C22_26  and  C23_28
REMARK   11  A    between atoms: O6_29  and  C24_30
REMARK                            x       y       z     vdW  Elec       q    Type
REMARK                         _______ _______ _______ _____ _____    ______ ____
ROOT
ATOM      1  C   UNL     1      44.666  21.334  19.134  0.00  0.00    +0.103 C 
ATOM      2  C   UNL     1      44.759  19.859  19.427  0.00  0.00    -0.045 A 
ATOM      3  C   UNL     1      45.573  19.056  18.648  0.00  0.00    +0.043 A 
ATOM      4  C   UNL     1      45.674  17.699  18.899  0.00  0.00    -0.011 A 
ATOM      5  C   UNL     1      44.933  17.149  19.946  0.00  0.00    -0.179 A 
ATOM      6  C   UNL     1      45.018  15.699  20.217  0.00  0.00    +0.447 C 
ATOM      7  C   UNL     1      45.558  14.831  19.149  0.00  0.00    -0.149 A 
ATOM      8  C   UNL     1      46.293  15.397  18.108  0.00  0.00    -0.052 A 
ATOM      9  C   UNL     1      46.780  14.574  17.109  0.00  0.00    -0.010 A 
ATOM     10  C   UNL     1      46.547  13.210  17.142  0.00  0.00    +0.063 A 
ATOM     11  C   UNL     1      45.825  12.645  18.173  0.00  0.00    -0.010 A 
ATOM     12  C   UNL     1      45.325  13.451  19.186  0.00  0.00    +0.160 A 
ATOM     15  O   UNL     1      44.656  15.236  21.281  0.00  0.00    -0.415 OA
ATOM     16  C   UNL     1      44.111  17.962  20.737  0.00  0.00    +0.163 A 
ATOM     19  C   UNL     1      46.575  16.867  18.039  0.00  0.00    +0.286 C 
ATOM     37  C   UNL     1      44.030  19.321  20.469  0.00  0.00    -0.014 A 
ENDROOT
BRANCH  19  22
ATOM     22  C   UNL     1      48.001  17.103  18.467  0.00  0.00    -0.216 A 
ATOM     23  C   UNL     1      48.335  17.060  19.816  0.00  0.00    +0.202 A 
ATOM     26  C   UNL     1      49.646  17.272  20.223  0.00  0.00    -0.099 A 
ATOM     27  C   UNL     1      50.630  17.538  19.290  0.00  0.00    +0.202 A 
ATOM     30  C   UNL     1      50.302  17.583  17.921  0.00  0.00    -0.229 A 
ATOM     34  C   UNL     1      48.972  17.362  17.518  0.00  0.00    +0.218 A 
BRANCH  30  31
ATOM     31  C   UNL     1      51.336  17.858  16.927  0.00  0.00    +0.426 C 
ATOM     32  C   UNL     1      51.791  19.274  16.684  0.00  0.00    +0.080 C 
ATOM     33  O   UNL     1      51.829  16.946  16.296  0.00  0.00    -0.446 OA
ENDBRANCH  30  31
BRANCH  23  24
ATOM     24  O   UNL     1      47.375  16.805  20.740  0.00  0.00    -0.482 OA
ATOM     25  H   UNL     1      47.720  16.572  21.612  0.00  0.00    +0.395 HD
ENDBRANCH  23  24
BRANCH  27  28
ATOM     28  O   UNL     1      51.908  17.749  19.690  0.00  0.00    -0.306 OA
ATOM     29  C   UNL     1      52.159  18.921  20.469  0.00  0.00    +0.258 C 
ENDBRANCH  27  28
BRANCH  34  35
ATOM     35  O   UNL     1      48.643  17.403  16.203  0.00  0.00    -0.470 OA
ATOM     36  H   UNL     1      48.277  16.574  15.864  0.00  0.00    +0.399 HD
ENDBRANCH  34  35
ENDBRANCH  19  22
BRANCH  12  13
ATOM     13  O   UNL     1      44.614  12.905  20.204  0.00  0.00    -0.477 OA
ATOM     14  H   UNL     1      44.361  13.537  20.892  0.00  0.00    +0.397 HD
ENDBRANCH  12  13
BRANCH  16  17
ATOM     17  O   UNL     1      43.399  17.424  21.758  0.00  0.00    -0.483 OA
ATOM     18  H   UNL     1      43.945  17.042  22.459  0.00  0.00    +0.399 HD
ENDBRANCH  16  17
BRANCH  19  20
ATOM     20  O   UNL     1      46.431  17.296  16.683  0.00  0.00    -0.523 OA
ATOM     21  H   UNL     1      46.021  18.166  16.589  0.00  0.00    +0.374 HD
ENDBRANCH  19  20
TORSDOF 8
ENDMDL
MODEL 2
REMARK VINA RESULT:      -6.1      2.183      7.396
REMARK  Name = ZINC15217320
REMARK  11 active torsions:
REMARK  status: ('A' for Active; 'I' for Inactive)
REMARK    1  A    between atoms: C1_1  and  C2_2
REMARK    2  A    between atoms: C6_6  and  O1_8
REMARK    3  A    between atoms: C14_16  and  O3_17
REMARK    4  A    between atoms: C15_18  and  C16_19
REMARK    5  A    between atoms: C15_18  and  O8_32
REMARK    6  A    between atoms: C17_20  and  O7_31
REMARK    7  A    between atoms: C19_22  and  O6_29
REMARK    8  A    between atoms: C20_23  and  C22_26
REMARK    9  A    between atoms: C21_24  and  O4_25
REMARK   10  A    between atoms: C22_26  and  C23_28
REMARK   11  A    between atoms: O6_29  and  C24_30
REMARK                            x       y       z     vdW  Elec       q    Type
REMARK                         _______ _______ _______ _____ _____    ______ ____
ROOT
ATOM      1  C   UNL     1      53.610  13.688  20.938  0.00  0.00    +0.103 C 
ATOM      2  C   UNL     1      53.200  15.103  20.624  0.00  0.00    -0.045 A 
ATOM      3  C   UNL     1      52.671  15.403  19.381  0.00  0.00    +0.043 A 
ATOM      4  C   UNL     1      52.287  16.696  19.071  0.00  0.00    -0.011 A 
ATOM      5  C   UNL     1      52.451  17.697  20.029  0.00  0.00    -0.179 A 
ATOM      6  C   UNL     1      52.060  19.085  19.707  0.00  0.00    +0.447 C 
ATOM      7  C   UNL     1      51.887  19.438  18.283  0.00  0.00    -0.149 A 
ATOM      8  C   UNL     1      51.728  18.425  17.337  0.00  0.00    -0.052 A 
ATOM      9  C   UNL     1      51.581  18.770  16.005  0.00  0.00    -0.010 A 
ATOM     10  C   UNL     1      51.586  20.097  15.615  0.00  0.00    +0.063 A 
ATOM     11  C   UNL     1      51.738  21.104  16.548  0.00  0.00    -0.010 A 
ATOM     12  C   UNL     1      51.889  20.782  17.890  0.00  0.00    +0.160 A 
ATOM     15  O   UNL     1      51.888  19.909  20.585  0.00  0.00    -0.415 OA
ATOM     16  C   UNL     1      52.983  17.394  21.288  0.00  0.00    +0.163 A 
ATOM     19  C   UNL     1      51.708  16.976  17.718  0.00  0.00    +0.286 C 
ATOM     37  C   UNL     1      53.357  16.089  21.578  0.00  0.00    -0.014 A 
ENDROOT
BRANCH  19  22
ATOM     22  C   UNL     1      50.281  16.493  17.697  0.00  0.00    -0.216 A 
ATOM     23  C   UNL     1      49.965  15.293  17.069  0.00  0.00    +0.202 A 
ATOM     26  C   UNL     1      48.654  14.834  17.047  0.00  0.00    -0.099 A 
ATOM     27  C   UNL     1      47.648  15.573  17.641  0.00  0.00    +0.202 A 
ATOM     30  C   UNL     1      47.957  16.789  18.279  0.00  0.00    -0.229 A 
ATOM     34  C   UNL     1      49.290  17.243  18.301  0.00  0.00    +0.218 A 
BRANCH  30  31
ATOM     31  C   UNL     1      46.902  17.574  18.915  0.00  0.00    +0.426 C 
ATOM     32  C   UNL     1      46.047  18.497  18.086  0.00  0.00    +0.080 C 
ATOM     33  O   UNL     1      46.713  17.483  20.110  0.00  0.00    -0.446 OA
ENDBRANCH  30  31
BRANCH  23  24
ATOM     24  O   UNL     1      50.945  14.564  16.479  0.00  0.00    -0.482 OA
ATOM     25  H   UNL     1      50.669  13.677  16.212  0.00  0.00    +0.395 HD
ENDBRANCH  23  24
BRANCH  27  28
ATOM     28  O   UNL     1      46.369  15.125  17.613  0.00  0.00    -0.306 OA
ATOM     29  C   UNL     1      46.067  13.972  18.401  0.00  0.00    +0.258 C 
ENDBRANCH  27  28
BRANCH  34  35
ATOM     35  O   UNL     1      49.600  18.412  18.913  0.00  0.00    -0.470 OA
ATOM     36  H   UNL     1      49.684  18.342  19.874  0.00  0.00    +0.399 HD
ENDBRANCH  34  35
ENDBRANCH  19  22
BRANCH  12  13
ATOM     13  O   UNL     1      52.037  21.763  18.814  0.00  0.00    -0.477 OA
ATOM     14  H   UNL     1      51.661  21.550  19.679  0.00  0.00    +0.397 HD
ENDBRANCH  12  13
BRANCH  16  17
ATOM     17  O   UNL     1      53.134  18.369  22.218  0.00  0.00    -0.483 OA
ATOM     18  H   UNL     1      53.327  19.240  21.846  0.00  0.00    +0.399 HD
ENDBRANCH  16  17
BRANCH  19  20
ATOM     20  O   UNL     1      52.451  16.238  16.745  0.00  0.00    -0.523 OA
ATOM     21  H   UNL     1      52.212  16.442  15.831  0.00  0.00    +0.374 HD
ENDBRANCH  19  20
TORSDOF 8
ENDMDL
MODEL 3
REMARK VINA RESULT:      -5.9      2.716      7.360
REMARK  Name = ZINC15217320
REMARK  11 active torsions:
REMARK  status: ('A' for Active; 'I' for Inactive)
REMARK    1  A    between atoms: C1_1  and  C2_2
REMARK    2  A    between atoms: C6_6  and  O1_8
REMARK    3  A    between atoms: C14_16  and  O3_17
REMARK    4  A    between atoms: C15_18  and  C16_19
REMARK    5  A    between atoms: C15_18  and  O8_32
REMARK    6  A    between atoms: C17_20  and  O7_31
REMARK    7  A    between atoms: C19_22  and  O6_29
REMARK    8  A    between atoms: C20_23  and  C22_26
REMARK    9  A    between atoms: C21_24  and  O4_25
REMARK   10  A    between atoms: C22_26  and  C23_28
REMARK   11  A    between atoms: O6_29  and  C24_30
REMARK                            x       y       z     vdW  Elec       q    Type
REMARK                         _______ _______ _______ _____ _____    ______ ____
ROOT
ATOM      1  C   UNL     1      53.612  13.563  20.831  0.00  0.00    +0.103 C 
ATOM      2  C   UNL     1      53.215  14.988  20.544  0.00  0.00    -0.045 A 
ATOM      3  C   UNL     1      52.655  15.310  19.320  0.00  0.00    +0.043 A 
ATOM      4  C   UNL     1      52.282  16.612  19.035  0.00  0.00    -0.011 A 
ATOM      5  C   UNL     1      52.490  17.600  19.999  0.00  0.00    -0.179 A 
ATOM      6  C   UNL     1      52.112  18.997  19.703  0.00  0.00    +0.447 C 
ATOM      7  C   UNL     1      51.903  19.368  18.288  0.00  0.00    -0.149 A 
ATOM      8  C   UNL     1      51.700  18.368  17.337  0.00  0.00    -0.052 A 
ATOM      9  C   UNL     1      51.519  18.729  16.014  0.00  0.00    -0.010 A 
ATOM     10  C   UNL     1      51.534  20.061  15.637  0.00  0.00    +0.063 A 
ATOM     11  C   UNL     1      51.729  21.055  16.576  0.00  0.00    -0.010 A 
ATOM     12  C   UNL     1      51.914  20.716  17.909  0.00  0.00    +0.160 A 
ATOM     15  O   UNL     1      51.979  19.814  20.594  0.00  0.00    -0.415 OA
ATOM     16  C   UNL     1      53.055  17.275  21.238  0.00  0.00    +0.163 A 
ATOM     19  C   UNL     1      51.668  16.916  17.703  0.00  0.00    +0.286 C 
ATOM     37  C   UNL     1      53.416  15.961  21.503  0.00  0.00    -0.014 A 
ENDROOT
BRANCH  19  22
ATOM     22  C   UNL     1      50.233  16.455  17.719  0.00  0.00    -0.216 A 
ATOM     23  C   UNL     1      49.264  17.233  18.341  0.00  0.00    +0.202 A 
ATOM     26  C   UNL     1      47.936  16.822  18.358  0.00  0.00    -0.099 A 
ATOM     27  C   UNL     1      47.570  15.629  17.765  0.00  0.00    +0.202 A 
ATOM     30  C   UNL     1      48.545  14.834  17.133  0.00  0.00    -0.229 A 
ATOM     34  C   UNL     1      49.886  15.261  17.116  0.00  0.00    +0.218 A 
BRANCH  30  31
ATOM     31  C   UNL     1      48.166  13.573  16.498  0.00  0.00    +0.426 C 
ATOM     32  C   UNL     1      47.967  12.337  17.337  0.00  0.00    +0.080 C 
ATOM     33  O   UNL     1      48.012  13.521  15.296  0.00  0.00    -0.446 OA
ENDBRANCH  30  31
BRANCH  23  24
ATOM     24  O   UNL     1      49.615  18.403  18.930  0.00  0.00    -0.482 OA
ATOM     25  H   UNL     1      49.754  18.337  19.884  0.00  0.00    +0.395 HD
ENDBRANCH  23  24
BRANCH  27  28
ATOM     28  O   UNL     1      46.275  15.227  17.788  0.00  0.00    -0.306 OA
ATOM     29  C   UNL     1      45.724  14.886  19.062  0.00  0.00    +0.258 C 
ENDBRANCH  27  28
BRANCH  34  35
ATOM     35  O   UNL     1      50.833  14.505  16.509  0.00  0.00    -0.470 OA
ATOM     36  H   UNL     1      50.871  14.617  15.550  0.00  0.00    +0.399 HD
ENDBRANCH  34  35
ENDBRANCH  19  22
BRANCH  12  13
ATOM     13  O   UNL     1      52.106  21.685  18.838  0.00  0.00    -0.477 OA
ATOM     14  H   UNL     1      51.348  22.274  18.956  0.00  0.00    +0.397 HD
ENDBRANCH  12  13
BRANCH  16  17
ATOM     17  O   UNL     1      53.248  18.237  22.173  0.00  0.00    -0.483 OA
ATOM     18  H   UNL     1      53.451  17.894  23.054  0.00  0.00    +0.399 HD
ENDBRANCH  16  17
BRANCH  19  20
ATOM     20  O   UNL     1      52.370  16.177  16.701  0.00  0.00    -0.523 OA
ATOM     21  H   UNL     1      53.143  15.701  17.034  0.00  0.00    +0.374 HD
ENDBRANCH  19  20
TORSDOF 8
ENDMDL
MODEL 4
REMARK VINA RESULT:      -5.9      2.064      6.135
REMARK  Name = ZINC15217320
REMARK  11 active torsions:
REMARK  status: ('A' for Active; 'I' for Inactive)
REMARK    1  A    between atoms: C1_1  and  C2_2
REMARK    2  A    between atoms: C6_6  and  O1_8
REMARK    3  A    between atoms: C14_16  and  O3_17
REMARK    4  A    between atoms: C15_18  and  C16_19
REMARK    5  A    between atoms: C15_18  and  O8_32
REMARK    6  A    between atoms: C17_20  and  O7_31
REMARK    7  A    between atoms: C19_22  and  O6_29
REMARK    8  A    between atoms: C20_23  and  C22_26
REMARK    9  A    between atoms: C21_24  and  O4_25
REMARK   10  A    between atoms: C22_26  and  C23_28
REMARK   11  A    between atoms: O6_29  and  C24_30
REMARK                            x       y       z     vdW  Elec       q    Type
REMARK                         _______ _______ _______ _____ _____    ______ ____
ROOT
ATOM      1  C   UNL     1      51.586  17.181  16.520  0.00  0.00    +0.103 C 
ATOM      2  C   UNL     1      50.668  18.018  17.374  0.00  0.00    -0.045 A 
ATOM      3  C   UNL     1      49.315  17.732  17.407  0.00  0.00    +0.043 A 
ATOM      4  C   UNL     1      48.454  18.487  18.185  0.00  0.00    -0.011 A 
ATOM      5  C   UNL     1      48.971  19.550  18.927  0.00  0.00    -0.179 A 
ATOM      6  C   UNL     1      48.062  20.375  19.750  0.00  0.00    +0.447 C 
ATOM      7  C   UNL     1      46.615  20.305  19.456  0.00  0.00    -0.149 A 
ATOM      8  C   UNL     1      46.115  19.238  18.709  0.00  0.00    -0.052 A 
ATOM      9  C   UNL     1      44.761  19.193  18.430  0.00  0.00    -0.010 A 
ATOM     10  C   UNL     1      43.913  20.186  18.887  0.00  0.00    +0.063 A 
ATOM     11  C   UNL     1      44.402  21.241  19.632  0.00  0.00    -0.010 A 
ATOM     12  C   UNL     1      45.757  21.309  19.923  0.00  0.00    +0.160 A 
ATOM     15  O   UNL     1      48.490  21.087  20.637  0.00  0.00    -0.415 OA
ATOM     16  C   UNL     1      50.341  19.837  18.896  0.00  0.00    +0.163 A 
ATOM     19  C   UNL     1      46.997  18.138  18.202  0.00  0.00    +0.286 C 
ATOM     37  C   UNL     1      51.186  19.063  18.112  0.00  0.00    -0.014 A 
ENDROOT
BRANCH  19  22
ATOM     22  C   UNL     1      46.804  16.926  19.076  0.00  0.00    -0.216 A 
ATOM     23  C   UNL     1      46.917  17.043  20.457  0.00  0.00    +0.202 A 
ATOM     26  C   UNL     1      46.737  15.934  21.275  0.00  0.00    -0.099 A 
ATOM     27  C   UNL     1      46.453  14.700  20.720  0.00  0.00    +0.202 A 
ATOM     30  C   UNL     1      46.336  14.571  19.323  0.00  0.00    -0.229 A 
ATOM     34  C   UNL     1      46.516  15.702  18.504  0.00  0.00    +0.218 A 
BRANCH  30  31
ATOM     31  C   UNL     1      46.031  13.272  18.728  0.00  0.00    +0.426 C 
ATOM     32  C   UNL     1      47.146  12.311  18.404  0.00  0.00    +0.080 C 
ATOM     33  O   UNL     1      44.880  12.966  18.495  0.00  0.00    -0.446 OA
ENDBRANCH  30  31
BRANCH  23  24
ATOM     24  O   UNL     1      47.200  18.249  21.010  0.00  0.00    -0.482 OA
ATOM     25  H   UNL     1      48.121  18.523  20.904  0.00  0.00    +0.395 HD
ENDBRANCH  23  24
BRANCH  27  28
ATOM     28  O   UNL     1      46.283  13.618  21.520  0.00  0.00    -0.306 OA
ATOM     29  C   UNL     1      45.116  13.598  22.345  0.00  0.00    +0.258 C 
ENDBRANCH  27  28
BRANCH  34  35
ATOM     35  O   UNL     1      46.406  15.590  17.157  0.00  0.00    -0.470 OA
ATOM     36  H   UNL     1      45.537  15.289  16.858  0.00  0.00    +0.399 HD
ENDBRANCH  34  35
ENDBRANCH  19  22
BRANCH  12  13
ATOM     13  O   UNL     1      46.248  22.340  20.654  0.00  0.00    -0.477 OA
ATOM     14  H   UNL     1      47.148  22.200  20.978  0.00  0.00    +0.397 HD
ENDBRANCH  12  13
BRANCH  16  17
ATOM     17  O   UNL     1      50.839  20.866  19.625  0.00  0.00    -0.483 OA
ATOM     18  H   UNL     1      50.231  21.202  20.298  0.00  0.00    +0.399 HD
ENDBRANCH  16  17
BRANCH  19  20
ATOM     20  O   UNL     1      46.594  17.806  16.872  0.00  0.00    -0.523 OA
ATOM     21  H   UNL     1      45.732  18.165  16.621  0.00  0.00    +0.374 HD
ENDBRANCH  19  20
TORSDOF 8
ENDMDL
MODEL 5
REMARK VINA RESULT:      -5.7      0.917      2.391
REMARK  Name = ZINC15217320
REMARK  11 active torsions:
REMARK  status: ('A' for Active; 'I' for Inactive)
REMARK    1  A    between atoms: C1_1  and  C2_2
REMARK    2  A    between atoms: C6_6  and  O1_8
REMARK    3  A    between atoms: C14_16  and  O3_17
REMARK    4  A    between atoms: C15_18  and  C16_19
REMARK    5  A    between atoms: C15_18  and  O8_32
REMARK    6  A    between atoms: C17_20  and  O7_31
REMARK    7  A    between atoms: C19_22  and  O6_29
REMARK    8  A    between atoms: C20_23  and  C22_26
REMARK    9  A    between atoms: C21_24  and  O4_25
REMARK   10  A    between atoms: C22_26  and  C23_28
REMARK   11  A    between atoms: O6_29  and  C24_30
REMARK                            x       y       z     vdW  Elec       q    Type
REMARK                         _______ _______ _______ _____ _____    ______ ____
ROOT
ATOM      1  C   UNL     1      44.228  21.353  19.333  0.00  0.00    +0.103 C 
ATOM      2  C   UNL     1      44.420  19.894  19.659  0.00  0.00    -0.045 A 
ATOM      3  C   UNL     1      45.231  19.114  18.854  0.00  0.00    +0.043 A 
ATOM      4  C   UNL     1      45.422  17.772  19.136  0.00  0.00    -0.011 A 
ATOM      5  C   UNL     1      44.775  17.215  20.239  0.00  0.00    -0.179 A 
ATOM      6  C   UNL     1      44.957  15.780  20.543  0.00  0.00    +0.447 C 
ATOM      7  C   UNL     1      45.482  14.911  19.469  0.00  0.00    -0.149 A 
ATOM      8  C   UNL     1      46.123  15.484  18.371  0.00  0.00    -0.052 A 
ATOM      9  C   UNL     1      46.597  14.660  17.367  0.00  0.00    -0.010 A 
ATOM     10  C   UNL     1      46.443  13.287  17.450  0.00  0.00    +0.063 A 
ATOM     11  C   UNL     1      45.814  12.714  18.537  0.00  0.00    -0.010 A 
ATOM     12  C   UNL     1      45.329  13.522  19.557  0.00  0.00    +0.160 A 
ATOM     15  O   UNL     1      44.684  15.330  21.639  0.00  0.00    -0.415 OA
ATOM     16  C   UNL     1      43.957  18.005  21.055  0.00  0.00    +0.163 A 
ATOM     19  C   UNL     1      46.318  16.965  18.246  0.00  0.00    +0.286 C 
ATOM     37  C   UNL     1      43.784  19.349  20.756  0.00  0.00    -0.014 A 
ENDROOT
BRANCH  19  22
ATOM     22  C   UNL     1      47.750  17.292  18.582  0.00  0.00    -0.216 A 
ATOM     23  C   UNL     1      48.659  17.550  17.562  0.00  0.00    +0.202 A 
ATOM     26  C   UNL     1      49.981  17.857  17.858  0.00  0.00    -0.099 A 
ATOM     27  C   UNL     1      50.407  17.899  19.172  0.00  0.00    +0.202 A 
ATOM     30  C   UNL     1      49.495  17.640  20.213  0.00  0.00    -0.229 A 
ATOM     34  C   UNL     1      48.156  17.334  19.902  0.00  0.00    +0.218 A 
BRANCH  30  31
ATOM     31  C   UNL     1      49.935  17.688  21.605  0.00  0.00    +0.426 C 
ATOM     32  C   UNL     1      50.660  16.511  22.207  0.00  0.00    +0.080 C 
ATOM     33  O   UNL     1      49.717  18.674  22.277  0.00  0.00    -0.446 OA
ENDBRANCH  30  31
BRANCH  23  24
ATOM     24  O   UNL     1      48.250  17.505  16.269  0.00  0.00    -0.482 OA
ATOM     25  H   UNL     1      48.866  17.052  15.677  0.00  0.00    +0.395 HD
ENDBRANCH  23  24
BRANCH  27  28
ATOM     28  O   UNL     1      51.699  18.194  19.459  0.00  0.00    -0.306 OA
ATOM     29  C   UNL     1      52.440  18.901  18.462  0.00  0.00    +0.258 C 
ENDBRANCH  27  28
BRANCH  34  35
ATOM     35  O   UNL     1      47.268  17.083  20.895  0.00  0.00    -0.470 OA
ATOM     36  H   UNL     1      47.535  16.369  21.490  0.00  0.00    +0.399 HD
ENDBRANCH  34  35
ENDBRANCH  19  22
BRANCH  12  13
ATOM     13  O   UNL     1      44.711  12.969  20.629  0.00  0.00    -0.477 OA
ATOM     14  H   UNL     1      43.757  13.125  20.658  0.00  0.00    +0.397 HD
ENDBRANCH  12  13
BRANCH  16  17
ATOM     17  O   UNL     1      43.336  17.460  22.131  0.00  0.00    -0.483 OA
ATOM     18  H   UNL     1      43.931  16.992  22.733  0.00  0.00    +0.399 HD
ENDBRANCH  16  17
BRANCH  19  20
ATOM     20  O   UNL     1      46.072  17.345  16.890  0.00  0.00    -0.523 OA
ATOM     21  H   UNL     1      45.654  16.654  16.359  0.00  0.00    +0.374 HD
ENDBRANCH  19  20
TORSDOF 8
ENDMDL
MODEL 6
REMARK VINA RESULT:      -5.6      2.224      6.041
REMARK  Name = ZINC15217320
REMARK  11 active torsions:
REMARK  status: ('A' for Active; 'I' for Inactive)
REMARK    1  A    between atoms: C1_1  and  C2_2
REMARK    2  A    between atoms: C6_6  and  O1_8
REMARK    3  A    between atoms: C14_16  and  O3_17
REMARK    4  A    between atoms: C15_18  and  C16_19
REMARK    5  A    between atoms: C15_18  and  O8_32
REMARK    6  A    between atoms: C17_20  and  O7_31
REMARK    7  A    between atoms: C19_22  and  O6_29
REMARK    8  A    between atoms: C20_23  and  C22_26
REMARK    9  A    between atoms: C21_24  and  O4_25
REMARK   10  A    between atoms: C22_26  and  C23_28
REMARK   11  A    between atoms: O6_29  and  C24_30
REMARK                            x       y       z     vdW  Elec       q    Type
REMARK                         _______ _______ _______ _____ _____    ______ ____
ROOT
ATOM      1  C   UNL     1      51.245  20.778  18.986  0.00  0.00    +0.103 C 
ATOM      2  C   UNL     1      50.285  19.651  18.706  0.00  0.00    -0.045 A 
ATOM      3  C   UNL     1      49.224  19.426  19.565  0.00  0.00    +0.043 A 
ATOM      4  C   UNL     1      48.330  18.396  19.327  0.00  0.00    -0.011 A 
ATOM      5  C   UNL     1      48.520  17.582  18.210  0.00  0.00    -0.179 A 
ATOM      6  C   UNL     1      47.583  16.469  17.951  0.00  0.00    +0.447 C 
ATOM      7  C   UNL     1      46.730  16.015  19.070  0.00  0.00    -0.149 A 
ATOM      8  C   UNL     1      46.553  16.840  20.180  0.00  0.00    -0.052 A 
ATOM      9  C   UNL     1      45.763  16.395  21.225  0.00  0.00    -0.010 A 
ATOM     10  C   UNL     1      45.153  15.155  21.170  0.00  0.00    +0.063 A 
ATOM     11  C   UNL     1      45.320  14.336  20.071  0.00  0.00    -0.010 A 
ATOM     12  C   UNL     1      46.110  14.760  19.011  0.00  0.00    +0.160 A 
ATOM     15  O   UNL     1      47.516  15.945  16.856  0.00  0.00    -0.415 OA
ATOM     16  C   UNL     1      49.592  17.811  17.339  0.00  0.00    +0.163 A 
ATOM     19  C   UNL     1      47.188  18.193  20.276  0.00  0.00    +0.286 C 
ATOM     37  C   UNL     1      50.473  18.852  17.595  0.00  0.00    -0.014 A 
ENDROOT
BRANCH  19  22
ATOM     22  C   UNL     1      46.139  19.238  19.996  0.00  0.00    -0.216 A 
ATOM     23  C   UNL     1      45.291  19.092  18.904  0.00  0.00    +0.202 A 
ATOM     26  C   UNL     1      44.316  20.045  18.637  0.00  0.00    -0.099 A 
ATOM     27  C   UNL     1      44.188  21.155  19.451  0.00  0.00    +0.202 A 
ATOM     30  C   UNL     1      45.042  21.312  20.560  0.00  0.00    -0.229 A 
ATOM     34  C   UNL     1      46.023  20.338  20.824  0.00  0.00    +0.218 A 
BRANCH  30  31
ATOM     31  C   UNL     1      44.910  22.479  21.429  0.00  0.00    +0.426 C 
ATOM     32  C   UNL     1      45.459  23.812  20.989  0.00  0.00    +0.080 C 
ATOM     33  O   UNL     1      44.360  22.375  22.505  0.00  0.00    -0.446 OA
ENDBRANCH  30  31
BRANCH  23  24
ATOM     24  O   UNL     1      45.413  18.009  18.096  0.00  0.00    -0.482 OA
ATOM     25  H   UNL     1      45.571  18.226  17.168  0.00  0.00    +0.395 HD
ENDBRANCH  23  24
BRANCH  27  28
ATOM     28  O   UNL     1      43.239  22.087  19.186  0.00  0.00    -0.306 OA
ATOM     29  C   UNL     1      41.891  21.627  19.075  0.00  0.00    +0.258 C 
ENDBRANCH  27  28
BRANCH  34  35
ATOM     35  O   UNL     1      46.851  20.478  21.889  0.00  0.00    -0.470 OA
ATOM     36  H   UNL     1      46.411  20.381  22.744  0.00  0.00    +0.399 HD
ENDBRANCH  34  35
ENDBRANCH  19  22
BRANCH  12  13
ATOM     13  O   UNL     1      46.280  13.965  17.926  0.00  0.00    -0.477 OA
ATOM     14  H   UNL     1      45.745  13.159  17.941  0.00  0.00    +0.397 HD
ENDBRANCH  12  13
BRANCH  16  17
ATOM     17  O   UNL     1      49.768  17.021  16.251  0.00  0.00    -0.483 OA
ATOM     18  H   UNL     1      48.994  16.486  16.024  0.00  0.00    +0.399 HD
ENDBRANCH  16  17
BRANCH  19  20
ATOM     20  O   UNL     1      47.669  18.379  21.609  0.00  0.00    -0.523 OA
ATOM     21  H   UNL     1      48.556  18.026  21.759  0.00  0.00    +0.374 HD
ENDBRANCH  19  20
TORSDOF 8
ENDMDL
MODEL 7
REMARK VINA RESULT:      -5.5      2.068      6.513
REMARK  Name = ZINC15217320
REMARK  11 active torsions:
REMARK  status: ('A' for Active; 'I' for Inactive)
REMARK    1  A    between atoms: C1_1  and  C2_2
REMARK    2  A    between atoms: C6_6  and  O1_8
REMARK    3  A    between atoms: C14_16  and  O3_17
REMARK    4  A    between atoms: C15_18  and  C16_19
REMARK    5  A    between atoms: C15_18  and  O8_32
REMARK    6  A    between atoms: C17_20  and  O7_31
REMARK    7  A    between atoms: C19_22  and  O6_29
REMARK    8  A    between atoms: C20_23  and  C22_26
REMARK    9  A    between atoms: C21_24  and  O4_25
REMARK   10  A    between atoms: C22_26  and  C23_28
REMARK   11  A    between atoms: O6_29  and  C24_30
REMARK                            x       y       z     vdW  Elec       q    Type
REMARK                         _______ _______ _______ _____ _____    ______ ____
ROOT
ATOM      1  C   UNL     1      51.466  21.887  15.758  0.00  0.00    +0.103 C 
ATOM      2  C   UNL     1      51.512  20.465  16.254  0.00  0.00    -0.045 A 
ATOM      3  C   UNL     1      51.076  20.172  17.534  0.00  0.00    +0.043 A 
ATOM      4  C   UNL     1      51.108  18.873  18.011  0.00  0.00    -0.011 A 
ATOM      5  C   UNL     1      51.598  17.863  17.182  0.00  0.00    -0.179 A 
ATOM      6  C   UNL     1      51.654  16.473  17.682  0.00  0.00    +0.447 C 
ATOM      7  C   UNL     1      51.568  16.264  19.143  0.00  0.00    -0.149 A 
ATOM      8  C   UNL     1      51.080  17.286  19.957  0.00  0.00    -0.052 A 
ATOM      9  C   UNL     1      51.019  17.081  21.324  0.00  0.00    -0.010 A 
ATOM     10  C   UNL     1      51.430  15.881  21.877  0.00  0.00    +0.063 A 
ATOM     11  C   UNL     1      51.909  14.865  21.075  0.00  0.00    -0.010 A 
ATOM     12  C   UNL     1      51.981  15.048  19.701  0.00  0.00    +0.160 A 
ATOM     15  O   UNL     1      51.767  15.534  16.918  0.00  0.00    -0.415 OA
ATOM     16  C   UNL     1      52.037  18.158  15.886  0.00  0.00    +0.163 A 
ATOM     19  C   UNL     1      50.616  18.597  19.399  0.00  0.00    +0.286 C 
ATOM     37  C   UNL     1      51.990  19.467  15.428  0.00  0.00    -0.014 A 
ENDROOT
BRANCH  19  22
ATOM     22  C   UNL     1      49.110  18.608  19.385  0.00  0.00    -0.216 A 
ATOM     23  C   UNL     1      48.421  19.686  19.929  0.00  0.00    +0.202 A 
ATOM     26  C   UNL     1      47.032  19.711  19.919  0.00  0.00    -0.099 A 
ATOM     27  C   UNL     1      46.321  18.658  19.375  0.00  0.00    +0.202 A 
ATOM     30  C   UNL     1      47.009  17.561  18.821  0.00  0.00    -0.229 A 
ATOM     34  C   UNL     1      48.417  17.548  18.832  0.00  0.00    +0.218 A 
BRANCH  30  31
ATOM     31  C   UNL     1      46.267  16.446  18.239  0.00  0.00    +0.426 C 
ATOM     32  C   UNL     1      45.681  15.383  19.133  0.00  0.00    +0.080 C 
ATOM     33  O   UNL     1      46.122  16.374  17.037  0.00  0.00    -0.446 OA
ENDBRANCH  30  31
BRANCH  23  24
ATOM     24  O   UNL     1      49.110  20.722  20.470  0.00  0.00    -0.482 OA
ATOM     25  H   UNL     1      49.081  20.752  21.436  0.00  0.00    +0.395 HD
ENDBRANCH  23  24
BRANCH  27  28
ATOM     28  O   UNL     1      44.965  18.682  19.371  0.00  0.00    -0.306 OA
ATOM     29  C   UNL     1      44.339  19.837  18.809  0.00  0.00    +0.258 C 
ENDBRANCH  27  28
BRANCH  34  35
ATOM     35  O   UNL     1      49.091  16.498  18.301  0.00  0.00    -0.470 OA
ATOM     36  H   UNL     1      49.631  16.014  18.942  0.00  0.00    +0.399 HD
ENDBRANCH  34  35
ENDBRANCH  19  22
BRANCH  12  13
ATOM     13  O   UNL     1      52.449  14.055  18.904  0.00  0.00    -0.477 OA
ATOM     14  H   UNL     1      53.022  13.422  19.358  0.00  0.00    +0.397 HD
ENDBRANCH  12  13
BRANCH  16  17
ATOM     17  O   UNL     1      52.504  17.171  15.083  0.00  0.00    -0.483 OA
ATOM     18  H   UNL     1      51.853  16.485  14.882  0.00  0.00    +0.399 HD
ENDBRANCH  16  17
BRANCH  19  20
ATOM     20  O   UNL     1      51.070  19.645  20.258  0.00  0.00    -0.523 OA
ATOM     21  H   UNL     1      50.465  20.396  20.314  0.00  0.00    +0.374 HD
ENDBRANCH  19  20
TORSDOF 8
ENDMDL
MODEL 8
REMARK VINA RESULT:      -5.4      3.248      6.517
REMARK  Name = ZINC15217320
REMARK  11 active torsions:
REMARK  status: ('A' for Active; 'I' for Inactive)
REMARK    1  A    between atoms: C1_1  and  C2_2
REMARK    2  A    between atoms: C6_6  and  O1_8
REMARK    3  A    between atoms: C14_16  and  O3_17
REMARK    4  A    between atoms: C15_18  and  C16_19
REMARK    5  A    between atoms: C15_18  and  O8_32
REMARK    6  A    between atoms: C17_20  and  O7_31
REMARK    7  A    between atoms: C19_22  and  O6_29
REMARK    8  A    between atoms: C20_23  and  C22_26
REMARK    9  A    between atoms: C21_24  and  O4_25
REMARK   10  A    between atoms: C22_26  and  C23_28
REMARK   11  A    between atoms: O6_29  and  C24_30
REMARK                            x       y       z     vdW  Elec       q    Type
REMARK                         _______ _______ _______ _____ _____    ______ ____
ROOT
ATOM      1  C   UNL     1      40.363  18.432  19.694  0.00  0.00    +0.103 C 
ATOM      2  C   UNL     1      41.352  19.569  19.695  0.00  0.00    -0.045 A 
ATOM      3  C   UNL     1      42.593  19.396  20.282  0.00  0.00    +0.043 A 
ATOM      4  C   UNL     1      43.517  20.426  20.294  0.00  0.00    -0.011 A 
ATOM      5  C   UNL     1      43.175  21.647  19.712  0.00  0.00    -0.179 A 
ATOM      6  C   UNL     1      44.145  22.761  19.730  0.00  0.00    +0.447 C 
ATOM      7  C   UNL     1      45.265  22.682  20.691  0.00  0.00    -0.149 A 
ATOM      8  C   UNL     1      45.592  21.454  21.267  0.00  0.00    -0.052 A 
ATOM      9  C   UNL     1      46.634  21.397  22.175  0.00  0.00    -0.010 A 
ATOM     10  C   UNL     1      47.345  22.538  22.505  0.00  0.00    +0.063 A 
ATOM     11  C   UNL     1      47.029  23.754  21.934  0.00  0.00    -0.010 A 
ATOM     12  C   UNL     1      45.987  23.836  21.021  0.00  0.00    +0.160 A 
ATOM     15  O   UNL     1      44.025  23.711  18.980  0.00  0.00    -0.415 OA
ATOM     16  C   UNL     1      41.920  21.821  19.114  0.00  0.00    +0.163 A 
ATOM     19  C   UNL     1      44.854  20.195  20.930  0.00  0.00    +0.286 C 
ATOM     37  C   UNL     1      41.011  20.772  19.111  0.00  0.00    -0.014 A 
ENDROOT
BRANCH  19  22
ATOM     22  C   UNL     1      45.700  19.378  19.988  0.00  0.00    -0.216 A 
ATOM     23  C   UNL     1      46.180  19.951  18.816  0.00  0.00    +0.202 A 
ATOM     26  C   UNL     1      46.965  19.211  17.941  0.00  0.00    -0.099 A 
ATOM     27  C   UNL     1      47.268  17.892  18.224  0.00  0.00    +0.202 A 
ATOM     30  C   UNL     1      46.786  17.303  19.408  0.00  0.00    -0.229 A 
ATOM     34  C   UNL     1      45.996  18.063  20.291  0.00  0.00    +0.218 A 
BRANCH  30  31
ATOM     31  C   UNL     1      47.105  15.911  19.718  0.00  0.00    +0.426 C 
ATOM     32  C   UNL     1      48.468  15.551  20.250  0.00  0.00    +0.080 C 
ATOM     33  O   UNL     1      46.272  15.045  19.548  0.00  0.00    -0.446 OA
ENDBRANCH  30  31
BRANCH  23  24
ATOM     24  O   UNL     1      45.884  21.243  18.527  0.00  0.00    -0.482 OA
ATOM     25  H   UNL     1      45.319  21.673  19.183  0.00  0.00    +0.395 HD
ENDBRANCH  23  24
BRANCH  27  28
ATOM     28  O   UNL     1      48.029  17.169  17.366  0.00  0.00    -0.306 OA
ATOM     29  C   UNL     1      49.407  17.536  17.255  0.00  0.00    +0.258 C 
ENDBRANCH  27  28
BRANCH  34  35
ATOM     35  O   UNL     1      45.526  17.506  21.435  0.00  0.00    -0.470 OA
ATOM     36  H   UNL     1      44.587  17.670  21.594  0.00  0.00    +0.399 HD
ENDBRANCH  34  35
ENDBRANCH  19  22
BRANCH  12  13
ATOM     13  O   UNL     1      45.669  25.026  20.454  0.00  0.00    -0.477 OA
ATOM     14  H   UNL     1      46.189  25.239  19.667  0.00  0.00    +0.397 HD
ENDBRANCH  12  13
BRANCH  16  17
ATOM     17  O   UNL     1      41.595  23.007  18.543  0.00  0.00    -0.483 OA
ATOM     18  H   UNL     1      41.184  23.637  19.151  0.00  0.00    +0.399 HD
ENDBRANCH  16  17
BRANCH  19  20
ATOM     20  O   UNL     1      44.660  19.445  22.131  0.00  0.00    -0.523 OA
ATOM     21  H   UNL     1      44.820  19.950  22.940  0.00  0.00    +0.374 HD
ENDBRANCH  19  20
TORSDOF 8
ENDMDL
MODEL 9
REMARK VINA RESULT:      -5.4      2.306      5.329
REMARK  Name = ZINC15217320
REMARK  11 active torsions:
REMARK  status: ('A' for Active; 'I' for Inactive)
REMARK    1  A    between atoms: C1_1  and  C2_2
REMARK    2  A    between atoms: C6_6  and  O1_8
REMARK    3  A    between atoms: C14_16  and  O3_17
REMARK    4  A    between atoms: C15_18  and  C16_19
REMARK    5  A    between atoms: C15_18  and  O8_32
REMARK    6  A    between atoms: C17_20  and  O7_31
REMARK    7  A    between atoms: C19_22  and  O6_29
REMARK    8  A    between atoms: C20_23  and  C22_26
REMARK    9  A    between atoms: C21_24  and  O4_25
REMARK   10  A    between atoms: C22_26  and  C23_28
REMARK   11  A    between atoms: O6_29  and  C24_30
REMARK                            x       y       z     vdW  Elec       q    Type
REMARK                         _______ _______ _______ _____ _____    ______ ____
ROOT
ATOM      1  C   UNL     1      41.231  19.436  20.052  0.00  0.00    +0.103 C 
ATOM      2  C   UNL     1      42.726  19.594  19.959  0.00  0.00    -0.045 A 
ATOM      3  C   UNL     1      43.552  18.657  20.554  0.00  0.00    +0.043 A 
ATOM      4  C   UNL     1      44.928  18.782  20.481  0.00  0.00    -0.011 A 
ATOM      5  C   UNL     1      45.472  19.874  19.805  0.00  0.00    -0.179 A 
ATOM      6  C   UNL     1      46.939  20.030  19.731  0.00  0.00    +0.447 C 
ATOM      7  C   UNL     1      47.761  19.264  20.692  0.00  0.00    -0.149 A 
ATOM      8  C   UNL     1      47.201  18.177  21.363  0.00  0.00    -0.052 A 
ATOM      9  C   UNL     1      47.978  17.478  22.269  0.00  0.00    -0.010 A 
ATOM     10  C   UNL     1      49.291  17.846  22.505  0.00  0.00    +0.063 A 
ATOM     11  C   UNL     1      49.851  18.918  21.840  0.00  0.00    -0.010 A 
ATOM     12  C   UNL     1      49.091  19.636  20.927  0.00  0.00    +0.160 A 
ATOM     15  O   UNL     1      47.454  20.764  18.909  0.00  0.00    -0.415 OA
ATOM     16  C   UNL     1      44.637  20.821  19.199  0.00  0.00    +0.163 A 
ATOM     19  C   UNL     1      45.787  17.739  21.130  0.00  0.00    +0.286 C 
ATOM     37  C   UNL     1      43.259  20.672  19.282  0.00  0.00    -0.014 A 
ENDROOT
BRANCH  19  22
ATOM     22  C   UNL     1      45.801  16.514  20.253  0.00  0.00    -0.216 A 
ATOM     23  C   UNL     1      45.147  15.359  20.667  0.00  0.00    +0.202 A 
ATOM     26  C   UNL     1      45.147  14.225  19.865  0.00  0.00    -0.099 A 
ATOM     27  C   UNL     1      45.808  14.231  18.651  0.00  0.00    +0.202 A 
ATOM     30  C   UNL     1      46.473  15.395  18.223  0.00  0.00    -0.229 A 
ATOM     34  C   UNL     1      46.463  16.542  19.040  0.00  0.00    +0.218 A 
BRANCH  30  31
ATOM     31  C   UNL     1      47.170  15.413  16.939  0.00  0.00    +0.426 C 
ATOM     32  C   UNL     1      48.630  15.047  16.869  0.00  0.00    +0.080 C 
ATOM     33  O   UNL     1      46.573  15.723  15.929  0.00  0.00    -0.446 OA
ENDBRANCH  30  31
BRANCH  23  24
ATOM     24  O   UNL     1      44.500  15.342  21.859  0.00  0.00    -0.482 OA
ATOM     25  H   UNL     1      43.716  15.908  21.889  0.00  0.00    +0.395 HD
ENDBRANCH  23  24
BRANCH  27  28
ATOM     28  O   UNL     1      45.812  13.120  17.873  0.00  0.00    -0.306 OA
ATOM     29  C   UNL     1      46.793  12.124  18.169  0.00  0.00    +0.258 C 
ENDBRANCH  27  28
BRANCH  34  35
ATOM     35  O   UNL     1      47.099  17.670  18.638  0.00  0.00    -0.470 OA
ATOM     36  H   UNL     1      47.100  18.376  19.299  0.00  0.00    +0.399 HD
ENDBRANCH  34  35
ENDBRANCH  19  22
BRANCH  12  13
ATOM     13  O   UNL     1      49.632  20.690  20.268  0.00  0.00    -0.477 OA
ATOM     14  H   UNL     1      49.162  21.524  20.405  0.00  0.00    +0.397 HD
ENDBRANCH  12  13
BRANCH  16  17
ATOM     17  O   UNL     1      45.170  21.877  18.537  0.00  0.00    -0.483 OA
ATOM     18  H   UNL     1      45.131  22.710  19.027  0.00  0.00    +0.399 HD
ENDBRANCH  16  17
BRANCH  19  20
ATOM     20  O   UNL     1      45.205  17.391  22.388  0.00  0.00    -0.523 OA
ATOM     21  H   UNL     1      45.659  17.773  23.150  0.00  0.00    +0.374 HD
ENDBRANCH  19  20
TORSDOF 8
ENDMDL
