MODEL 1
REMARK VINA RESULT:      -6.6      0.000      0.000
REMARK  Name = ZINC14557836
REMARK  7 active torsions:
REMARK  status: ('A' for Active; 'I' for Inactive)
REMARK    1  A    between atoms: C1_1  and  C2_2
REMARK    2  A    between atoms: C2_2  and  C20_24
REMARK    3  A    between atoms: C9_9  and  C11_12
REMARK    4  A    between atoms: C10_10  and  O1_11
REMARK    5  A    between atoms: C11_12  and  C12_14
REMARK    6  A    between atoms: C13_15  and  C14_16
REMARK    7  A    between atoms: C17_19  and  O3_22
REMARK                            x       y       z     vdW  Elec       q    Type
REMARK                         _______ _______ _______ _____ _____    ______ ____
ROOT
ATOM      1  C   UNL     1      39.618  21.221  18.885  0.00  0.00    +0.085 C 
ATOM      2  C   UNL     1      41.019  20.619  19.017  0.00  0.00    +0.146 C 
ATOM      3  C   UNL     1      41.386  19.905  17.715  0.00  0.00    +0.036 C 
ATOM      4  C   UNL     1      41.026  19.624  20.148  0.00  0.00    -0.051 C 
ATOM      5  C   UNL     1      42.149  19.393  20.825  0.00  0.00    +0.052 C 
ATOM      6  C   UNL     1      43.361  20.149  20.439  0.00  0.00    -0.177 A 
ATOM      7  C   UNL     1      43.208  21.295  19.644  0.00  0.00    +0.181 A 
ATOM      8  C   UNL     1      44.322  22.028  19.263  0.00  0.00    -0.023 A 
ATOM      9  C   UNL     1      45.580  21.633  19.661  0.00  0.00    +0.122 A 
ATOM     10  C   UNL     1      45.748  20.493  20.455  0.00  0.00    -0.220 A 
ATOM     23  C   UNL     1      44.629  19.744  20.848  0.00  0.00    +0.214 A 
ATOM     26  O   UNL     1      41.959  21.664  19.263  0.00  0.00    -0.300 OA
ENDROOT
BRANCH  10  11
ATOM     11  C   UNL     1      47.099  20.079  20.877  0.00  0.00    +0.426 C 
ATOM     22  O   UNL     1      47.397  20.086  22.058  0.00  0.00    -0.447 OA
BRANCH  11  12
ATOM     12  C   UNL     1      48.080  19.660  19.877  0.00  0.00    -0.102 C 
ATOM     13  C   UNL     1      48.975  20.552  19.395  0.00  0.00    +0.125 C 
BRANCH  13  14
ATOM     14  C   UNL     1      49.961  20.133  18.391  0.00  0.00    -0.092 A 
ATOM     15  C   UNL     1      49.998  18.802  17.956  0.00  0.00    +0.052 A 
ATOM     16  C   UNL     1      50.921  18.415  17.010  0.00  0.00    -0.015 A 
ATOM     17  C   UNL     1      51.823  19.340  16.496  0.00  0.00    +0.121 A 
ATOM     20  C   UNL     1      51.793  20.662  16.928  0.00  0.00    -0.014 A 
ATOM     21  C   UNL     1      50.871  21.060  17.869  0.00  0.00    +0.060 A 
BRANCH  17  18
ATOM     18  O   UNL     1      52.734  18.953  15.567  0.00  0.00    -0.499 OA
ATOM     19  H   UNL     1      53.639  19.227  15.768  0.00  0.00    +0.395 HD
ENDBRANCH  17  18
ENDBRANCH  13  14
ENDBRANCH  11  12
ENDBRANCH  10  11
BRANCH  23  24
ATOM     24  O   UNL     1      44.780  18.638  21.618  0.00  0.00    -0.473 OA
ATOM     25  H   UNL     1      44.032  18.461  22.205  0.00  0.00    +0.399 HD
ENDBRANCH  23  24
TORSDOF 5
ENDMDL
MODEL 2
REMARK VINA RESULT:      -6.3      4.488      5.041
REMARK  Name = ZINC14557836
REMARK  7 active torsions:
REMARK  status: ('A' for Active; 'I' for Inactive)
REMARK    1  A    between atoms: C1_1  and  C2_2
REMARK    2  A    between atoms: C2_2  and  C20_24
REMARK    3  A    between atoms: C9_9  and  C11_12
REMARK    4  A    between atoms: C10_10  and  O1_11
REMARK    5  A    between atoms: C11_12  and  C12_14
REMARK    6  A    between atoms: C13_15  and  C14_16
REMARK    7  A    between atoms: C17_19  and  O3_22
REMARK                            x       y       z     vdW  Elec       q    Type
REMARK                         _______ _______ _______ _____ _____    ______ ____
ROOT
ATOM      1  C   UNL     1      40.262  21.562  18.766  0.00  0.00    +0.085 C 
ATOM      2  C   UNL     1      41.148  20.318  18.872  0.00  0.00    +0.146 C 
ATOM      3  C   UNL     1      40.779  19.339  17.756  0.00  0.00    +0.036 C 
ATOM      4  C   UNL     1      40.919  19.659  20.207  0.00  0.00    -0.051 C 
ATOM      5  C   UNL     1      41.894  18.953  20.776  0.00  0.00    +0.052 C 
ATOM      6  C   UNL     1      43.188  18.857  20.067  0.00  0.00    -0.177 A 
ATOM      7  C   UNL     1      43.453  19.769  19.034  0.00  0.00    +0.181 A 
ATOM      8  C   UNL     1      44.656  19.707  18.347  0.00  0.00    -0.023 A 
ATOM      9  C   UNL     1      45.593  18.752  18.674  0.00  0.00    +0.122 A 
ATOM     10  C   UNL     1      45.343  17.836  19.702  0.00  0.00    -0.220 A 
ATOM     23  C   UNL     1      44.130  17.889  20.405  0.00  0.00    +0.214 A 
ATOM     26  O   UNL     1      42.515  20.701  18.729  0.00  0.00    -0.300 OA
ENDROOT
BRANCH  10  11
ATOM     11  C   UNL     1      46.352  16.818  20.045  0.00  0.00    +0.426 C 
ATOM     22  O   UNL     1      46.859  16.811  21.152  0.00  0.00    -0.447 OA
BRANCH  11  12
ATOM     12  C   UNL     1      46.744  15.815  19.055  0.00  0.00    -0.102 C 
ATOM     13  C   UNL     1      45.858  14.874  18.661  0.00  0.00    +0.125 C 
BRANCH  13  14
ATOM     14  C   UNL     1      46.249  13.866  17.667  0.00  0.00    -0.092 A 
ATOM     15  C   UNL     1      45.702  12.578  17.720  0.00  0.00    +0.052 A 
ATOM     16  C   UNL     1      46.068  11.639  16.782  0.00  0.00    -0.015 A 
ATOM     17  C   UNL     1      46.987  11.963  15.791  0.00  0.00    +0.121 A 
ATOM     20  C   UNL     1      47.537  13.239  15.737  0.00  0.00    -0.014 A 
ATOM     21  C   UNL     1      47.174  14.188  16.666  0.00  0.00    +0.060 A 
BRANCH  17  18
ATOM     18  O   UNL     1      47.348  11.032  14.872  0.00  0.00    -0.499 OA
ATOM     19  H   UNL     1      46.747  10.973  14.117  0.00  0.00    +0.395 HD
ENDBRANCH  17  18
ENDBRANCH  13  14
ENDBRANCH  11  12
ENDBRANCH  10  11
BRANCH  23  24
ATOM     24  O   UNL     1      43.878  17.007  21.404  0.00  0.00    -0.473 OA
ATOM     25  H   UNL     1      44.267  17.253  22.254  0.00  0.00    +0.399 HD
ENDBRANCH  23  24
TORSDOF 5
ENDMDL
MODEL 3
REMARK VINA RESULT:      -6.2      1.599      8.039
REMARK  Name = ZINC14557836
REMARK  7 active torsions:
REMARK  status: ('A' for Active; 'I' for Inactive)
REMARK    1  A    between atoms: C1_1  and  C2_2
REMARK    2  A    between atoms: C2_2  and  C20_24
REMARK    3  A    between atoms: C9_9  and  C11_12
REMARK    4  A    between atoms: C10_10  and  O1_11
REMARK    5  A    between atoms: C11_12  and  C12_14
REMARK    6  A    between atoms: C13_15  and  C14_16
REMARK    7  A    between atoms: C17_19  and  O3_22
REMARK                            x       y       z     vdW  Elec       q    Type
REMARK                         _______ _______ _______ _____ _____    ______ ____
ROOT
ATOM      1  C   UNL     1      52.241  19.663  16.540  0.00  0.00    +0.085 C 
ATOM      2  C   UNL     1      51.292  19.211  17.652  0.00  0.00    +0.146 C 
ATOM      3  C   UNL     1      52.110  18.799  18.878  0.00  0.00    +0.036 C 
ATOM      4  C   UNL     1      50.489  18.032  17.171  0.00  0.00    -0.051 C 
ATOM      5  C   UNL     1      49.272  17.810  17.661  0.00  0.00    +0.052 C 
ATOM      6  C   UNL     1      48.744  18.758  18.666  0.00  0.00    -0.177 A 
ATOM      7  C   UNL     1      49.369  20.007  18.800  0.00  0.00    +0.181 A 
ATOM      8  C   UNL     1      48.902  20.920  19.732  0.00  0.00    -0.023 A 
ATOM      9  C   UNL     1      47.824  20.606  20.530  0.00  0.00    +0.122 A 
ATOM     10  C   UNL     1      47.189  19.365  20.407  0.00  0.00    -0.220 A 
ATOM     23  C   UNL     1      47.652  18.433  19.467  0.00  0.00    +0.214 A 
ATOM     26  O   UNL     1      50.430  20.294  18.004  0.00  0.00    -0.300 OA
ENDROOT
BRANCH  10  11
ATOM     11  C   UNL     1      46.035  19.038  21.265  0.00  0.00    +0.426 C 
ATOM     22  O   UNL     1      46.174  18.290  22.215  0.00  0.00    -0.447 OA
BRANCH  11  12
ATOM     12  C   UNL     1      44.722  19.615  20.974  0.00  0.00    -0.102 C 
ATOM     13  C   UNL     1      44.316  19.754  19.693  0.00  0.00    +0.125 C 
BRANCH  13  14
ATOM     14  C   UNL     1      42.998  20.333  19.398  0.00  0.00    -0.092 A 
ATOM     15  C   UNL     1      41.862  19.514  19.372  0.00  0.00    +0.052 A 
ATOM     16  C   UNL     1      40.628  20.061  19.102  0.00  0.00    -0.015 A 
ATOM     17  C   UNL     1      40.511  21.422  18.842  0.00  0.00    +0.121 A 
ATOM     20  C   UNL     1      41.636  22.239  18.862  0.00  0.00    -0.014 A 
ATOM     21  C   UNL     1      42.874  21.702  19.137  0.00  0.00    +0.060 A 
BRANCH  17  18
ATOM     18  O   UNL     1      39.293  21.956  18.571  0.00  0.00    -0.499 OA
ATOM     19  H   UNL     1      38.715  21.374  18.058  0.00  0.00    +0.395 HD
ENDBRANCH  17  18
ENDBRANCH  13  14
ENDBRANCH  11  12
ENDBRANCH  10  11
BRANCH  23  24
ATOM     24  O   UNL     1      47.043  17.228  19.339  0.00  0.00    -0.473 OA
ATOM     25  H   UNL     1      47.619  16.529  19.002  0.00  0.00    +0.399 HD
ENDBRANCH  23  24
TORSDOF 5
ENDMDL
MODEL 4
REMARK VINA RESULT:      -6.2      1.708      2.093
REMARK  Name = ZINC14557836
REMARK  7 active torsions:
REMARK  status: ('A' for Active; 'I' for Inactive)
REMARK    1  A    between atoms: C1_1  and  C2_2
REMARK    2  A    between atoms: C2_2  and  C20_24
REMARK    3  A    between atoms: C9_9  and  C11_12
REMARK    4  A    between atoms: C10_10  and  O1_11
REMARK    5  A    between atoms: C11_12  and  C12_14
REMARK    6  A    between atoms: C13_15  and  C14_16
REMARK    7  A    between atoms: C17_19  and  O3_22
REMARK                            x       y       z     vdW  Elec       q    Type
REMARK                         _______ _______ _______ _____ _____    ______ ____
ROOT
ATOM      1  C   UNL     1      39.458  21.465  18.893  0.00  0.00    +0.085 C 
ATOM      2  C   UNL     1      40.671  20.541  19.019  0.00  0.00    +0.146 C 
ATOM      3  C   UNL     1      40.760  19.654  17.776  0.00  0.00    +0.036 C 
ATOM      4  C   UNL     1      40.509  19.672  20.238  0.00  0.00    -0.051 C 
ATOM      5  C   UNL     1      41.584  19.221  20.882  0.00  0.00    +0.052 C 
ATOM      6  C   UNL     1      42.916  19.611  20.370  0.00  0.00    -0.177 A 
ATOM      7  C   UNL     1      42.998  20.690  19.476  0.00  0.00    +0.181 A 
ATOM      8  C   UNL     1      44.230  21.083  18.975  0.00  0.00    -0.023 A 
ATOM      9  C   UNL     1      45.375  20.417  19.351  0.00  0.00    +0.122 A 
ATOM     10  C   UNL     1      45.309  19.340  20.243  0.00  0.00    -0.220 A 
ATOM     23  C   UNL     1      44.069  18.933  20.757  0.00  0.00    +0.214 A 
ATOM     26  O   UNL     1      41.856  21.331  19.119  0.00  0.00    -0.300 OA
ENDROOT
BRANCH  10  11
ATOM     11  C   UNL     1      46.541  18.634  20.640  0.00  0.00    +0.426 C 
ATOM     22  O   UNL     1      46.499  17.453  20.932  0.00  0.00    -0.447 OA
BRANCH  11  12
ATOM     12  C   UNL     1      47.813  19.353  20.684  0.00  0.00    -0.102 C 
ATOM     13  C   UNL     1      48.568  19.458  19.567  0.00  0.00    +0.125 C 
BRANCH  13  14
ATOM     14  C   UNL     1      49.846  20.180  19.609  0.00  0.00    -0.092 A 
ATOM     15  C   UNL     1      50.454  20.461  20.840  0.00  0.00    +0.052 A 
ATOM     16  C   UNL     1      51.655  21.133  20.873  0.00  0.00    -0.015 A 
ATOM     17  C   UNL     1      52.258  21.544  19.690  0.00  0.00    +0.121 A 
ATOM     20  C   UNL     1      51.656  21.272  18.466  0.00  0.00    -0.014 A 
ATOM     21  C   UNL     1      50.458  20.596  18.421  0.00  0.00    +0.060 A 
BRANCH  17  18
ATOM     18  O   UNL     1      53.440  22.211  19.729  0.00  0.00    -0.499 OA
ATOM     19  H   UNL     1      54.215  21.641  19.633  0.00  0.00    +0.395 HD
ENDBRANCH  17  18
ENDBRANCH  13  14
ENDBRANCH  11  12
ENDBRANCH  10  11
BRANCH  23  24
ATOM     24  O   UNL     1      43.994  17.892  21.622  0.00  0.00    -0.473 OA
ATOM     25  H   UNL     1      43.906  18.155  22.548  0.00  0.00    +0.399 HD
ENDBRANCH  23  24
TORSDOF 5
ENDMDL
MODEL 5
REMARK VINA RESULT:      -6.2      4.419      8.522
REMARK  Name = ZINC14557836
REMARK  7 active torsions:
REMARK  status: ('A' for Active; 'I' for Inactive)
REMARK    1  A    between atoms: C1_1  and  C2_2
REMARK    2  A    between atoms: C2_2  and  C20_24
REMARK    3  A    between atoms: C9_9  and  C11_12
REMARK    4  A    between atoms: C10_10  and  O1_11
REMARK    5  A    between atoms: C11_12  and  C12_14
REMARK    6  A    between atoms: C13_15  and  C14_16
REMARK    7  A    between atoms: C17_19  and  O3_22
REMARK                            x       y       z     vdW  Elec       q    Type
REMARK                         _______ _______ _______ _____ _____    ______ ____
ROOT
ATOM      1  C   UNL     1      47.821  11.895  15.355  0.00  0.00    +0.085 C 
ATOM      2  C   UNL     1      47.653  12.824  16.559  0.00  0.00    +0.146 C 
ATOM      3  C   UNL     1      49.023  13.084  17.191  0.00  0.00    +0.036 C 
ATOM      4  C   UNL     1      46.756  12.166  17.573  0.00  0.00    -0.051 C 
ATOM      5  C   UNL     1      46.015  12.912  18.391  0.00  0.00    +0.052 C 
ATOM      6  C   UNL     1      46.098  14.383  18.256  0.00  0.00    -0.177 A 
ATOM      7  C   UNL     1      46.655  14.916  17.084  0.00  0.00    +0.181 A 
ATOM      8  C   UNL     1      46.749  16.290  16.923  0.00  0.00    -0.023 A 
ATOM      9  C   UNL     1      46.297  17.135  17.912  0.00  0.00    +0.122 A 
ATOM     10  C   UNL     1      45.738  16.619  19.087  0.00  0.00    -0.220 A 
ATOM     23  C   UNL     1      45.637  15.230  19.260  0.00  0.00    +0.214 A 
ATOM     26  O   UNL     1      47.094  14.063  16.123  0.00  0.00    -0.300 OA
ENDROOT
BRANCH  10  11
ATOM     11  C   UNL     1      45.256  17.532  20.139  0.00  0.00    +0.426 C 
ATOM     22  O   UNL     1      45.928  17.720  21.137  0.00  0.00    -0.447 OA
BRANCH  11  12
ATOM     12  C   UNL     1      43.971  18.212  19.984  0.00  0.00    -0.102 C 
ATOM     13  C   UNL     1      43.913  19.413  19.367  0.00  0.00    +0.125 C 
BRANCH  13  14
ATOM     14  C   UNL     1      42.623  20.097  19.210  0.00  0.00    -0.092 A 
ATOM     15  C   UNL     1      42.586  21.466  18.916  0.00  0.00    +0.052 A 
ATOM     16  C   UNL     1      41.374  22.102  18.763  0.00  0.00    -0.015 A 
ATOM     17  C   UNL     1      40.189  21.391  18.914  0.00  0.00    +0.121 A 
ATOM     20  C   UNL     1      40.221  20.032  19.211  0.00  0.00    -0.014 A 
ATOM     21  C   UNL     1      41.427  19.386  19.359  0.00  0.00    +0.060 A 
BRANCH  17  18
ATOM     18  O   UNL     1      38.997  22.023  18.768  0.00  0.00    -0.499 OA
ATOM     19  H   UNL     1      38.572  21.867  17.913  0.00  0.00    +0.395 HD
ENDBRANCH  17  18
ENDBRANCH  13  14
ENDBRANCH  11  12
ENDBRANCH  10  11
BRANCH  23  24
ATOM     24  O   UNL     1      45.096  14.719  20.394  0.00  0.00    -0.473 OA
ATOM     25  H   UNL     1      44.130  14.668  20.381  0.00  0.00    +0.399 HD
ENDBRANCH  23  24
TORSDOF 5
ENDMDL
MODEL 6
REMARK VINA RESULT:      -6.0      1.722      8.017
REMARK  Name = ZINC14557836
REMARK  7 active torsions:
REMARK  status: ('A' for Active; 'I' for Inactive)
REMARK    1  A    between atoms: C1_1  and  C2_2
REMARK    2  A    between atoms: C2_2  and  C20_24
REMARK    3  A    between atoms: C9_9  and  C11_12
REMARK    4  A    between atoms: C10_10  and  O1_11
REMARK    5  A    between atoms: C11_12  and  C12_14
REMARK    6  A    between atoms: C13_15  and  C14_16
REMARK    7  A    between atoms: C17_19  and  O3_22
REMARK                            x       y       z     vdW  Elec       q    Type
REMARK                         _______ _______ _______ _____ _____    ______ ____
ROOT
ATOM      1  C   UNL     1      52.517  20.075  18.341  0.00  0.00    +0.085 C 
ATOM      2  C   UNL     1      51.062  20.105  18.812  0.00  0.00    +0.146 C 
ATOM      3  C   UNL     1      50.297  21.168  18.021  0.00  0.00    +0.036 C 
ATOM      4  C   UNL     1      51.021  20.452  20.277  0.00  0.00    -0.051 C 
ATOM      5  C   UNL     1      50.021  20.013  21.038  0.00  0.00    +0.052 C 
ATOM      6  C   UNL     1      48.980  19.176  20.402  0.00  0.00    -0.177 A 
ATOM      7  C   UNL     1      49.257  18.598  19.154  0.00  0.00    +0.181 A 
ATOM      8  C   UNL     1      48.304  17.808  18.528  0.00  0.00    -0.023 A 
ATOM      9  C   UNL     1      47.084  17.589  19.128  0.00  0.00    +0.122 A 
ATOM     10  C   UNL     1      46.793  18.158  20.373  0.00  0.00    -0.220 A 
ATOM     23  C   UNL     1      47.749  18.958  21.016  0.00  0.00    +0.214 A 
ATOM     26  O   UNL     1      50.466  18.828  18.582  0.00  0.00    -0.300 OA
ENDROOT
BRANCH  10  11
ATOM     11  C   UNL     1      45.484  17.916  21.008  0.00  0.00    +0.426 C 
ATOM     22  O   UNL     1      45.415  17.260  22.031  0.00  0.00    -0.447 OA
BRANCH  11  12
ATOM     12  C   UNL     1      44.269  18.467  20.409  0.00  0.00    -0.102 C 
ATOM     13  C   UNL     1      44.123  19.806  20.289  0.00  0.00    +0.125 C 
BRANCH  13  14
ATOM     14  C   UNL     1      42.904  20.361  19.687  0.00  0.00    -0.092 A 
ATOM     15  C   UNL     1      41.814  19.525  19.412  0.00  0.00    +0.052 A 
ATOM     16  C   UNL     1      40.671  20.051  18.853  0.00  0.00    -0.015 A 
ATOM     17  C   UNL     1      40.602  21.407  18.551  0.00  0.00    +0.121 A 
ATOM     20  C   UNL     1      41.684  22.240  18.817  0.00  0.00    -0.014 A 
ATOM     21  C   UNL     1      42.829  21.725  19.382  0.00  0.00    +0.060 A 
BRANCH  17  18
ATOM     18  O   UNL     1      39.475  21.920  17.995  0.00  0.00    -0.499 OA
ATOM     19  H   UNL     1      39.642  22.550  17.281  0.00  0.00    +0.395 HD
ENDBRANCH  17  18
ENDBRANCH  13  14
ENDBRANCH  11  12
ENDBRANCH  10  11
BRANCH  23  24
ATOM     24  O   UNL     1      47.478  19.513  22.224  0.00  0.00    -0.473 OA
ATOM     25  H   UNL     1      46.535  19.562  22.432  0.00  0.00    +0.399 HD
ENDBRANCH  23  24
TORSDOF 5
ENDMDL
MODEL 7
REMARK VINA RESULT:      -5.8      2.112      8.405
REMARK  Name = ZINC14557836
REMARK  7 active torsions:
REMARK  status: ('A' for Active; 'I' for Inactive)
REMARK    1  A    between atoms: C1_1  and  C2_2
REMARK    2  A    between atoms: C2_2  and  C20_24
REMARK    3  A    between atoms: C9_9  and  C11_12
REMARK    4  A    between atoms: C10_10  and  O1_11
REMARK    5  A    between atoms: C11_12  and  C12_14
REMARK    6  A    between atoms: C13_15  and  C14_16
REMARK    7  A    between atoms: C17_19  and  O3_22
REMARK                            x       y       z     vdW  Elec       q    Type
REMARK                         _______ _______ _______ _____ _____    ______ ____
ROOT
ATOM      1  C   UNL     1      52.992  21.358  19.196  0.00  0.00    +0.085 C 
ATOM      2  C   UNL     1      51.833  20.387  19.431  0.00  0.00    +0.146 C 
ATOM      3  C   UNL     1      52.100  19.581  20.703  0.00  0.00    +0.036 C 
ATOM      4  C   UNL     1      51.729  19.446  18.260  0.00  0.00    -0.051 C 
ATOM      5  C   UNL     1      50.551  18.917  17.933  0.00  0.00    +0.052 C 
ATOM      6  C   UNL     1      49.371  19.295  18.742  0.00  0.00    -0.177 A 
ATOM      7  C   UNL     1      49.461  20.427  19.566  0.00  0.00    +0.181 A 
ATOM      8  C   UNL     1      48.376  20.810  20.339  0.00  0.00    -0.023 A 
ATOM      9  C   UNL     1      47.207  20.083  20.300  0.00  0.00    +0.122 A 
ATOM     10  C   UNL     1      47.101  18.953  19.482  0.00  0.00    -0.220 A 
ATOM     23  C   UNL     1      48.193  18.555  18.695  0.00  0.00    +0.214 A 
ATOM     26  O   UNL     1      50.623  21.128  19.589  0.00  0.00    -0.300 OA
ENDROOT
BRANCH  10  11
ATOM     11  C   UNL     1      45.845  18.181  19.446  0.00  0.00    +0.426 C 
ATOM     22  O   UNL     1      45.846  17.003  19.752  0.00  0.00    -0.447 OA
BRANCH  11  12
ATOM     12  C   UNL     1      44.599  18.832  19.044  0.00  0.00    -0.102 C 
ATOM     13  C   UNL     1      43.867  19.509  19.956  0.00  0.00    +0.125 C 
BRANCH  13  14
ATOM     14  C   UNL     1      42.615  20.164  19.554  0.00  0.00    -0.092 A 
ATOM     15  C   UNL     1      41.414  19.442  19.553  0.00  0.00    +0.052 A 
ATOM     16  C   UNL     1      40.243  20.062  19.181  0.00  0.00    -0.015 A 
ATOM     17  C   UNL     1      40.251  21.398  18.795  0.00  0.00    +0.121 A 
ATOM     20  C   UNL     1      41.442  22.117  18.789  0.00  0.00    -0.014 A 
ATOM     21  C   UNL     1      42.618  21.509  19.165  0.00  0.00    +0.060 A 
BRANCH  17  18
ATOM     18  O   UNL     1      39.094  22.003  18.424  0.00  0.00    -0.499 OA
ATOM     19  H   UNL     1      39.119  22.385  17.536  0.00  0.00    +0.395 HD
ENDBRANCH  17  18
ENDBRANCH  13  14
ENDBRANCH  11  12
ENDBRANCH  10  11
BRANCH  23  24
ATOM     24  O   UNL     1      48.101  17.462  17.898  0.00  0.00    -0.473 OA
ATOM     25  H   UNL     1      47.253  17.001  17.957  0.00  0.00    +0.399 HD
ENDBRANCH  23  24
TORSDOF 5
ENDMDL
MODEL 8
REMARK VINA RESULT:      -5.6      4.833      6.484
REMARK  Name = ZINC14557836
REMARK  7 active torsions:
REMARK  status: ('A' for Active; 'I' for Inactive)
REMARK    1  A    between atoms: C1_1  and  C2_2
REMARK    2  A    between atoms: C2_2  and  C20_24
REMARK    3  A    between atoms: C9_9  and  C11_12
REMARK    4  A    between atoms: C10_10  and  O1_11
REMARK    5  A    between atoms: C11_12  and  C12_14
REMARK    6  A    between atoms: C13_15  and  C14_16
REMARK    7  A    between atoms: C17_19  and  O3_22
REMARK                            x       y       z     vdW  Elec       q    Type
REMARK                         _______ _______ _______ _____ _____    ______ ____
ROOT
ATOM      1  C   UNL     1      46.926  10.759  17.331  0.00  0.00    +0.085 C 
ATOM      2  C   UNL     1      46.412  12.197  17.237  0.00  0.00    +0.146 C 
ATOM      3  C   UNL     1      44.903  12.179  16.989  0.00  0.00    +0.036 C 
ATOM      4  C   UNL     1      47.095  12.894  16.090  0.00  0.00    -0.051 C 
ATOM      5  C   UNL     1      47.275  14.213  16.124  0.00  0.00    +0.052 C 
ATOM      6  C   UNL     1      46.800  14.949  17.316  0.00  0.00    -0.177 A 
ATOM      7  C   UNL     1      46.511  14.220  18.480  0.00  0.00    +0.181 A 
ATOM      8  C   UNL     1      46.062  14.876  19.616  0.00  0.00    -0.023 A 
ATOM      9  C   UNL     1      45.898  16.244  19.607  0.00  0.00    +0.122 A 
ATOM     10  C   UNL     1      46.183  16.984  18.454  0.00  0.00    -0.220 A 
ATOM     23  C   UNL     1      46.639  16.332  17.299  0.00  0.00    +0.214 A 
ATOM     26  O   UNL     1      46.680  12.873  18.466  0.00  0.00    -0.300 OA
ENDROOT
BRANCH  10  11
ATOM     11  C   UNL     1      46.006  18.448  18.454  0.00  0.00    +0.426 C 
ATOM     22  O   UNL     1      44.893  18.927  18.336  0.00  0.00    -0.447 OA
BRANCH  11  12
ATOM     12  C   UNL     1      47.168  19.325  18.596  0.00  0.00    -0.102 C 
ATOM     13  C   UNL     1      48.274  18.881  19.234  0.00  0.00    +0.125 C 
BRANCH  13  14
ATOM     14  C   UNL     1      49.442  19.760  19.377  0.00  0.00    -0.092 A 
ATOM     15  C   UNL     1      50.041  20.321  18.242  0.00  0.00    +0.052 A 
ATOM     16  C   UNL     1      51.132  21.149  18.382  0.00  0.00    -0.015 A 
ATOM     17  C   UNL     1      51.647  21.418  19.645  0.00  0.00    +0.121 A 
ATOM     20  C   UNL     1      51.058  20.859  20.775  0.00  0.00    -0.014 A 
ATOM     21  C   UNL     1      49.963  20.035  20.647  0.00  0.00    +0.060 A 
BRANCH  17  18
ATOM     18  O   UNL     1      52.726  22.231  19.778  0.00  0.00    -0.499 OA
ATOM     19  H   UNL     1      53.456  21.836  20.274  0.00  0.00    +0.395 HD
ENDBRANCH  17  18
ENDBRANCH  13  14
ENDBRANCH  11  12
ENDBRANCH  10  11
BRANCH  23  24
ATOM     24  O   UNL     1      46.919  17.040  16.177  0.00  0.00    -0.473 OA
ATOM     25  H   UNL     1      47.300  17.913  16.347  0.00  0.00    +0.399 HD
ENDBRANCH  23  24
TORSDOF 5
ENDMDL
MODEL 9
REMARK VINA RESULT:      -5.6      4.401      8.486
REMARK  Name = ZINC14557836
REMARK  7 active torsions:
REMARK  status: ('A' for Active; 'I' for Inactive)
REMARK    1  A    between atoms: C1_1  and  C2_2
REMARK    2  A    between atoms: C2_2  and  C20_24
REMARK    3  A    between atoms: C9_9  and  C11_12
REMARK    4  A    between atoms: C10_10  and  O1_11
REMARK    5  A    between atoms: C11_12  and  C12_14
REMARK    6  A    between atoms: C13_15  and  C14_16
REMARK    7  A    between atoms: C17_19  and  O3_22
REMARK                            x       y       z     vdW  Elec       q    Type
REMARK                         _______ _______ _______ _____ _____    ______ ____
ROOT
ATOM      1  C   UNL     1      47.713  10.747  17.658  0.00  0.00    +0.085 C 
ATOM      2  C   UNL     1      47.320  12.225  17.694  0.00  0.00    +0.146 C 
ATOM      3  C   UNL     1      46.372  12.524  16.532  0.00  0.00    +0.036 C 
ATOM      4  C   UNL     1      48.558  13.071  17.554  0.00  0.00    -0.051 C 
ATOM      5  C   UNL     1      48.599  14.287  18.095  0.00  0.00    +0.052 C 
ATOM      6  C   UNL     1      47.408  14.758  18.836  0.00  0.00    -0.177 A 
ATOM      7  C   UNL     1      46.452  13.812  19.235  0.00  0.00    +0.181 A 
ATOM      8  C   UNL     1      45.323  14.218  19.930  0.00  0.00    -0.023 A 
ATOM      9  C   UNL     1      45.136  15.549  20.231  0.00  0.00    +0.122 A 
ATOM     10  C   UNL     1      46.082  16.504  19.841  0.00  0.00    -0.220 A 
ATOM     23  C   UNL     1      47.228  16.106  19.137  0.00  0.00    +0.214 A 
ATOM     26  O   UNL     1      46.657  12.506  18.927  0.00  0.00    -0.300 OA
ENDROOT
BRANCH  10  11
ATOM     11  C   UNL     1      45.873  17.927  20.168  0.00  0.00    +0.426 C 
ATOM     22  O   UNL     1      46.658  18.506  20.896  0.00  0.00    -0.447 OA
BRANCH  11  12
ATOM     12  C   UNL     1      44.722  18.642  19.617  0.00  0.00    -0.102 C 
ATOM     13  C   UNL     1      43.951  19.403  20.425  0.00  0.00    +0.125 C 
BRANCH  13  14
ATOM     14  C   UNL     1      42.795  20.122  19.873  0.00  0.00    -0.092 A 
ATOM     15  C   UNL     1      41.538  19.504  19.834  0.00  0.00    +0.052 A 
ATOM     16  C   UNL     1      40.456  20.184  19.321  0.00  0.00    -0.015 A 
ATOM     17  C   UNL     1      40.612  21.476  18.832  0.00  0.00    +0.121 A 
ATOM     20  C   UNL     1      41.859  22.092  18.864  0.00  0.00    -0.014 A 
ATOM     21  C   UNL     1      42.946  21.423  19.380  0.00  0.00    +0.060 A 
BRANCH  17  18
ATOM     18  O   UNL     1      39.543  22.141  18.323  0.00  0.00    -0.499 OA
ATOM     19  H   UNL     1      38.776  22.159  18.912  0.00  0.00    +0.395 HD
ENDBRANCH  17  18
ENDBRANCH  13  14
ENDBRANCH  11  12
ENDBRANCH  10  11
BRANCH  23  24
ATOM     24  O   UNL     1      48.151  17.023  18.755  0.00  0.00    -0.473 OA
ATOM     25  H   UNL     1      47.810  17.698  18.153  0.00  0.00    +0.399 HD
ENDBRANCH  23  24
TORSDOF 5
ENDMDL
