MODEL 1
REMARK VINA RESULT:      -7.5      0.000      0.000
REMARK  Name = ZINC95485881
REMARK  8 active torsions:
REMARK  status: ('A' for Active; 'I' for Inactive)
REMARK    1  A    between atoms: C1_1  and  C2_2
REMARK    2  A    between atoms: C5_5  and  C13_15
REMARK    3  A    between atoms: C8_8  and  O2_14
REMARK    4  A    between atoms: C10_10  and  O1_12
REMARK    5  A    between atoms: O1_12  and  C12_13
REMARK    6  A    between atoms: C16_18  and  O3_29
REMARK    7  A    between atoms: C20_22  and  C23_28
REMARK    8  A    between atoms: C21_25  and  C22_27
REMARK                            x       y       z     vdW  Elec       q    Type
REMARK                         _______ _______ _______ _____ _____    ______ ____
ROOT
ATOM      6  C   UNL     1      43.567  18.123  20.710  0.00  0.00    -0.023 A 
ATOM      7  C   UNL     1      43.066  17.693  21.938  0.00  0.00    +0.079 A 
ATOM      8  C   UNL     1      43.548  16.532  22.505  0.00  0.00    +0.013 A 
ATOM      9  C   UNL     1      44.529  15.799  21.855  0.00  0.00    +0.140 A 
ATOM     12  C   UNL     1      45.032  16.223  20.627  0.00  0.00    -0.151 A 
ATOM     13  C   UNL     1      46.099  15.393  19.963  0.00  0.00    +0.238 C 
ATOM     14  C   UNL     1      45.758  13.910  20.123  0.00  0.00    +0.093 C 
ATOM     15  N   UNL     1      46.176  15.707  18.530  0.00  0.00    -0.504 N 
ATOM     16  H   UNL     1      46.957  15.217  18.119  0.00  0.00    +0.431 HD
ATOM     17  H   UNL     1      45.322  15.430  18.069  0.00  0.00    +0.428 HD
ATOM     18  C   UNL     1      46.369  17.157  18.376  0.00  0.00    +0.177 C 
ATOM     19  C   UNL     1      47.473  17.635  19.321  0.00  0.00    +0.088 C 
ATOM     20  C   UNL     1      45.057  17.863  18.720  0.00  0.00    +0.128 C 
ATOM     21  C   UNL     1      44.549  17.375  20.053  0.00  0.00    -0.058 A 
ENDROOT
BRANCH   6   5
ATOM      1  C   UNL     1      46.957  21.844  21.819  0.00  0.00    +0.094 C 
ATOM      2  C   UNL     1      45.659  21.805  21.054  0.00  0.00    -0.018 A 
ATOM      3  C   UNL     1      44.984  20.627  20.940  0.00  0.00    -0.056 A 
ATOM      4  C   UNL     1      43.775  20.579  20.231  0.00  0.00    +0.025 A 
ATOM      5  C   UNL     1      43.052  19.369  20.097  0.00  0.00    -0.093 A 
ATOM     22  C   UNL     1      41.863  19.358  19.391  0.00  0.00    +0.082 A 
ATOM     23  C   UNL     1      41.370  20.520  18.811  0.00  0.00    -0.030 A 
ATOM     24  C   UNL     1      42.051  21.712  18.926  0.00  0.00    +0.169 A 
ATOM     27  C   UNL     1      43.267  21.760  19.638  0.00  0.00    -0.109 A 
ATOM     28  C   UNL     1      43.985  22.964  19.772  0.00  0.00    +0.175 A 
ATOM     31  C   UNL     1      45.167  22.972  20.481  0.00  0.00    -0.101 A 
BRANCH  24  25
ATOM     25  O   UNL     1      41.554  22.839  18.353  0.00  0.00    -0.478 OA
ATOM     26  H   UNL     1      40.996  22.672  17.582  0.00  0.00    +0.398 HD
ENDBRANCH  24  25
BRANCH  28  29
ATOM     29  O   UNL     1      43.515  24.108  19.212  0.00  0.00    -0.292 OA
ATOM     30  C   UNL     1      44.471  24.959  18.576  0.00  0.00    +0.249 C 
ENDBRANCH  28  29
ENDBRANCH   6   5
BRANCH   9  10
ATOM     10  O   UNL     1      45.001  14.656  22.419  0.00  0.00    -0.492 OA
ATOM     11  H   UNL     1      44.397  13.903  22.348  0.00  0.00    +0.400 HD
ENDBRANCH   9  10
TORSDOF 4
ENDMDL
MODEL 2
REMARK VINA RESULT:      -6.8      1.137      1.430
REMARK  Name = ZINC95485881
REMARK  8 active torsions:
REMARK  status: ('A' for Active; 'I' for Inactive)
REMARK    1  A    between atoms: C1_1  and  C2_2
REMARK    2  A    between atoms: C5_5  and  C13_15
REMARK    3  A    between atoms: C8_8  and  O2_14
REMARK    4  A    between atoms: C10_10  and  O1_12
REMARK    5  A    between atoms: O1_12  and  C12_13
REMARK    6  A    between atoms: C16_18  and  O3_29
REMARK    7  A    between atoms: C20_22  and  C23_28
REMARK    8  A    between atoms: C21_25  and  C22_27
REMARK                            x       y       z     vdW  Elec       q    Type
REMARK                         _______ _______ _______ _____ _____    ______ ____
ROOT
ATOM      6  C   UNL     1      44.357  18.177  20.403  0.00  0.00    -0.023 A 
ATOM      7  C   UNL     1      43.866  17.568  21.557  0.00  0.00    +0.079 A 
ATOM      8  C   UNL     1      44.155  16.243  21.807  0.00  0.00    +0.013 A 
ATOM      9  C   UNL     1      44.933  15.523  20.914  0.00  0.00    +0.140 A 
ATOM     12  C   UNL     1      45.426  16.127  19.759  0.00  0.00    -0.151 A 
ATOM     13  C   UNL     1      46.270  15.303  18.822  0.00  0.00    +0.238 C 
ATOM     14  C   UNL     1      45.664  13.903  18.695  0.00  0.00    +0.093 C 
ATOM     15  N   UNL     1      46.309  15.921  17.489  0.00  0.00    -0.504 N 
ATOM     16  H   UNL     1      46.954  15.413  16.902  0.00  0.00    +0.431 HD
ATOM     17  H   UNL     1      45.389  15.907  17.074  0.00  0.00    +0.428 HD
ATOM     18  C   UNL     1      46.764  17.313  17.629  0.00  0.00    +0.177 C 
ATOM     19  C   UNL     1      47.998  17.365  18.532  0.00  0.00    +0.088 C 
ATOM     20  C   UNL     1      45.635  18.133  18.256  0.00  0.00    +0.128 C 
ATOM     21  C   UNL     1      45.134  17.445  19.500  0.00  0.00    -0.058 A 
ENDROOT
BRANCH   6   5
ATOM      1  C   UNL     1      48.231  20.948  22.374  0.00  0.00    +0.094 C 
ATOM      2  C   UNL     1      46.962  21.298  21.640  0.00  0.00    -0.018 A 
ATOM      3  C   UNL     1      46.123  20.301  21.241  0.00  0.00    -0.056 A 
ATOM      4  C   UNL     1      44.939  20.615  20.557  0.00  0.00    +0.025 A 
ATOM      5  C   UNL     1      44.049  19.600  20.131  0.00  0.00    -0.093 A 
ATOM     22  C   UNL     1      42.890  19.945  19.459  0.00  0.00    +0.082 A 
ATOM     23  C   UNL     1      42.590  21.276  19.197  0.00  0.00    -0.030 A 
ATOM     24  C   UNL     1      43.437  22.285  19.601  0.00  0.00    +0.169 A 
ATOM     27  C   UNL     1      44.627  21.969  20.287  0.00  0.00    -0.109 A 
ATOM     28  C   UNL     1      45.513  22.980  20.712  0.00  0.00    +0.175 A 
ATOM     31  C   UNL     1      46.663  22.632  21.385  0.00  0.00    -0.101 A 
BRANCH  24  25
ATOM     25  O   UNL     1      43.128  23.581  19.336  0.00  0.00    -0.478 OA
ATOM     26  H   UNL     1      43.896  24.135  19.141  0.00  0.00    +0.398 HD
ENDBRANCH  24  25
BRANCH  28  29
ATOM     29  O   UNL     1      45.232  24.285  20.464  0.00  0.00    -0.292 OA
ATOM     30  C   UNL     1      46.111  25.257  21.033  0.00  0.00    +0.249 C 
ENDBRANCH  28  29
ENDBRANCH   6   5
BRANCH   9  10
ATOM     10  O   UNL     1      45.216  14.218  21.165  0.00  0.00    -0.492 OA
ATOM     11  H   UNL     1      45.068  13.631  20.411  0.00  0.00    +0.400 HD
ENDBRANCH   9  10
TORSDOF 4
ENDMDL
MODEL 3
REMARK VINA RESULT:      -6.7      2.303      6.929
REMARK  Name = ZINC95485881
REMARK  8 active torsions:
REMARK  status: ('A' for Active; 'I' for Inactive)
REMARK    1  A    between atoms: C1_1  and  C2_2
REMARK    2  A    between atoms: C5_5  and  C13_15
REMARK    3  A    between atoms: C8_8  and  O2_14
REMARK    4  A    between atoms: C10_10  and  O1_12
REMARK    5  A    between atoms: O1_12  and  C12_13
REMARK    6  A    between atoms: C16_18  and  O3_29
REMARK    7  A    between atoms: C20_22  and  C23_28
REMARK    8  A    between atoms: C21_25  and  C22_27
REMARK                            x       y       z     vdW  Elec       q    Type
REMARK                         _______ _______ _______ _____ _____    ______ ____
ROOT
ATOM      6  C   UNL     1      45.659  19.898  19.253  0.00  0.00    -0.023 A 
ATOM      7  C   UNL     1      46.624  20.602  19.972  0.00  0.00    +0.079 A 
ATOM      8  C   UNL     1      46.307  21.823  20.529  0.00  0.00    +0.013 A 
ATOM      9  C   UNL     1      45.032  22.344  20.375  0.00  0.00    +0.140 A 
ATOM     12  C   UNL     1      44.064  21.646  19.658  0.00  0.00    -0.151 A 
ATOM     13  C   UNL     1      42.692  22.254  19.522  0.00  0.00    +0.238 C 
ATOM     14  C   UNL     1      42.829  23.756  19.265  0.00  0.00    +0.093 C 
ATOM     15  N   UNL     1      41.971  21.647  18.395  0.00  0.00    -0.504 N 
ATOM     16  H   UNL     1      41.023  21.992  18.377  0.00  0.00    +0.431 HD
ATOM     17  H   UNL     1      42.431  21.875  17.526  0.00  0.00    +0.428 HD
ATOM     18  C   UNL     1      41.958  20.187  18.576  0.00  0.00    +0.177 C 
ATOM     19  C   UNL     1      41.555  19.847  20.012  0.00  0.00    +0.088 C 
ATOM     20  C   UNL     1      43.363  19.650  18.296  0.00  0.00    +0.128 C 
ATOM     21  C   UNL     1      44.377  20.432  19.092  0.00  0.00    -0.058 A 
ENDROOT
BRANCH   6   5
ATOM      1  C   UNL     1      43.944  16.284  22.505  0.00  0.00    +0.094 C 
ATOM      2  C   UNL     1      44.659  16.245  21.178  0.00  0.00    -0.018 A 
ATOM      3  C   UNL     1      44.982  17.413  20.556  0.00  0.00    -0.056 A 
ATOM      4  C   UNL     1      45.647  17.388  19.322  0.00  0.00    +0.025 A 
ATOM      5  C   UNL     1      45.995  18.586  18.653  0.00  0.00    -0.093 A 
ATOM     22  C   UNL     1      46.651  18.525  17.437  0.00  0.00    +0.082 A 
ATOM     23  C   UNL     1      46.971  17.301  16.864  0.00  0.00    -0.030 A 
ATOM     24  C   UNL     1      46.646  16.118  17.492  0.00  0.00    +0.169 A 
ATOM     27  C   UNL     1      45.977  16.144  18.732  0.00  0.00    -0.109 A 
ATOM     28  C   UNL     1      45.631  14.951  19.398  0.00  0.00    +0.175 A 
ATOM     31  C   UNL     1      44.982  15.017  20.611  0.00  0.00    -0.101 A 
BRANCH  24  25
ATOM     25  O   UNL     1      46.967  14.931  16.917  0.00  0.00    -0.478 OA
ATOM     26  H   UNL     1      47.745  14.970  16.345  0.00  0.00    +0.398 HD
ENDBRANCH  24  25
BRANCH  28  29
ATOM     29  O   UNL     1      45.939  13.748  18.849  0.00  0.00    -0.292 OA
ATOM     30  C   UNL     1      44.858  12.838  18.635  0.00  0.00    +0.249 C 
ENDBRANCH  28  29
ENDBRANCH   6   5
BRANCH   9  10
ATOM     10  O   UNL     1      44.725  23.548  20.927  0.00  0.00    -0.492 OA
ATOM     11  H   UNL     1      45.495  24.060  21.209  0.00  0.00    +0.400 HD
ENDBRANCH   9  10
TORSDOF 4
ENDMDL
MODEL 4
REMARK VINA RESULT:      -6.6      1.842      6.800
REMARK  Name = ZINC95485881
REMARK  8 active torsions:
REMARK  status: ('A' for Active; 'I' for Inactive)
REMARK    1  A    between atoms: C1_1  and  C2_2
REMARK    2  A    between atoms: C5_5  and  C13_15
REMARK    3  A    between atoms: C8_8  and  O2_14
REMARK    4  A    between atoms: C10_10  and  O1_12
REMARK    5  A    between atoms: O1_12  and  C12_13
REMARK    6  A    between atoms: C16_18  and  O3_29
REMARK    7  A    between atoms: C20_22  and  C23_28
REMARK    8  A    between atoms: C21_25  and  C22_27
REMARK                            x       y       z     vdW  Elec       q    Type
REMARK                         _______ _______ _______ _____ _____    ______ ____
ROOT
ATOM      6  C   UNL     1      43.991  19.129  20.398  0.00  0.00    -0.023 A 
ATOM      7  C   UNL     1      42.776  19.459  19.799  0.00  0.00    +0.079 A 
ATOM      8  C   UNL     1      42.550  20.752  19.379  0.00  0.00    +0.013 A 
ATOM      9  C   UNL     1      43.529  21.718  19.550  0.00  0.00    +0.140 A 
ATOM     12  C   UNL     1      44.745  21.395  20.148  0.00  0.00    -0.151 A 
ATOM     13  C   UNL     1      45.777  22.480  20.308  0.00  0.00    +0.238 C 
ATOM     14  C   UNL     1      45.087  23.774  20.744  0.00  0.00    +0.093 C 
ATOM     15  N   UNL     1      46.762  22.104  21.332  0.00  0.00    -0.504 N 
ATOM     16  H   UNL     1      47.500  22.792  21.359  0.00  0.00    +0.431 HD
ATOM     17  H   UNL     1      46.317  22.048  22.236  0.00  0.00    +0.428 HD
ATOM     18  C   UNL     1      47.328  20.792  20.981  0.00  0.00    +0.177 C 
ATOM     19  C   UNL     1      47.721  20.777  19.502  0.00  0.00    +0.088 C 
ATOM     20  C   UNL     1      46.269  19.719  21.243  0.00  0.00    +0.128 C 
ATOM     21  C   UNL     1      44.973  20.109  20.578  0.00  0.00    -0.058 A 
ENDROOT
BRANCH   6   5
ATOM      1  C   UNL     1      46.764  16.827  16.713  0.00  0.00    +0.094 C 
ATOM      2  C   UNL     1      46.214  16.379  18.043  0.00  0.00    -0.018 A 
ATOM      3  C   UNL     1      45.501  17.257  18.802  0.00  0.00    -0.056 A 
ATOM      4  C   UNL     1      44.985  16.851  20.041  0.00  0.00    +0.025 A 
ATOM      5  C   UNL     1      44.239  17.741  20.851  0.00  0.00    -0.093 A 
ATOM     22  C   UNL     1      43.744  17.307  22.068  0.00  0.00    +0.082 A 
ATOM     23  C   UNL     1      43.971  16.008  22.504  0.00  0.00    -0.030 A 
ATOM     24  C   UNL     1      44.692  15.119  21.737  0.00  0.00    +0.169 A 
ATOM     27  C   UNL     1      45.211  15.528  20.492  0.00  0.00    -0.109 A 
ATOM     28  C   UNL     1      45.952  14.641  19.686  0.00  0.00    +0.175 A 
ATOM     31  C   UNL     1      46.439  15.076  18.472  0.00  0.00    -0.101 A 
BRANCH  24  25
ATOM     25  O   UNL     1      44.903  13.853  22.179  0.00  0.00    -0.478 OA
ATOM     26  H   UNL     1      44.247  13.547  22.821  0.00  0.00    +0.398 HD
ENDBRANCH  24  25
BRANCH  28  29
ATOM     29  O   UNL     1      46.180  13.368  20.099  0.00  0.00    -0.292 OA
ATOM     30  C   UNL     1      47.528  12.900  20.040  0.00  0.00    +0.249 C 
ENDBRANCH  28  29
ENDBRANCH   6   5
BRANCH   9  10
ATOM     10  O   UNL     1      43.300  22.992  19.133  0.00  0.00    -0.492 OA
ATOM     11  H   UNL     1      44.100  23.473  18.880  0.00  0.00    +0.400 HD
ENDBRANCH   9  10
TORSDOF 4
ENDMDL
MODEL 5
REMARK VINA RESULT:      -6.2      4.125      7.340
REMARK  Name = ZINC95485881
REMARK  8 active torsions:
REMARK  status: ('A' for Active; 'I' for Inactive)
REMARK    1  A    between atoms: C1_1  and  C2_2
REMARK    2  A    between atoms: C5_5  and  C13_15
REMARK    3  A    between atoms: C8_8  and  O2_14
REMARK    4  A    between atoms: C10_10  and  O1_12
REMARK    5  A    between atoms: O1_12  and  C12_13
REMARK    6  A    between atoms: C16_18  and  O3_29
REMARK    7  A    between atoms: C20_22  and  C23_28
REMARK    8  A    between atoms: C21_25  and  C22_27
REMARK                            x       y       z     vdW  Elec       q    Type
REMARK                         _______ _______ _______ _____ _____    ______ ____
ROOT
ATOM      6  C   UNL     1      47.980  20.679  19.962  0.00  0.00    -0.023 A 
ATOM      7  C   UNL     1      47.921  21.559  21.043  0.00  0.00    +0.079 A 
ATOM      8  C   UNL     1      46.700  21.875  21.601  0.00  0.00    +0.013 A 
ATOM      9  C   UNL     1      45.539  21.318  21.088  0.00  0.00    +0.140 A 
ATOM     12  C   UNL     1      45.592  20.439  20.009  0.00  0.00    -0.151 A 
ATOM     13  C   UNL     1      44.303  19.857  19.492  0.00  0.00    +0.238 C 
ATOM     14  C   UNL     1      43.228  20.946  19.476  0.00  0.00    +0.093 C 
ATOM     15  N   UNL     1      44.480  19.350  18.124  0.00  0.00    -0.504 N 
ATOM     16  H   UNL     1      43.639  18.878  17.828  0.00  0.00    +0.431 HD
ATOM     17  H   UNL     1      44.679  20.115  17.495  0.00  0.00    +0.428 HD
ATOM     18  C   UNL     1      45.605  18.403  18.116  0.00  0.00    +0.177 C 
ATOM     19  C   UNL     1      45.462  17.421  19.281  0.00  0.00    +0.088 C 
ATOM     20  C   UNL     1      46.907  19.191  18.265  0.00  0.00    +0.128 C 
ATOM     21  C   UNL     1      46.806  20.126  19.443  0.00  0.00    -0.058 A 
ENDROOT
BRANCH   6   5
ATOM      1  C   UNL     1      49.577  16.335  22.232  0.00  0.00    +0.094 C 
ATOM      2  C   UNL     1      50.152  17.231  21.166  0.00  0.00    -0.018 A 
ATOM      3  C   UNL     1      49.460  18.338  20.776  0.00  0.00    -0.056 A 
ATOM      4  C   UNL     1      49.987  19.179  19.785  0.00  0.00    +0.025 A 
ATOM      5  C   UNL     1      49.289  20.336  19.361  0.00  0.00    -0.093 A 
ATOM     22  C   UNL     1      49.838  21.144  18.381  0.00  0.00    +0.082 A 
ATOM     23  C   UNL     1      51.064  20.833  17.808  0.00  0.00    -0.030 A 
ATOM     24  C   UNL     1      51.766  19.714  18.201  0.00  0.00    +0.169 A 
ATOM     27  C   UNL     1      51.236  18.868  19.197  0.00  0.00    -0.109 A 
ATOM     28  C   UNL     1      51.931  17.718  19.620  0.00  0.00    +0.175 A 
ATOM     31  C   UNL     1      51.383  16.919  20.599  0.00  0.00    -0.101 A 
BRANCH  24  25
ATOM     25  O   UNL     1      52.964  19.425  17.630  0.00  0.00    -0.478 OA
ATOM     26  H   UNL     1      53.622  19.084  18.251  0.00  0.00    +0.398 HD
ENDBRANCH  24  25
BRANCH  28  29
ATOM     29  O   UNL     1      53.131  17.402  19.069  0.00  0.00    -0.292 OA
ATOM     30  C   UNL     1      53.719  16.161  19.464  0.00  0.00    +0.249 C 
ENDBRANCH  28  29
ENDBRANCH   6   5
BRANCH   9  10
ATOM     10  O   UNL     1      44.338  21.633  21.643  0.00  0.00    -0.492 OA
ATOM     11  H   UNL     1      43.605  21.086  21.329  0.00  0.00    +0.400 HD
ENDBRANCH   9  10
TORSDOF 4
ENDMDL
MODEL 6
REMARK VINA RESULT:      -6.0      3.520      7.462
REMARK  Name = ZINC95485881
REMARK  8 active torsions:
REMARK  status: ('A' for Active; 'I' for Inactive)
REMARK    1  A    between atoms: C1_1  and  C2_2
REMARK    2  A    between atoms: C5_5  and  C13_15
REMARK    3  A    between atoms: C8_8  and  O2_14
REMARK    4  A    between atoms: C10_10  and  O1_12
REMARK    5  A    between atoms: O1_12  and  C12_13
REMARK    6  A    between atoms: C16_18  and  O3_29
REMARK    7  A    between atoms: C20_22  and  C23_28
REMARK    8  A    between atoms: C21_25  and  C22_27
REMARK                            x       y       z     vdW  Elec       q    Type
REMARK                         _______ _______ _______ _____ _____    ______ ____
ROOT
ATOM      6  C   UNL     1      47.820  20.331  20.876  0.00  0.00    -0.023 A 
ATOM      7  C   UNL     1      48.397  21.239  21.763  0.00  0.00    +0.079 A 
ATOM      8  C   UNL     1      47.752  22.425  22.043  0.00  0.00    +0.013 A 
ATOM      9  C   UNL     1      46.534  22.710  21.445  0.00  0.00    +0.140 A 
ATOM     12  C   UNL     1      45.953  21.806  20.558  0.00  0.00    -0.151 A 
ATOM     13  C   UNL     1      44.627  22.160  19.939  0.00  0.00    +0.238 C 
ATOM     14  C   UNL     1      44.628  23.641  19.553  0.00  0.00    +0.093 C 
ATOM     15  N   UNL     1      44.395  21.359  18.729  0.00  0.00    -0.504 N 
ATOM     16  H   UNL     1      43.465  21.536  18.381  0.00  0.00    +0.431 HD
ATOM     17  H   UNL     1      45.073  21.599  18.020  0.00  0.00    +0.428 HD
ATOM     18  C   UNL     1      44.529  19.935  19.075  0.00  0.00    +0.177 C 
ATOM     19  C   UNL     1      43.738  19.637  20.350  0.00  0.00    +0.088 C 
ATOM     20  C   UNL     1      46.009  19.626  19.304  0.00  0.00    +0.128 C 
ATOM     21  C   UNL     1      46.596  20.625  20.268  0.00  0.00    -0.058 A 
ENDROOT
BRANCH   6   5
ATOM      1  C   UNL     1      51.174  21.310  17.086  0.00  0.00    +0.094 C 
ATOM      2  C   UNL     1      50.807  20.073  17.865  0.00  0.00    -0.018 A 
ATOM      3  C   UNL     1      49.850  20.150  18.832  0.00  0.00    -0.056 A 
ATOM      4  C   UNL     1      49.500  19.005  19.562  0.00  0.00    +0.025 A 
ATOM      5  C   UNL     1      48.509  19.056  20.572  0.00  0.00    -0.093 A 
ATOM     22  C   UNL     1      48.189  17.907  21.274  0.00  0.00    +0.082 A 
ATOM     23  C   UNL     1      48.828  16.705  20.999  0.00  0.00    -0.030 A 
ATOM     24  C   UNL     1      49.796  16.626  20.021  0.00  0.00    +0.169 A 
ATOM     27  C   UNL     1      50.148  17.777  19.287  0.00  0.00    -0.109 A 
ATOM     28  C   UNL     1      51.133  17.726  18.282  0.00  0.00    +0.175 A 
ATOM     31  C   UNL     1      51.446  18.871  17.582  0.00  0.00    -0.101 A 
BRANCH  24  25
ATOM     25  O   UNL     1      50.411  15.442  19.766  0.00  0.00    -0.478 OA
ATOM     26  H   UNL     1      50.958  15.120  20.495  0.00  0.00    +0.398 HD
ENDBRANCH  24  25
BRANCH  28  29
ATOM     29  O   UNL     1      51.766  16.558  18.002  0.00  0.00    -0.292 OA
ATOM     30  C   UNL     1      51.713  16.099  16.650  0.00  0.00    +0.249 C 
ENDBRANCH  28  29
ENDBRANCH   6   5
BRANCH   9  10
ATOM     10  O   UNL     1      45.902  23.880  21.726  0.00  0.00    -0.492 OA
ATOM     11  H   UNL     1      45.854  24.085  22.670  0.00  0.00    +0.400 HD
ENDBRANCH   9  10
TORSDOF 4
ENDMDL
MODEL 7
REMARK VINA RESULT:      -5.9      5.179      8.905
REMARK  Name = ZINC95485881
REMARK  8 active torsions:
REMARK  status: ('A' for Active; 'I' for Inactive)
REMARK    1  A    between atoms: C1_1  and  C2_2
REMARK    2  A    between atoms: C5_5  and  C13_15
REMARK    3  A    between atoms: C8_8  and  O2_14
REMARK    4  A    between atoms: C10_10  and  O1_12
REMARK    5  A    between atoms: O1_12  and  C12_13
REMARK    6  A    between atoms: C16_18  and  O3_29
REMARK    7  A    between atoms: C20_22  and  C23_28
REMARK    8  A    between atoms: C21_25  and  C22_27
REMARK                            x       y       z     vdW  Elec       q    Type
REMARK                         _______ _______ _______ _____ _____    ______ ____
ROOT
ATOM      6  C   UNL     1      51.261  17.884  17.767  0.00  0.00    -0.023 A 
ATOM      7  C   UNL     1      51.656  18.780  16.774  0.00  0.00    +0.079 A 
ATOM      8  C   UNL     1      52.235  19.980  17.128  0.00  0.00    +0.013 A 
ATOM      9  C   UNL     1      52.424  20.291  18.465  0.00  0.00    +0.140 A 
ATOM     12  C   UNL     1      52.031  19.400  19.461  0.00  0.00    -0.151 A 
ATOM     13  C   UNL     1      52.262  19.782  20.899  0.00  0.00    +0.238 C 
ATOM     14  C   UNL     1      51.924  21.263  21.089  0.00  0.00    +0.093 C 
ATOM     15  N   UNL     1      51.404  18.986  21.787  0.00  0.00    -0.504 N 
ATOM     16  H   UNL     1      51.639  19.183  22.749  0.00  0.00    +0.431 HD
ATOM     17  H   UNL     1      50.433  19.210  21.622  0.00  0.00    +0.428 HD
ATOM     18  C   UNL     1      51.633  17.560  21.507  0.00  0.00    +0.177 C 
ATOM     19  C   UNL     1      53.136  17.280  21.446  0.00  0.00    +0.088 C 
ATOM     20  C   UNL     1      50.992  17.218  20.161  0.00  0.00    +0.128 C 
ATOM     21  C   UNL     1      51.445  18.205  19.115  0.00  0.00    -0.058 A 
ENDROOT
BRANCH   6   5
ATOM      1  C   UNL     1      46.157  18.599  17.873  0.00  0.00    +0.094 C 
ATOM      2  C   UNL     1      47.042  17.421  17.558  0.00  0.00    -0.018 A 
ATOM      3  C   UNL     1      48.395  17.564  17.623  0.00  0.00    -0.056 A 
ATOM      4  C   UNL     1      49.229  16.474  17.331  0.00  0.00    +0.025 A 
ATOM      5  C   UNL     1      50.638  16.594  17.391  0.00  0.00    -0.093 A 
ATOM     22  C   UNL     1      51.430  15.498  17.098  0.00  0.00    +0.082 A 
ATOM     23  C   UNL     1      50.859  14.283  16.744  0.00  0.00    -0.030 A 
ATOM     24  C   UNL     1      49.490  14.137  16.678  0.00  0.00    +0.169 A 
ATOM     27  C   UNL     1      48.653  15.232  16.970  0.00  0.00    -0.109 A 
ATOM     28  C   UNL     1      47.250  15.113  16.911  0.00  0.00    +0.175 A 
ATOM     31  C   UNL     1      46.465  16.205  17.209  0.00  0.00    -0.101 A 
BRANCH  24  25
ATOM     25  O   UNL     1      48.949  12.941  16.330  0.00  0.00    -0.478 OA
ATOM     26  H   UNL     1      49.411  12.178  16.704  0.00  0.00    +0.398 HD
ENDBRANCH  24  25
BRANCH  28  29
ATOM     29  O   UNL     1      46.678  13.931  16.567  0.00  0.00    -0.292 OA
ATOM     30  C   UNL     1      45.880  13.284  17.560  0.00  0.00    +0.249 C 
ENDBRANCH  28  29
ENDBRANCH   6   5
BRANCH   9  10
ATOM     10  O   UNL     1      52.997  21.476  18.808  0.00  0.00    -0.492 OA
ATOM     11  H   UNL     1      53.290  21.519  19.729  0.00  0.00    +0.400 HD
ENDBRANCH   9  10
TORSDOF 4
ENDMDL
MODEL 8
REMARK VINA RESULT:      -5.6      5.531      7.003
REMARK  Name = ZINC95485881
REMARK  8 active torsions:
REMARK  status: ('A' for Active; 'I' for Inactive)
REMARK    1  A    between atoms: C1_1  and  C2_2
REMARK    2  A    between atoms: C5_5  and  C13_15
REMARK    3  A    between atoms: C8_8  and  O2_14
REMARK    4  A    between atoms: C10_10  and  O1_12
REMARK    5  A    between atoms: O1_12  and  C12_13
REMARK    6  A    between atoms: C16_18  and  O3_29
REMARK    7  A    between atoms: C20_22  and  C23_28
REMARK    8  A    between atoms: C21_25  and  C22_27
REMARK                            x       y       z     vdW  Elec       q    Type
REMARK                         _______ _______ _______ _____ _____    ______ ____
ROOT
ATOM      6  C   UNL     1      48.951  17.027  17.178  0.00  0.00    -0.023 A 
ATOM      7  C   UNL     1      47.625  17.340  16.880  0.00  0.00    +0.079 A 
ATOM      8  C   UNL     1      46.714  16.327  16.670  0.00  0.00    +0.013 A 
ATOM      9  C   UNL     1      47.117  15.003  16.757  0.00  0.00    +0.140 A 
ATOM     12  C   UNL     1      48.440  14.685  17.054  0.00  0.00    -0.151 A 
ATOM     13  C   UNL     1      48.826  13.232  17.141  0.00  0.00    +0.238 C 
ATOM     14  C   UNL     1      48.139  12.457  16.015  0.00  0.00    +0.093 C 
ATOM     15  N   UNL     1      50.281  13.078  16.999  0.00  0.00    -0.504 N 
ATOM     16  H   UNL     1      50.534  12.114  17.157  0.00  0.00    +0.431 HD
ATOM     17  H   UNL     1      50.569  13.357  16.073  0.00  0.00    +0.428 HD
ATOM     18  C   UNL     1      50.944  13.930  17.998  0.00  0.00    +0.177 C 
ATOM     19  C   UNL     1      50.286  13.732  19.365  0.00  0.00    +0.088 C 
ATOM     20  C   UNL     1      50.800  15.390  17.565  0.00  0.00    +0.128 C 
ATOM     21  C   UNL     1      49.355  15.691  17.256  0.00  0.00    -0.058 A 
ENDROOT
BRANCH   6   5
ATOM      1  C   UNL     1      48.149  18.795  21.953  0.00  0.00    +0.094 C 
ATOM      2  C   UNL     1      49.114  19.154  20.853  0.00  0.00    -0.018 A 
ATOM      3  C   UNL     1      49.067  18.475  19.672  0.00  0.00    -0.056 A 
ATOM      4  C   UNL     1      49.960  18.800  18.642  0.00  0.00    +0.025 A 
ATOM      5  C   UNL     1      49.933  18.112  17.405  0.00  0.00    -0.093 A 
ATOM     22  C   UNL     1      50.829  18.459  16.409  0.00  0.00    +0.082 A 
ATOM     23  C   UNL     1      51.756  19.474  16.610  0.00  0.00    -0.030 A 
ATOM     24  C   UNL     1      51.805  20.162  17.803  0.00  0.00    +0.169 A 
ATOM     27  C   UNL     1      50.907  19.834  18.839  0.00  0.00    -0.109 A 
ATOM     28  C   UNL     1      50.934  20.520  20.070  0.00  0.00    +0.175 A 
ATOM     31  C   UNL     1      50.036  20.174  21.056  0.00  0.00    -0.101 A 
BRANCH  24  25
ATOM     25  O   UNL     1      52.717  21.151  17.982  0.00  0.00    -0.478 OA
ATOM     26  H   UNL     1      52.342  21.972  18.329  0.00  0.00    +0.398 HD
ENDBRANCH  24  25
BRANCH  28  29
ATOM     29  O   UNL     1      51.833  21.515  20.279  0.00  0.00    -0.292 OA
ATOM     30  C   UNL     1      52.549  21.492  21.516  0.00  0.00    +0.249 C 
ENDBRANCH  28  29
ENDBRANCH   6   5
BRANCH   9  10
ATOM     10  O   UNL     1      46.214  14.009  16.550  0.00  0.00    -0.492 OA
ATOM     11  H   UNL     1      46.419  13.187  17.018  0.00  0.00    +0.400 HD
ENDBRANCH   9  10
TORSDOF 4
ENDMDL
MODEL 9
REMARK VINA RESULT:      -5.5      2.785      6.853
REMARK  Name = ZINC95485881
REMARK  8 active torsions:
REMARK  status: ('A' for Active; 'I' for Inactive)
REMARK    1  A    between atoms: C1_1  and  C2_2
REMARK    2  A    between atoms: C5_5  and  C13_15
REMARK    3  A    between atoms: C8_8  and  O2_14
REMARK    4  A    between atoms: C10_10  and  O1_12
REMARK    5  A    between atoms: O1_12  and  C12_13
REMARK    6  A    between atoms: C16_18  and  O3_29
REMARK    7  A    between atoms: C20_22  and  C23_28
REMARK    8  A    between atoms: C21_25  and  C22_27
REMARK                            x       y       z     vdW  Elec       q    Type
REMARK                         _______ _______ _______ _____ _____    ______ ____
ROOT
ATOM      6  C   UNL     1      46.005  18.239  20.755  0.00  0.00    -0.023 A 
ATOM      7  C   UNL     1      46.779  18.491  21.887  0.00  0.00    +0.079 A 
ATOM      8  C   UNL     1      46.754  19.741  22.468  0.00  0.00    +0.013 A 
ATOM      9  C   UNL     1      45.959  20.740  21.928  0.00  0.00    +0.140 A 
ATOM     12  C   UNL     1      45.184  20.494  20.797  0.00  0.00    -0.151 A 
ATOM     13  C   UNL     1      44.335  21.612  20.251  0.00  0.00    +0.238 C 
ATOM     14  C   UNL     1      45.126  22.920  20.306  0.00  0.00    +0.093 C 
ATOM     15  N   UNL     1      43.967  21.341  18.854  0.00  0.00    -0.504 N 
ATOM     16  H   UNL     1      43.321  22.047  18.534  0.00  0.00    +0.431 HD
ATOM     17  H   UNL     1      44.792  21.348  18.272  0.00  0.00    +0.428 HD
ATOM     18  C   UNL     1      43.326  20.019  18.784  0.00  0.00    +0.177 C 
ATOM     19  C   UNL     1      42.274  19.895  19.887  0.00  0.00    +0.088 C 
ATOM     20  C   UNL     1      44.400  18.947  18.975  0.00  0.00    +0.128 C 
ATOM     21  C   UNL     1      45.212  19.252  20.208  0.00  0.00    -0.058 A 
ENDROOT
BRANCH   6   5
ATOM      1  C   UNL     1      49.970  18.200  17.460  0.00  0.00    +0.094 C 
ATOM      2  C   UNL     1      48.931  17.184  17.860  0.00  0.00    -0.018 A 
ATOM      3  C   UNL     1      47.990  17.516  18.788  0.00  0.00    -0.056 A 
ATOM      4  C   UNL     1      47.019  16.579  19.166  0.00  0.00    +0.025 A 
ATOM      5  C   UNL     1      46.029  16.897  20.128  0.00  0.00    -0.093 A 
ATOM     22  C   UNL     1      45.086  15.948  20.478  0.00  0.00    +0.082 A 
ATOM     23  C   UNL     1      45.098  14.686  19.898  0.00  0.00    -0.030 A 
ATOM     24  C   UNL     1      46.048  14.348  18.958  0.00  0.00    +0.169 A 
ATOM     27  C   UNL     1      47.025  15.291  18.579  0.00  0.00    -0.109 A 
ATOM     28  C   UNL     1      48.009  14.974  17.621  0.00  0.00    +0.175 A 
ATOM     31  C   UNL     1      48.944  15.924  17.272  0.00  0.00    -0.101 A 
BRANCH  24  25
ATOM     25  O   UNL     1      46.045  13.110  18.401  0.00  0.00    -0.478 OA
ATOM     26  H   UNL     1      46.726  12.520  18.753  0.00  0.00    +0.398 HD
ENDBRANCH  24  25
BRANCH  28  29
ATOM     29  O   UNL     1      48.033  13.745  17.045  0.00  0.00    -0.292 OA
ATOM     30  C   UNL     1      48.914  13.566  15.934  0.00  0.00    +0.249 C 
ENDBRANCH  28  29
ENDBRANCH   6   5
BRANCH   9  10
ATOM     10  O   UNL     1      45.938  21.971  22.505  0.00  0.00    -0.492 OA
ATOM     11  H   UNL     1      46.706  22.519  22.293  0.00  0.00    +0.400 HD
ENDBRANCH   9  10
TORSDOF 4
ENDMDL
