MODEL 1
REMARK VINA RESULT:      -6.5      0.000      0.000
REMARK  Name = ZINC95486161
REMARK  23 active torsions:
REMARK  status: ('A' for Active; 'I' for Inactive)
REMARK    1  A    between atoms: C1_1  and  C2_2
REMARK    2  A    between atoms: C2_2  and  C39_47
REMARK    3  A    between atoms: C3_3  and  C4_4
REMARK    4  A    between atoms: C4_4  and  C5_5
REMARK    5  A    between atoms: C7_8  and  C28_35
REMARK    6  A    between atoms: C9_10  and  C21_24
REMARK    7  A    between atoms: C11_13  and  C16_19
REMARK    8  A    between atoms: C13_16  and  C14_17
REMARK    9  A    between atoms: C13_16  and  C15_18
REMARK   10  A    between atoms: C16_19  and  C17_20
REMARK   11  A    between atoms: C18_21  and  C19_22
REMARK   12  A    between atoms: C18_21  and  C20_23
REMARK   13  A    between atoms: C21_24  and  C22_26
REMARK   14  A    between atoms: C25_29  and  O5_33
REMARK   15  A    between atoms: C26_30  and  O4_32
REMARK   16  A    between atoms: C28_35  and  C29_36
REMARK   17  A    between atoms: C29_36  and  C30_37
REMARK   18  A    between atoms: C30_37  and  C31_39
REMARK   19  A    between atoms: C30_37  and  C36_44
REMARK   20  A    between atoms: C31_39  and  C32_40
REMARK   21  A    between atoms: C33_41  and  C34_42
REMARK   22  A    between atoms: C33_41  and  C35_43
REMARK   23  A    between atoms: C36_44  and  C38_46
REMARK                            x       y       z     vdW  Elec       q    Type
REMARK                         _______ _______ _______ _____ _____    ______ ____
ROOT
ATOM      6  C   UNL     1      48.250  16.063  20.756  0.00  0.00    -0.010 C 
ATOM      7  C   UNL     1      48.195  15.329  19.425  0.00  0.00    +0.085 C 
ATOM      8  C   UNL     1      48.075  16.273  18.231  0.00  0.00    -0.139 C 
ATOM     20  C   UNL     1      46.766  17.031  18.295  0.00  0.00    +0.388 C 
ATOM     21  O   UNL     1      45.909  16.841  17.458  0.00  0.00    -0.400 OA
ATOM     22  C   UNL     1      46.531  18.024  19.410  0.00  0.00    -0.070 C 
ATOM     35  C   UNL     1      47.791  18.817  19.667  0.00  0.00    +0.384 C 
ATOM     36  C   UNL     1      49.143  18.140  19.618  0.00  0.00    -0.124 C 
ATOM     42  O   UNL     1      47.716  20.006  19.911  0.00  0.00    -0.384 OA
ATOM     43  C   UNL     1      49.184  17.308  18.345  0.00  0.00    +0.386 C 
ATOM     44  O   UNL     1      50.026  17.459  17.493  0.00  0.00    -0.393 OA
ATOM     45  C   UNL     1      49.288  17.176  20.799  0.00  0.00    -0.036 C 
ATOM     46  C   UNL     1      50.694  16.562  20.781  0.00  0.00    +0.050 C 
ATOM     47  C   UNL     1      49.124  17.962  22.109  0.00  0.00    +0.046 C 
ENDROOT
BRANCH  22  23
ATOM     23  C   UNL     1      45.435  18.981  18.985  0.00  0.00    +0.416 C 
ATOM     34  O   UNL     1      45.607  19.718  18.037  0.00  0.00    -0.408 OA
BRANCH  23  24
ATOM     24  C   UNL     1      44.164  19.014  19.720  0.00  0.00    -0.152 A 
ATOM     25  C   UNL     1      43.977  18.190  20.837  0.00  0.00    +0.068 A 
ATOM     26  C   UNL     1      42.785  18.224  21.523  0.00  0.00    +0.005 A 
ATOM     27  C   UNL     1      41.765  19.073  21.113  0.00  0.00    +0.119 A 
ATOM     30  C   UNL     1      41.944  19.898  20.002  0.00  0.00    +0.074 A 
ATOM     33  C   UNL     1      43.138  19.874  19.310  0.00  0.00    +0.081 A 
BRANCH  27  28
ATOM     28  O   UNL     1      40.591  19.101  21.794  0.00  0.00    -0.484 OA
ATOM     29  H   UNL     1      40.651  18.751  22.694  0.00  0.00    +0.395 HD
ENDBRANCH  27  28
BRANCH  30  31
ATOM     31  O   UNL     1      40.944  20.727  19.603  0.00  0.00    -0.482 OA
ATOM     32  H   UNL     1      41.054  21.644  19.891  0.00  0.00    +0.391 HD
ENDBRANCH  30  31
ENDBRANCH  23  24
ENDBRANCH  22  23
BRANCH   6   5
ATOM      5  C   UNL     1      48.595  15.042  21.857  0.00  0.00    +0.070 C 
BRANCH   5   4
ATOM      1  C   UNL     1      50.597  13.073  22.106  0.00  0.00    +0.072 C 
ATOM      2  C   UNL     1      49.303  12.750  21.407  0.00  0.00    -0.121 C 
ATOM      3  C   UNL     1      49.102  11.395  20.779  0.00  0.00    +0.072 C 
ATOM      4  C   UNL     1      48.350  13.647  21.344  0.00  0.00    -0.068 C 
ENDBRANCH   5   4
ENDBRANCH   6   5
BRANCH   8   9
ATOM      9  C   UNL     1      48.190  15.502  16.908  0.00  0.00    +0.076 C 
BRANCH   9  10
ATOM     10  C   UNL     1      48.650  14.071  17.191  0.00  0.00    +0.019 C 
BRANCH  10  11
ATOM     11  C   UNL     1      47.777  13.090  16.404  0.00  0.00    +0.034 C 
BRANCH  11  12
ATOM     12  C   UNL     1      46.915  12.306  17.359  0.00  0.00    -0.102 C 
ATOM     13  C   UNL     1      45.764  12.979  18.062  0.00  0.00    +0.071 C 
ATOM     14  C   UNL     1      47.165  11.038  17.577  0.00  0.00    -0.019 C 
ENDBRANCH  11  12
BRANCH  11  15
ATOM     15  C   UNL     1      48.671  12.129  15.617  0.00  0.00    +0.055 C 
BRANCH  15  16
ATOM     16  C   UNL     1      48.666  12.515  14.161  0.00  0.00    -0.052 C 
ATOM     17  C   UNL     1      49.784  12.850  13.568  0.00  0.00    -0.136 C 
ATOM     18  C   UNL     1      49.778  13.244  12.114  0.00  0.00    +0.070 C 
ATOM     19  C   UNL     1      51.078  12.840  14.340  0.00  0.00    +0.070 C 
ENDBRANCH  15  16
ENDBRANCH  11  15
ENDBRANCH  10  11
ENDBRANCH   9  10
ENDBRANCH   8   9
BRANCH  36  37
ATOM     37  C   UNL     1      50.273  19.180  19.622  0.00  0.00    +0.116 C 
BRANCH  37  38
ATOM     38  C   UNL     1      50.245  19.957  18.331  0.00  0.00    -0.075 C 
ATOM     39  C   UNL     1      51.340  20.520  17.882  0.00  0.00    -0.101 C 
ATOM     40  C   UNL     1      51.313  21.289  16.585  0.00  0.00    +0.070 C 
ATOM     41  C   UNL     1      52.624  20.397  18.660  0.00  0.00    +0.075 C 
ENDBRANCH  37  38
ENDBRANCH  36  37
TORSDOF 14
ENDMDL
MODEL 2
REMARK VINA RESULT:      -6.2      2.301      8.435
REMARK  Name = ZINC95486161
REMARK  23 active torsions:
REMARK  status: ('A' for Active; 'I' for Inactive)
REMARK    1  A    between atoms: C1_1  and  C2_2
REMARK    2  A    between atoms: C2_2  and  C39_47
REMARK    3  A    between atoms: C3_3  and  C4_4
REMARK    4  A    between atoms: C4_4  and  C5_5
REMARK    5  A    between atoms: C7_8  and  C28_35
REMARK    6  A    between atoms: C9_10  and  C21_24
REMARK    7  A    between atoms: C11_13  and  C16_19
REMARK    8  A    between atoms: C13_16  and  C14_17
REMARK    9  A    between atoms: C13_16  and  C15_18
REMARK   10  A    between atoms: C16_19  and  C17_20
REMARK   11  A    between atoms: C18_21  and  C19_22
REMARK   12  A    between atoms: C18_21  and  C20_23
REMARK   13  A    between atoms: C21_24  and  C22_26
REMARK   14  A    between atoms: C25_29  and  O5_33
REMARK   15  A    between atoms: C26_30  and  O4_32
REMARK   16  A    between atoms: C28_35  and  C29_36
REMARK   17  A    between atoms: C29_36  and  C30_37
REMARK   18  A    between atoms: C30_37  and  C31_39
REMARK   19  A    between atoms: C30_37  and  C36_44
REMARK   20  A    between atoms: C31_39  and  C32_40
REMARK   21  A    between atoms: C33_41  and  C34_42
REMARK   22  A    between atoms: C33_41  and  C35_43
REMARK   23  A    between atoms: C36_44  and  C38_46
REMARK                            x       y       z     vdW  Elec       q    Type
REMARK                         _______ _______ _______ _____ _____    ______ ____
ROOT
ATOM      6  C   UNL     1      49.891  17.199  18.670  0.00  0.00    -0.010 C 
ATOM      7  C   UNL     1      48.543  17.755  18.239  0.00  0.00    +0.085 C 
ATOM      8  C   UNL     1      47.430  16.710  18.275  0.00  0.00    -0.139 C 
ATOM     20  C   UNL     1      47.718  15.609  17.277  0.00  0.00    +0.388 C 
ATOM     21  O   UNL     1      46.998  15.456  16.312  0.00  0.00    -0.400 OA
ATOM     22  C   UNL     1      48.906  14.700  17.489  0.00  0.00    -0.070 C 
ATOM     35  C   UNL     1      49.028  14.343  18.952  0.00  0.00    +0.384 C 
ATOM     36  C   UNL     1      48.754  15.383  20.016  0.00  0.00    -0.124 C 
ATOM     42  O   UNL     1      49.344  13.213  19.273  0.00  0.00    -0.384 OA
ATOM     43  C   UNL     1      47.445  16.065  19.653  0.00  0.00    +0.386 C 
ATOM     44  O   UNL     1      46.493  16.091  20.395  0.00  0.00    -0.393 OA
ATOM     45  C   UNL     1      49.849  16.452  19.996  0.00  0.00    -0.036 C 
ATOM     46  C   UNL     1      49.602  17.450  21.135  0.00  0.00    +0.050 C 
ATOM     47  C   UNL     1      51.211  15.780  20.234  0.00  0.00    +0.046 C 
ENDROOT
BRANCH  22  23
ATOM     23  C   UNL     1      48.691  13.426  16.696  0.00  0.00    +0.416 C 
ATOM     34  O   UNL     1      47.948  12.566  17.120  0.00  0.00    -0.408 OA
BRANCH  23  24
ATOM     24  C   UNL     1      49.381  13.234  15.413  0.00  0.00    -0.152 A 
ATOM     25  C   UNL     1      48.648  12.918  14.262  0.00  0.00    +0.068 A 
ATOM     26  C   UNL     1      49.297  12.740  13.062  0.00  0.00    +0.005 A 
ATOM     27  C   UNL     1      50.679  12.870  12.988  0.00  0.00    +0.119 A 
ATOM     30  C   UNL     1      51.415  13.185  14.130  0.00  0.00    +0.074 A 
ATOM     33  C   UNL     1      50.772  13.371  15.337  0.00  0.00    +0.081 A 
BRANCH  27  28
ATOM     28  O   UNL     1      51.313  12.691  11.802  0.00  0.00    -0.484 OA
ATOM     29  H   UNL     1      50.715  12.561  11.052  0.00  0.00    +0.395 HD
ENDBRANCH  27  28
BRANCH  30  31
ATOM     31  O   UNL     1      52.767  13.312  14.054  0.00  0.00    -0.482 OA
ATOM     32  H   UNL     1      53.066  13.919  13.364  0.00  0.00    +0.391 HD
ENDBRANCH  30  31
ENDBRANCH  23  24
ENDBRANCH  22  23
BRANCH   6   5
ATOM      5  C   UNL     1      50.876  18.375  18.812  0.00  0.00    +0.070 C 
BRANCH   5   4
ATOM      1  C   UNL     1      51.008  21.001  17.793  0.00  0.00    +0.072 C 
ATOM      2  C   UNL     1      51.548  19.849  16.985  0.00  0.00    -0.121 C 
ATOM      3  C   UNL     1      52.096  20.089  15.603  0.00  0.00    +0.072 C 
ATOM      4  C   UNL     1      51.539  18.638  17.484  0.00  0.00    -0.068 C 
ENDBRANCH   5   4
ENDBRANCH   6   5
BRANCH   8   9
ATOM      9  C   UNL     1      46.064  17.353  17.994  0.00  0.00    +0.076 C 
BRANCH   9  10
ATOM     10  C   UNL     1      46.202  18.876  18.024  0.00  0.00    +0.019 C 
BRANCH  10  11
ATOM     11  C   UNL     1      45.919  19.386  19.439  0.00  0.00    +0.034 C 
BRANCH  11  12
ATOM     12  C   UNL     1      44.433  19.379  19.688  0.00  0.00    -0.102 C 
ATOM     13  C   UNL     1      43.527  20.251  18.858  0.00  0.00    +0.071 C 
ATOM     14  C   UNL     1      43.929  18.615  20.625  0.00  0.00    -0.019 C 
ENDBRANCH  11  12
BRANCH  11  15
ATOM     15  C   UNL     1      46.454  20.812  19.584  0.00  0.00    +0.055 C 
BRANCH  15  16
ATOM     16  C   UNL     1      47.931  20.768  19.873  0.00  0.00    -0.052 C 
ATOM     17  C   UNL     1      48.374  21.058  21.071  0.00  0.00    -0.136 C 
ATOM     18  C   UNL     1      49.853  21.022  21.357  0.00  0.00    +0.070 C 
ATOM     19  C   UNL     1      47.404  21.425  22.164  0.00  0.00    +0.070 C 
ENDBRANCH  15  16
ENDBRANCH  11  15
ENDBRANCH  10  11
ENDBRANCH   9  10
ENDBRANCH   8   9
BRANCH  36  37
ATOM     37  C   UNL     1      48.657  14.729  21.403  0.00  0.00    +0.116 C 
BRANCH  37  38
ATOM     38  C   UNL     1      47.220  14.379  21.694  0.00  0.00    -0.075 C 
ATOM     39  C   UNL     1      46.921  13.211  22.207  0.00  0.00    -0.101 C 
ATOM     40  C   UNL     1      45.484  12.866  22.505  0.00  0.00    +0.070 C 
ATOM     41  C   UNL     1      48.013  12.215  22.499  0.00  0.00    +0.075 C 
ENDBRANCH  37  38
ENDBRANCH  36  37
TORSDOF 14
ENDMDL
MODEL 3
REMARK VINA RESULT:      -6.2      2.714      8.415
REMARK  Name = ZINC95486161
REMARK  23 active torsions:
REMARK  status: ('A' for Active; 'I' for Inactive)
REMARK    1  A    between atoms: C1_1  and  C2_2
REMARK    2  A    between atoms: C2_2  and  C39_47
REMARK    3  A    between atoms: C3_3  and  C4_4
REMARK    4  A    between atoms: C4_4  and  C5_5
REMARK    5  A    between atoms: C7_8  and  C28_35
REMARK    6  A    between atoms: C9_10  and  C21_24
REMARK    7  A    between atoms: C11_13  and  C16_19
REMARK    8  A    between atoms: C13_16  and  C14_17
REMARK    9  A    between atoms: C13_16  and  C15_18
REMARK   10  A    between atoms: C16_19  and  C17_20
REMARK   11  A    between atoms: C18_21  and  C19_22
REMARK   12  A    between atoms: C18_21  and  C20_23
REMARK   13  A    between atoms: C21_24  and  C22_26
REMARK   14  A    between atoms: C25_29  and  O5_33
REMARK   15  A    between atoms: C26_30  and  O4_32
REMARK   16  A    between atoms: C28_35  and  C29_36
REMARK   17  A    between atoms: C29_36  and  C30_37
REMARK   18  A    between atoms: C30_37  and  C31_39
REMARK   19  A    between atoms: C30_37  and  C36_44
REMARK   20  A    between atoms: C31_39  and  C32_40
REMARK   21  A    between atoms: C33_41  and  C34_42
REMARK   22  A    between atoms: C33_41  and  C35_43
REMARK   23  A    between atoms: C36_44  and  C38_46
REMARK                            x       y       z     vdW  Elec       q    Type
REMARK                         _______ _______ _______ _____ _____    ______ ____
ROOT
ATOM      6  C   UNL     1      49.928  17.008  18.373  0.00  0.00    -0.010 C 
ATOM      7  C   UNL     1      48.414  17.148  18.388  0.00  0.00    +0.085 C 
ATOM      8  C   UNL     1      47.695  15.807  18.519  0.00  0.00    -0.139 C 
ATOM     20  C   UNL     1      47.980  14.943  17.308  0.00  0.00    +0.388 C 
ATOM     21  O   UNL     1      47.087  14.657  16.538  0.00  0.00    -0.400 OA
ATOM     22  C   UNL     1      49.383  14.439  17.064  0.00  0.00    -0.070 C 
ATOM     35  C   UNL     1      50.013  14.013  18.369  0.00  0.00    +0.384 C 
ATOM     36  C   UNL     1      49.777  14.816  19.629  0.00  0.00    -0.124 C 
ATOM     42  O   UNL     1      50.709  13.016  18.405  0.00  0.00    -0.384 OA
ATOM     43  C   UNL     1      48.282  15.082  19.720  0.00  0.00    +0.386 C 
ATOM     44  O   UNL     1      47.614  14.742  20.667  0.00  0.00    -0.393 OA
ATOM     45  C   UNL     1      50.477  16.174  19.522  0.00  0.00    -0.036 C 
ATOM     46  C   UNL     1      50.298  16.940  20.840  0.00  0.00    +0.050 C 
ATOM     47  C   UNL     1      51.980  15.945  19.299  0.00  0.00    +0.046 C 
ENDROOT
BRANCH  22  23
ATOM     23  C   UNL     1      49.314  13.237  16.144  0.00  0.00    +0.416 C 
ATOM     34  O   UNL     1      48.658  12.267  16.461  0.00  0.00    -0.408 OA
BRANCH  23  24
ATOM     24  C   UNL     1      50.040  13.246  14.866  0.00  0.00    -0.152 A 
ATOM     25  C   UNL     1      51.426  13.444  14.848  0.00  0.00    +0.068 A 
ATOM     26  C   UNL     1      52.103  13.452  13.651  0.00  0.00    +0.005 A 
ATOM     27  C   UNL     1      51.417  13.265  12.457  0.00  0.00    +0.119 A 
ATOM     30  C   UNL     1      50.036  13.066  12.467  0.00  0.00    +0.074 A 
ATOM     33  C   UNL     1      49.349  13.051  13.665  0.00  0.00    +0.081 A 
BRANCH  27  28
ATOM     28  O   UNL     1      52.090  13.275  11.280  0.00  0.00    -0.484 OA
ATOM     29  H   UNL     1      52.337  14.159  10.976  0.00  0.00    +0.395 HD
ENDBRANCH  27  28
BRANCH  30  31
ATOM     31  O   UNL     1      49.367  12.883  11.298  0.00  0.00    -0.482 OA
ATOM     32  H   UNL     1      48.658  12.228  11.349  0.00  0.00    +0.391 HD
ENDBRANCH  30  31
ENDBRANCH  23  24
ENDBRANCH  22  23
BRANCH   6   5
ATOM      5  C   UNL     1      50.544  18.417  18.466  0.00  0.00    +0.070 C 
BRANCH   5   4
ATOM      1  C   UNL     1      51.285  21.082  17.921  0.00  0.00    +0.072 C 
ATOM      2  C   UNL     1      51.489  20.014  16.879  0.00  0.00    -0.121 C 
ATOM      3  C   UNL     1      52.025  20.379  15.519  0.00  0.00    +0.072 C 
ATOM      4  C   UNL     1      51.199  18.766  17.154  0.00  0.00    -0.068 C 
ENDBRANCH   5   4
ENDBRANCH   6   5
BRANCH   8   9
ATOM      9  C   UNL     1      46.183  16.010  18.696  0.00  0.00    +0.076 C 
BRANCH   9  10
ATOM     10  C   UNL     1      45.891  17.494  18.923  0.00  0.00    +0.019 C 
BRANCH  10  11
ATOM     11  C   UNL     1      45.823  17.775  20.426  0.00  0.00    +0.034 C 
BRANCH  11  12
ATOM     12  C   UNL     1      44.509  17.280  20.972  0.00  0.00    -0.102 C 
ATOM     13  C   UNL     1      44.455  15.991  21.753  0.00  0.00    +0.071 C 
ATOM     14  C   UNL     1      43.414  17.969  20.769  0.00  0.00    -0.019 C 
ENDBRANCH  11  12
BRANCH  11  15
ATOM     15  C   UNL     1      45.940  19.281  20.670  0.00  0.00    +0.055 C 
BRANCH  15  16
ATOM     16  C   UNL     1      47.293  19.593  21.255  0.00  0.00    -0.052 C 
ATOM     17  C   UNL     1      48.155  20.303  20.571  0.00  0.00    -0.136 C 
ATOM     18  C   UNL     1      49.511  20.608  21.154  0.00  0.00    +0.070 C 
ATOM     19  C   UNL     1      47.790  20.817  19.203  0.00  0.00    +0.070 C 
ENDBRANCH  15  16
ENDBRANCH  11  15
ENDBRANCH  10  11
ENDBRANCH   9  10
ENDBRANCH   8   9
BRANCH  36  37
ATOM     37  C   UNL     1      50.266  14.046  20.865  0.00  0.00    +0.116 C 
BRANCH  37  38
ATOM     38  C   UNL     1      49.525  12.738  20.968  0.00  0.00    -0.075 C 
ATOM     39  C   UNL     1      50.117  11.689  21.482  0.00  0.00    -0.101 C 
ATOM     40  C   UNL     1      49.371  10.383  21.593  0.00  0.00    +0.070 C 
ATOM     41  C   UNL     1      51.542  11.787  21.962  0.00  0.00    +0.075 C 
ENDBRANCH  37  38
ENDBRANCH  36  37
TORSDOF 14
ENDMDL
MODEL 4
REMARK VINA RESULT:      -6.0      3.474      8.446
REMARK  Name = ZINC95486161
REMARK  23 active torsions:
REMARK  status: ('A' for Active; 'I' for Inactive)
REMARK    1  A    between atoms: C1_1  and  C2_2
REMARK    2  A    between atoms: C2_2  and  C39_47
REMARK    3  A    between atoms: C3_3  and  C4_4
REMARK    4  A    between atoms: C4_4  and  C5_5
REMARK    5  A    between atoms: C7_8  and  C28_35
REMARK    6  A    between atoms: C9_10  and  C21_24
REMARK    7  A    between atoms: C11_13  and  C16_19
REMARK    8  A    between atoms: C13_16  and  C14_17
REMARK    9  A    between atoms: C13_16  and  C15_18
REMARK   10  A    between atoms: C16_19  and  C17_20
REMARK   11  A    between atoms: C18_21  and  C19_22
REMARK   12  A    between atoms: C18_21  and  C20_23
REMARK   13  A    between atoms: C21_24  and  C22_26
REMARK   14  A    between atoms: C25_29  and  O5_33
REMARK   15  A    between atoms: C26_30  and  O4_32
REMARK   16  A    between atoms: C28_35  and  C29_36
REMARK   17  A    between atoms: C29_36  and  C30_37
REMARK   18  A    between atoms: C30_37  and  C31_39
REMARK   19  A    between atoms: C30_37  and  C36_44
REMARK   20  A    between atoms: C31_39  and  C32_40
REMARK   21  A    between atoms: C33_41  and  C34_42
REMARK   22  A    between atoms: C33_41  and  C35_43
REMARK   23  A    between atoms: C36_44  and  C38_46
REMARK                            x       y       z     vdW  Elec       q    Type
REMARK                         _______ _______ _______ _____ _____    ______ ____
ROOT
ATOM      6  C   UNL     1      50.195  15.100  20.541  0.00  0.00    -0.010 C 
ATOM      7  C   UNL     1      50.045  16.314  19.638  0.00  0.00    +0.085 C 
ATOM      8  C   UNL     1      49.576  15.952  18.230  0.00  0.00    -0.139 C 
ATOM     20  C   UNL     1      50.615  15.096  17.539  0.00  0.00    +0.388 C 
ATOM     21  O   UNL     1      51.213  15.523  16.573  0.00  0.00    -0.400 OA
ATOM     22  C   UNL     1      50.906  13.707  18.058  0.00  0.00    -0.070 C 
ATOM     35  C   UNL     1      49.618  13.026  18.457  0.00  0.00    +0.384 C 
ATOM     36  C   UNL     1      48.523  13.808  19.149  0.00  0.00    -0.124 C 
ATOM     42  O   UNL     1      49.461  11.845  18.216  0.00  0.00    -0.384 OA
ATOM     43  C   UNL     1      48.325  15.096  18.365  0.00  0.00    +0.386 C 
ATOM     44  O   UNL     1      47.264  15.413  17.885  0.00  0.00    -0.393 OA
ATOM     45  C   UNL     1      48.970  14.196  20.561  0.00  0.00    -0.036 C 
ATOM     46  C   UNL     1      47.818  14.914  21.277  0.00  0.00    +0.050 C 
ATOM     47  C   UNL     1      49.304  12.920  21.349  0.00  0.00    +0.046 C 
ENDROOT
BRANCH  22  23
ATOM     23  C   UNL     1      51.558  12.901  16.952  0.00  0.00    +0.416 C 
ATOM     34  O   UNL     1      52.529  12.216  17.193  0.00  0.00    -0.408 OA
BRANCH  23  24
ATOM     24  C   UNL     1      51.013  12.950  15.589  0.00  0.00    -0.152 A 
ATOM     25  C   UNL     1      49.660  12.669  15.363  0.00  0.00    +0.068 A 
ATOM     26  C   UNL     1      49.152  12.716  14.085  0.00  0.00    +0.005 A 
ATOM     27  C   UNL     1      49.978  13.041  13.016  0.00  0.00    +0.119 A 
ATOM     30  C   UNL     1      51.327  13.322  13.233  0.00  0.00    +0.074 A 
ATOM     33  C   UNL     1      51.844  13.283  14.513  0.00  0.00    +0.081 A 
BRANCH  27  28
ATOM     28  O   UNL     1      49.471  13.084  11.758  0.00  0.00    -0.484 OA
ATOM     29  H   UNL     1      49.617  12.275  11.248  0.00  0.00    +0.395 HD
ENDBRANCH  27  28
BRANCH  30  31
ATOM     31  O   UNL     1      52.132  13.639  12.184  0.00  0.00    -0.482 OA
ATOM     32  H   UNL     1      52.255  12.919  11.551  0.00  0.00    +0.391 HD
ENDBRANCH  30  31
ENDBRANCH  23  24
ENDBRANCH  22  23
BRANCH   6   5
ATOM      5  C   UNL     1      50.449  15.595  21.978  0.00  0.00    +0.070 C 
BRANCH   5   4
ATOM      1  C   UNL     1      53.216  15.735  22.503  0.00  0.00    +0.072 C 
ATOM      2  C   UNL     1      52.433  16.995  22.235  0.00  0.00    -0.121 C 
ATOM      3  C   UNL     1      53.113  18.337  22.315  0.00  0.00    +0.072 C 
ATOM      4  C   UNL     1      51.160  16.923  21.934  0.00  0.00    -0.068 C 
ENDBRANCH   5   4
ENDBRANCH   6   5
BRANCH   8   9
ATOM      9  C   UNL     1      49.280  17.215  17.408  0.00  0.00    +0.076 C 
BRANCH   9  10
ATOM     10  C   UNL     1      49.514  18.453  18.275  0.00  0.00    +0.019 C 
BRANCH  10  11
ATOM     11  C   UNL     1      50.288  19.500  17.470  0.00  0.00    +0.034 C 
BRANCH  11  12
ATOM     12  C   UNL     1      51.672  18.986  17.174  0.00  0.00    -0.102 C 
ATOM     13  C   UNL     1      52.543  18.480  18.296  0.00  0.00    +0.071 C 
ATOM     14  C   UNL     1      52.119  18.976  15.943  0.00  0.00    -0.019 C 
ENDBRANCH  11  12
BRANCH  11  15
ATOM     15  C   UNL     1      50.387  20.795  18.280  0.00  0.00    +0.055 C 
BRANCH  15  16
ATOM     16  C   UNL     1      49.891  20.552  19.681  0.00  0.00    -0.052 C 
ATOM     17  C   UNL     1      50.664  20.817  20.705  0.00  0.00    -0.136 C 
ATOM     18  C   UNL     1      50.171  20.566  22.106  0.00  0.00    +0.070 C 
ATOM     19  C   UNL     1      52.046  21.375  20.481  0.00  0.00    +0.070 C 
ENDBRANCH  15  16
ENDBRANCH  11  15
ENDBRANCH  10  11
ENDBRANCH   9  10
ENDBRANCH   8   9
BRANCH  36  37
ATOM     37  C   UNL     1      47.220  12.996  19.194  0.00  0.00    +0.116 C 
BRANCH  37  38
ATOM     38  C   UNL     1      47.083  12.196  17.924  0.00  0.00    -0.075 C 
ATOM     39  C   UNL     1      45.904  12.036  17.375  0.00  0.00    -0.101 C 
ATOM     40  C   UNL     1      45.769  11.242  16.101  0.00  0.00    +0.070 C 
ATOM     41  C   UNL     1      44.685  12.646  18.017  0.00  0.00    +0.075 C 
ENDBRANCH  37  38
ENDBRANCH  36  37
TORSDOF 14
ENDMDL
MODEL 5
REMARK VINA RESULT:      -5.9      2.592      8.675
REMARK  Name = ZINC95486161
REMARK  23 active torsions:
REMARK  status: ('A' for Active; 'I' for Inactive)
REMARK    1  A    between atoms: C1_1  and  C2_2
REMARK    2  A    between atoms: C2_2  and  C39_47
REMARK    3  A    between atoms: C3_3  and  C4_4
REMARK    4  A    between atoms: C4_4  and  C5_5
REMARK    5  A    between atoms: C7_8  and  C28_35
REMARK    6  A    between atoms: C9_10  and  C21_24
REMARK    7  A    between atoms: C11_13  and  C16_19
REMARK    8  A    between atoms: C13_16  and  C14_17
REMARK    9  A    between atoms: C13_16  and  C15_18
REMARK   10  A    between atoms: C16_19  and  C17_20
REMARK   11  A    between atoms: C18_21  and  C19_22
REMARK   12  A    between atoms: C18_21  and  C20_23
REMARK   13  A    between atoms: C21_24  and  C22_26
REMARK   14  A    between atoms: C25_29  and  O5_33
REMARK   15  A    between atoms: C26_30  and  O4_32
REMARK   16  A    between atoms: C28_35  and  C29_36
REMARK   17  A    between atoms: C29_36  and  C30_37
REMARK   18  A    between atoms: C30_37  and  C31_39
REMARK   19  A    between atoms: C30_37  and  C36_44
REMARK   20  A    between atoms: C31_39  and  C32_40
REMARK   21  A    between atoms: C33_41  and  C34_42
REMARK   22  A    between atoms: C33_41  and  C35_43
REMARK   23  A    between atoms: C36_44  and  C38_46
REMARK                            x       y       z     vdW  Elec       q    Type
REMARK                         _______ _______ _______ _____ _____    ______ ____
ROOT
ATOM      6  C   UNL     1      49.686  17.066  18.466  0.00  0.00    -0.010 C 
ATOM      7  C   UNL     1      48.171  17.189  18.460  0.00  0.00    +0.085 C 
ATOM      8  C   UNL     1      47.466  15.841  18.594  0.00  0.00    -0.139 C 
ATOM     20  C   UNL     1      47.776  14.970  17.396  0.00  0.00    +0.388 C 
ATOM     21  O   UNL     1      46.896  14.667  16.617  0.00  0.00    -0.400 OA
ATOM     22  C   UNL     1      49.188  14.480  17.173  0.00  0.00    -0.070 C 
ATOM     35  C   UNL     1      49.805  14.072  18.490  0.00  0.00    +0.384 C 
ATOM     36  C   UNL     1      49.544  14.884  19.740  0.00  0.00    -0.124 C 
ATOM     42  O   UNL     1      50.512  13.084  18.545  0.00  0.00    -0.384 OA
ATOM     43  C   UNL     1      48.045  15.133  19.810  0.00  0.00    +0.386 C 
ATOM     44  O   UNL     1      47.369  14.795  20.751  0.00  0.00    -0.393 OA
ATOM     45  C   UNL     1      50.230  16.248  19.630  0.00  0.00    -0.036 C 
ATOM     46  C   UNL     1      50.026  17.024  20.938  0.00  0.00    +0.050 C 
ATOM     47  C   UNL     1      51.739  16.035  19.428  0.00  0.00    +0.046 C 
ENDROOT
BRANCH  22  23
ATOM     23  C   UNL     1      49.144  13.268  16.263  0.00  0.00    +0.416 C 
ATOM     34  O   UNL     1      48.484  12.299  16.575  0.00  0.00    -0.408 OA
BRANCH  23  24
ATOM     24  C   UNL     1      49.900  13.268  15.004  0.00  0.00    -0.152 A 
ATOM     25  C   UNL     1      51.288  13.446  15.019  0.00  0.00    +0.068 A 
ATOM     26  C   UNL     1      51.994  13.445  13.837  0.00  0.00    +0.005 A 
ATOM     27  C   UNL     1      51.333  13.267  12.628  0.00  0.00    +0.119 A 
ATOM     30  C   UNL     1      49.949  13.088  12.605  0.00  0.00    +0.074 A 
ATOM     33  C   UNL     1      49.234  13.083  13.786  0.00  0.00    +0.081 A 
BRANCH  27  28
ATOM     28  O   UNL     1      52.034  13.268  11.466  0.00  0.00    -0.484 OA
ATOM     29  H   UNL     1      51.646  13.821  10.774  0.00  0.00    +0.395 HD
ENDBRANCH  27  28
BRANCH  30  31
ATOM     31  O   UNL     1      49.306  12.916  11.420  0.00  0.00    -0.482 OA
ATOM     32  H   UNL     1      49.898  12.823  10.661  0.00  0.00    +0.391 HD
ENDBRANCH  30  31
ENDBRANCH  23  24
ENDBRANCH  22  23
BRANCH   6   5
ATOM      5  C   UNL     1      50.286  18.483  18.554  0.00  0.00    +0.070 C 
BRANCH   5   4
ATOM      1  C   UNL     1      51.042  21.125  17.925  0.00  0.00    +0.072 C 
ATOM      2  C   UNL     1      51.399  19.996  16.994  0.00  0.00    -0.121 C 
ATOM      3  C   UNL     1      52.101  20.284  15.692  0.00  0.00    +0.072 C 
ATOM      4  C   UNL     1      51.099  18.762  17.316  0.00  0.00    -0.068 C 
ENDBRANCH   5   4
ENDBRANCH   6   5
BRANCH   8   9
ATOM      9  C   UNL     1      45.949  16.028  18.750  0.00  0.00    +0.076 C 
BRANCH   9  10
ATOM     10  C   UNL     1      45.669  16.946  19.942  0.00  0.00    +0.019 C 
BRANCH  10  11
ATOM     11  C   UNL     1      44.946  18.205  19.457  0.00  0.00    +0.034 C 
BRANCH  11  12
ATOM     12  C   UNL     1      45.803  19.413  19.729  0.00  0.00    -0.102 C 
ATOM     13  C   UNL     1      46.192  20.331  18.599  0.00  0.00    +0.071 C 
ATOM     14  C   UNL     1      46.209  19.668  20.949  0.00  0.00    -0.019 C 
ENDBRANCH  11  12
BRANCH  11  15
ATOM     15  C   UNL     1      43.615  18.346  20.198  0.00  0.00    +0.055 C 
BRANCH  15  16
ATOM     16  C   UNL     1      42.744  19.344  19.481  0.00  0.00    -0.052 C 
ATOM     17  C   UNL     1      41.539  19.601  19.927  0.00  0.00    -0.136 C 
ATOM     18  C   UNL     1      40.664  20.594  19.205  0.00  0.00    +0.070 C 
ATOM     19  C   UNL     1      41.028  18.906  21.162  0.00  0.00    +0.070 C 
ENDBRANCH  15  16
ENDBRANCH  11  15
ENDBRANCH  10  11
ENDBRANCH   9  10
ENDBRANCH   8   9
BRANCH  36  37
ATOM     37  C   UNL     1      50.026  14.131  20.989  0.00  0.00    +0.116 C 
BRANCH  37  38
ATOM     38  C   UNL     1      49.404  12.759  21.019  0.00  0.00    -0.075 C 
ATOM     39  C   UNL     1      50.068  11.750  21.528  0.00  0.00    -0.101 C 
ATOM     40  C   UNL     1      49.442  10.379  21.566  0.00  0.00    +0.070 C 
ATOM     41  C   UNL     1      51.457  11.961  22.074  0.00  0.00    +0.075 C 
ENDBRANCH  37  38
ENDBRANCH  36  37
TORSDOF 14
ENDMDL
MODEL 6
REMARK VINA RESULT:      -5.9      1.002      2.069
REMARK  Name = ZINC95486161
REMARK  23 active torsions:
REMARK  status: ('A' for Active; 'I' for Inactive)
REMARK    1  A    between atoms: C1_1  and  C2_2
REMARK    2  A    between atoms: C2_2  and  C39_47
REMARK    3  A    between atoms: C3_3  and  C4_4
REMARK    4  A    between atoms: C4_4  and  C5_5
REMARK    5  A    between atoms: C7_8  and  C28_35
REMARK    6  A    between atoms: C9_10  and  C21_24
REMARK    7  A    between atoms: C11_13  and  C16_19
REMARK    8  A    between atoms: C13_16  and  C14_17
REMARK    9  A    between atoms: C13_16  and  C15_18
REMARK   10  A    between atoms: C16_19  and  C17_20
REMARK   11  A    between atoms: C18_21  and  C19_22
REMARK   12  A    between atoms: C18_21  and  C20_23
REMARK   13  A    between atoms: C21_24  and  C22_26
REMARK   14  A    between atoms: C25_29  and  O5_33
REMARK   15  A    between atoms: C26_30  and  O4_32
REMARK   16  A    between atoms: C28_35  and  C29_36
REMARK   17  A    between atoms: C29_36  and  C30_37
REMARK   18  A    between atoms: C30_37  and  C31_39
REMARK   19  A    between atoms: C30_37  and  C36_44
REMARK   20  A    between atoms: C31_39  and  C32_40
REMARK   21  A    between atoms: C33_41  and  C34_42
REMARK   22  A    between atoms: C33_41  and  C35_43
REMARK   23  A    between atoms: C36_44  and  C38_46
REMARK                            x       y       z     vdW  Elec       q    Type
REMARK                         _______ _______ _______ _____ _____    ______ ____
ROOT
ATOM      6  C   UNL     1      48.826  15.769  20.819  0.00  0.00    -0.010 C 
ATOM      7  C   UNL     1      48.914  14.959  19.536  0.00  0.00    +0.085 C 
ATOM      8  C   UNL     1      48.745  15.815  18.282  0.00  0.00    -0.139 C 
ATOM     20  C   UNL     1      47.358  16.421  18.249  0.00  0.00    +0.388 C 
ATOM     21  O   UNL     1      46.566  16.088  17.391  0.00  0.00    -0.400 OA
ATOM     22  C   UNL     1      46.963  17.442  19.290  0.00  0.00    -0.070 C 
ATOM     35  C   UNL     1      48.114  18.387  19.548  0.00  0.00    +0.384 C 
ATOM     36  C   UNL     1      49.533  17.866  19.593  0.00  0.00    -0.124 C 
ATOM     42  O   UNL     1      47.896  19.571  19.715  0.00  0.00    -0.384 OA
ATOM     43  C   UNL     1      49.725  16.974  18.376  0.00  0.00    +0.386 C 
ATOM     44  O   UNL     1      50.583  17.171  17.550  0.00  0.00    -0.393 OA
ATOM     45  C   UNL     1      49.731  16.993  20.835  0.00  0.00    -0.036 C 
ATOM     46  C   UNL     1      51.196  16.543  20.910  0.00  0.00    +0.050 C 
ATOM     47  C   UNL     1      49.420  17.827  22.088  0.00  0.00    +0.046 C 
ENDROOT
BRANCH  22  23
ATOM     23  C   UNL     1      45.788  18.242  18.765  0.00  0.00    +0.416 C 
ATOM     34  O   UNL     1      45.813  18.688  17.637  0.00  0.00    -0.408 OA
BRANCH  23  24
ATOM     24  C   UNL     1      44.618  18.478  19.621  0.00  0.00    -0.152 A 
ATOM     25  C   UNL     1      44.389  17.662  20.737  0.00  0.00    +0.068 A 
ATOM     26  C   UNL     1      43.293  17.886  21.538  0.00  0.00    +0.005 A 
ATOM     27  C   UNL     1      42.410  18.917  21.244  0.00  0.00    +0.119 A 
ATOM     30  C   UNL     1      42.632  19.734  20.135  0.00  0.00    +0.074 A 
ATOM     33  C   UNL     1      43.732  19.521  19.329  0.00  0.00    +0.081 A 
BRANCH  27  28
ATOM     28  O   UNL     1      41.330  19.131  22.037  0.00  0.00    -0.484 OA
ATOM     29  H   UNL     1      41.309  20.009  22.443  0.00  0.00    +0.395 HD
ENDBRANCH  27  28
BRANCH  30  31
ATOM     31  O   UNL     1      41.766  20.743  19.850  0.00  0.00    -0.482 OA
ATOM     32  H   UNL     1      40.849  20.553  20.090  0.00  0.00    +0.391 HD
ENDBRANCH  30  31
ENDBRANCH  23  24
ENDBRANCH  22  23
BRANCH   6   5
ATOM      5  C   UNL     1      49.231  14.857  21.994  0.00  0.00    +0.070 C 
BRANCH   5   4
ATOM      1  C   UNL     1      51.477  13.230  22.504  0.00  0.00    +0.072 C 
ATOM      2  C   UNL     1      50.311  12.685  21.721  0.00  0.00    -0.121 C 
ATOM      3  C   UNL     1      50.371  11.292  21.150  0.00  0.00    +0.072 C 
ATOM      4  C   UNL     1      49.244  13.422  21.536  0.00  0.00    -0.068 C 
ENDBRANCH   5   4
ENDBRANCH   6   5
BRANCH   8   9
ATOM      9  C   UNL     1      49.005  14.988  17.014  0.00  0.00    +0.076 C 
BRANCH   9  10
ATOM     10  C   UNL     1      49.801  13.734  17.378  0.00  0.00    +0.019 C 
BRANCH  10  11
ATOM     11  C   UNL     1      49.190  12.520  16.673  0.00  0.00    +0.034 C 
BRANCH  11  12
ATOM     12  C   UNL     1      50.240  11.852  15.824  0.00  0.00    -0.102 C 
ATOM     13  C   UNL     1      50.796  12.561  14.616  0.00  0.00    +0.071 C 
ATOM     14  C   UNL     1      50.670  10.654  16.136  0.00  0.00    -0.019 C 
ENDBRANCH  11  12
BRANCH  11  15
ATOM     15  C   UNL     1      48.031  12.977  15.785  0.00  0.00    +0.055 C 
BRANCH  15  16
ATOM     16  C   UNL     1      47.225  11.779  15.354  0.00  0.00    -0.052 C 
ATOM     17  C   UNL     1      46.111  11.481  15.975  0.00  0.00    -0.136 C 
ATOM     18  C   UNL     1      45.310  10.277  15.550  0.00  0.00    +0.070 C 
ATOM     19  C   UNL     1      45.630  12.341  17.114  0.00  0.00    +0.070 C 
ENDBRANCH  15  16
ENDBRANCH  11  15
ENDBRANCH  10  11
ENDBRANCH   9  10
ENDBRANCH   8   9
BRANCH  36  37
ATOM     37  C   UNL     1      50.539  19.026  19.578  0.00  0.00    +0.116 C 
BRANCH  37  38
ATOM     38  C   UNL     1      50.464  19.739  18.251  0.00  0.00    -0.075 C 
ATOM     39  C   UNL     1      51.436  20.535  17.880  0.00  0.00    -0.101 C 
ATOM     40  C   UNL     1      51.364  21.241  16.550  0.00  0.00    +0.070 C 
ATOM     41  C   UNL     1      52.624  20.746  18.782  0.00  0.00    +0.075 C 
ENDBRANCH  37  38
ENDBRANCH  36  37
TORSDOF 14
ENDMDL
MODEL 7
REMARK VINA RESULT:      -5.8      2.225      8.522
REMARK  Name = ZINC95486161
REMARK  23 active torsions:
REMARK  status: ('A' for Active; 'I' for Inactive)
REMARK    1  A    between atoms: C1_1  and  C2_2
REMARK    2  A    between atoms: C2_2  and  C39_47
REMARK    3  A    between atoms: C3_3  and  C4_4
REMARK    4  A    between atoms: C4_4  and  C5_5
REMARK    5  A    between atoms: C7_8  and  C28_35
REMARK    6  A    between atoms: C9_10  and  C21_24
REMARK    7  A    between atoms: C11_13  and  C16_19
REMARK    8  A    between atoms: C13_16  and  C14_17
REMARK    9  A    between atoms: C13_16  and  C15_18
REMARK   10  A    between atoms: C16_19  and  C17_20
REMARK   11  A    between atoms: C18_21  and  C19_22
REMARK   12  A    between atoms: C18_21  and  C20_23
REMARK   13  A    between atoms: C21_24  and  C22_26
REMARK   14  A    between atoms: C25_29  and  O5_33
REMARK   15  A    between atoms: C26_30  and  O4_32
REMARK   16  A    between atoms: C28_35  and  C29_36
REMARK   17  A    between atoms: C29_36  and  C30_37
REMARK   18  A    between atoms: C30_37  and  C31_39
REMARK   19  A    between atoms: C30_37  and  C36_44
REMARK   20  A    between atoms: C31_39  and  C32_40
REMARK   21  A    between atoms: C33_41  and  C34_42
REMARK   22  A    between atoms: C33_41  and  C35_43
REMARK   23  A    between atoms: C36_44  and  C38_46
REMARK                            x       y       z     vdW  Elec       q    Type
REMARK                         _______ _______ _______ _____ _____    ______ ____
ROOT
ATOM      6  C   UNL     1      50.055  17.354  18.882  0.00  0.00    -0.010 C 
ATOM      7  C   UNL     1      48.891  18.234  18.454  0.00  0.00    +0.085 C 
ATOM      8  C   UNL     1      47.555  17.494  18.455  0.00  0.00    -0.139 C 
ATOM     20  C   UNL     1      47.578  16.378  17.432  0.00  0.00    +0.388 C 
ATOM     21  O   UNL     1      46.857  16.429  16.457  0.00  0.00    -0.400 OA
ATOM     22  C   UNL     1      48.504  15.201  17.630  0.00  0.00    -0.070 C 
ATOM     35  C   UNL     1      48.514  14.792  19.084  0.00  0.00    +0.384 C 
ATOM     36  C   UNL     1      48.489  15.842  20.172  0.00  0.00    -0.124 C 
ATOM     42  O   UNL     1      48.538  13.612  19.379  0.00  0.00    -0.384 OA
ATOM     43  C   UNL     1      47.392  16.834  19.816  0.00  0.00    +0.386 C 
ATOM     44  O   UNL     1      46.465  17.076  20.551  0.00  0.00    -0.393 OA
ATOM     45  C   UNL     1      49.813  16.610  20.189  0.00  0.00    -0.036 C 
ATOM     46  C   UNL     1      49.802  17.613  21.351  0.00  0.00    +0.050 C 
ATOM     47  C   UNL     1      50.964  15.619  20.420  0.00  0.00    +0.046 C 
ENDROOT
BRANCH  22  23
ATOM     23  C   UNL     1      47.994  14.037  16.803  0.00  0.00    +0.416 C 
ATOM     34  O   UNL     1      46.838  13.683  16.903  0.00  0.00    -0.408 OA
BRANCH  23  24
ATOM     24  C   UNL     1      48.899  13.339  15.881  0.00  0.00    -0.152 A 
ATOM     25  C   UNL     1      48.439  12.925  14.625  0.00  0.00    +0.068 A 
ATOM     26  C   UNL     1      49.290  12.272  13.763  0.00  0.00    +0.005 A 
ATOM     27  C   UNL     1      50.605  12.020  14.134  0.00  0.00    +0.119 A 
ATOM     30  C   UNL     1      51.071  12.430  15.384  0.00  0.00    +0.074 A 
ATOM     33  C   UNL     1      50.226  13.091  16.253  0.00  0.00    +0.081 A 
BRANCH  27  28
ATOM     28  O   UNL     1      51.438  11.374  13.280  0.00  0.00    -0.484 OA
ATOM     29  H   UNL     1      51.411  11.711  12.374  0.00  0.00    +0.395 HD
ENDBRANCH  27  28
BRANCH  30  31
ATOM     31  O   UNL     1      52.358  12.182  15.744  0.00  0.00    -0.482 OA
ATOM     32  H   UNL     1      52.446  11.601  16.512  0.00  0.00    +0.391 HD
ENDBRANCH  30  31
ENDBRANCH  23  24
ENDBRANCH  22  23
BRANCH   6   5
ATOM      5  C   UNL     1      51.297  18.248  19.062  0.00  0.00    +0.070 C 
BRANCH   5   4
ATOM      1  C   UNL     1      51.558  21.034  18.715  0.00  0.00    +0.072 C 
ATOM      2  C   UNL     1      51.774  20.104  17.550  0.00  0.00    -0.121 C 
ATOM      3  C   UNL     1      52.064  20.665  16.181  0.00  0.00    +0.072 C 
ATOM      4  C   UNL     1      51.711  18.808  17.725  0.00  0.00    -0.068 C 
ENDBRANCH   5   4
ENDBRANCH   6   5
BRANCH   8   9
ATOM      9  C   UNL     1      46.393  18.459  18.179  0.00  0.00    +0.076 C 
BRANCH   9  10
ATOM     10  C   UNL     1      46.748  19.848  18.710  0.00  0.00    +0.019 C 
BRANCH  10  11
ATOM     11  C   UNL     1      45.465  20.660  18.910  0.00  0.00    +0.034 C 
BRANCH  11  12
ATOM     12  C   UNL     1      45.424  21.197  20.317  0.00  0.00    -0.102 C 
ATOM     13  C   UNL     1      46.193  20.503  21.411  0.00  0.00    +0.071 C 
ATOM     14  C   UNL     1      44.720  22.268  20.588  0.00  0.00    -0.019 C 
ENDBRANCH  11  12
BRANCH  11  15
ATOM     15  C   UNL     1      44.250  19.761  18.671  0.00  0.00    +0.055 C 
BRANCH  15  16
ATOM     16  C   UNL     1      43.717  19.274  19.993  0.00  0.00    -0.052 C 
ATOM     17  C   UNL     1      42.429  19.298  20.229  0.00  0.00    -0.136 C 
ATOM     18  C   UNL     1      41.897  18.819  21.555  0.00  0.00    +0.070 C 
ATOM     19  C   UNL     1      41.479  19.805  19.175  0.00  0.00    +0.070 C 
ENDBRANCH  15  16
ENDBRANCH  11  15
ENDBRANCH  10  11
ENDBRANCH   9  10
ENDBRANCH   8   9
BRANCH  36  37
ATOM     37  C   UNL     1      48.214  15.201  21.541  0.00  0.00    +0.116 C 
BRANCH  37  38
ATOM     38  C   UNL     1      46.778  14.749  21.605  0.00  0.00    -0.075 C 
ATOM     39  C   UNL     1      46.487  13.554  22.057  0.00  0.00    -0.101 C 
ATOM     40  C   UNL     1      45.049  13.106  22.129  0.00  0.00    +0.070 C 
ATOM     41  C   UNL     1      47.589  12.629  22.505  0.00  0.00    +0.075 C 
ENDBRANCH  37  38
ENDBRANCH  36  37
TORSDOF 14
ENDMDL
MODEL 8
REMARK VINA RESULT:      -5.7      3.444      8.000
REMARK  Name = ZINC95486161
REMARK  23 active torsions:
REMARK  status: ('A' for Active; 'I' for Inactive)
REMARK    1  A    between atoms: C1_1  and  C2_2
REMARK    2  A    between atoms: C2_2  and  C39_47
REMARK    3  A    between atoms: C3_3  and  C4_4
REMARK    4  A    between atoms: C4_4  and  C5_5
REMARK    5  A    between atoms: C7_8  and  C28_35
REMARK    6  A    between atoms: C9_10  and  C21_24
REMARK    7  A    between atoms: C11_13  and  C16_19
REMARK    8  A    between atoms: C13_16  and  C14_17
REMARK    9  A    between atoms: C13_16  and  C15_18
REMARK   10  A    between atoms: C16_19  and  C17_20
REMARK   11  A    between atoms: C18_21  and  C19_22
REMARK   12  A    between atoms: C18_21  and  C20_23
REMARK   13  A    between atoms: C21_24  and  C22_26
REMARK   14  A    between atoms: C25_29  and  O5_33
REMARK   15  A    between atoms: C26_30  and  O4_32
REMARK   16  A    between atoms: C28_35  and  C29_36
REMARK   17  A    between atoms: C29_36  and  C30_37
REMARK   18  A    between atoms: C30_37  and  C31_39
REMARK   19  A    between atoms: C30_37  and  C36_44
REMARK   20  A    between atoms: C31_39  and  C32_40
REMARK   21  A    between atoms: C33_41  and  C34_42
REMARK   22  A    between atoms: C33_41  and  C35_43
REMARK   23  A    between atoms: C36_44  and  C38_46
REMARK                            x       y       z     vdW  Elec       q    Type
REMARK                         _______ _______ _______ _____ _____    ______ ____
ROOT
ATOM      6  C   UNL     1      50.044  16.551  18.961  0.00  0.00    -0.010 C 
ATOM      7  C   UNL     1      48.945  15.936  19.814  0.00  0.00    +0.085 C 
ATOM      8  C   UNL     1      49.193  14.463  20.131  0.00  0.00    -0.139 C 
ATOM     20  C   UNL     1      49.179  13.647  18.856  0.00  0.00    +0.388 C 
ATOM     21  O   UNL     1      48.303  12.830  18.664  0.00  0.00    -0.400 OA
ATOM     22  C   UNL     1      50.262  13.855  17.823  0.00  0.00    -0.070 C 
ATOM     35  C   UNL     1      51.598  14.030  18.505  0.00  0.00    +0.384 C 
ATOM     36  C   UNL     1      51.703  14.828  19.787  0.00  0.00    -0.124 C 
ATOM     42  O   UNL     1      52.593  13.523  18.023  0.00  0.00    -0.384 OA
ATOM     43  C   UNL     1      50.595  14.344  20.710  0.00  0.00    +0.386 C 
ATOM     44  O   UNL     1      50.810  13.898  21.811  0.00  0.00    -0.393 OA
ATOM     45  C   UNL     1      51.446  16.310  19.502  0.00  0.00    -0.036 C 
ATOM     46  C   UNL     1      51.639  17.114  20.795  0.00  0.00    +0.050 C 
ATOM     47  C   UNL     1      52.471  16.806  18.471  0.00  0.00    +0.046 C 
ENDROOT
BRANCH  22  23
ATOM     23  C   UNL     1      50.329  12.628  16.935  0.00  0.00    +0.416 C 
ATOM     34  O   UNL     1      50.548  11.539  17.421  0.00  0.00    -0.408 OA
BRANCH  23  24
ATOM     24  C   UNL     1      50.127  12.759  15.486  0.00  0.00    -0.152 A 
ATOM     25  C   UNL     1      51.230  12.841  14.628  0.00  0.00    +0.068 A 
ATOM     26  C   UNL     1      51.038  12.962  13.271  0.00  0.00    +0.005 A 
ATOM     27  C   UNL     1      49.751  13.005  12.748  0.00  0.00    +0.119 A 
ATOM     30  C   UNL     1      48.647  12.922  13.596  0.00  0.00    +0.074 A 
ATOM     33  C   UNL     1      48.831  12.795  14.958  0.00  0.00    +0.081 A 
BRANCH  27  28
ATOM     28  O   UNL     1      49.568  13.126  11.409  0.00  0.00    -0.484 OA
ATOM     29  H   UNL     1      50.164  12.578  10.879  0.00  0.00    +0.395 HD
ENDBRANCH  27  28
BRANCH  30  31
ATOM     31  O   UNL     1      47.390  12.964  13.081  0.00  0.00    -0.482 OA
ATOM     32  H   UNL     1      46.795  12.291  13.439  0.00  0.00    +0.391 HD
ENDBRANCH  30  31
ENDBRANCH  23  24
ENDBRANCH  22  23
BRANCH   6   5
ATOM      5  C   UNL     1      49.810  18.072  18.894  0.00  0.00    +0.070 C 
BRANCH   5   4
ATOM      1  C   UNL     1      48.531  20.441  19.731  0.00  0.00    +0.072 C 
ATOM      2  C   UNL     1      47.772  19.417  18.929  0.00  0.00    -0.121 C 
ATOM      3  C   UNL     1      46.310  19.624  18.631  0.00  0.00    +0.072 C 
ATOM      4  C   UNL     1      48.384  18.344  18.490  0.00  0.00    -0.068 C 
ENDBRANCH   5   4
ENDBRANCH   6   5
BRANCH   8   9
ATOM      9  C   UNL     1      48.151  13.933  21.126  0.00  0.00    +0.076 C 
BRANCH   9  10
ATOM     10  C   UNL     1      47.165  15.049  21.475  0.00  0.00    +0.019 C 
BRANCH  10  11
ATOM     11  C   UNL     1      45.734  14.548  21.270  0.00  0.00    +0.034 C 
BRANCH  11  12
ATOM     12  C   UNL     1      45.447  14.433  19.796  0.00  0.00    -0.102 C 
ATOM     13  C   UNL     1      45.701  15.608  18.885  0.00  0.00    +0.071 C 
ATOM     14  C   UNL     1      44.978  13.313  19.304  0.00  0.00    -0.019 C 
ENDBRANCH  11  12
BRANCH  11  15
ATOM     15  C   UNL     1      44.752  15.534  21.905  0.00  0.00    +0.055 C 
BRANCH  15  16
ATOM     16  C   UNL     1      45.485  16.787  22.305  0.00  0.00    -0.052 C 
ATOM     17  C   UNL     1      45.070  17.954  21.879  0.00  0.00    -0.136 C 
ATOM     18  C   UNL     1      45.809  19.207  22.272  0.00  0.00    +0.070 C 
ATOM     19  C   UNL     1      43.852  18.044  20.996  0.00  0.00    +0.070 C 
ENDBRANCH  15  16
ENDBRANCH  11  15
ENDBRANCH  10  11
ENDBRANCH   9  10
ENDBRANCH   8   9
BRANCH  36  37
ATOM     37  C   UNL     1      53.078  14.629  20.441  0.00  0.00    +0.116 C 
BRANCH  37  38
ATOM     38  C   UNL     1      53.275  13.169  20.762  0.00  0.00    -0.075 C 
ATOM     39  C   UNL     1      54.436  12.602  20.546  0.00  0.00    -0.101 C 
ATOM     40  C   UNL     1      54.635  11.145  20.876  0.00  0.00    +0.070 C 
ATOM     41  C   UNL     1      55.572  13.407  19.969  0.00  0.00    +0.075 C 
ENDBRANCH  37  38
ENDBRANCH  36  37
TORSDOF 14
ENDMDL
MODEL 9
REMARK VINA RESULT:      -5.7      3.478      7.677
REMARK  Name = ZINC95486161
REMARK  23 active torsions:
REMARK  status: ('A' for Active; 'I' for Inactive)
REMARK    1  A    between atoms: C1_1  and  C2_2
REMARK    2  A    between atoms: C2_2  and  C39_47
REMARK    3  A    between atoms: C3_3  and  C4_4
REMARK    4  A    between atoms: C4_4  and  C5_5
REMARK    5  A    between atoms: C7_8  and  C28_35
REMARK    6  A    between atoms: C9_10  and  C21_24
REMARK    7  A    between atoms: C11_13  and  C16_19
REMARK    8  A    between atoms: C13_16  and  C14_17
REMARK    9  A    between atoms: C13_16  and  C15_18
REMARK   10  A    between atoms: C16_19  and  C17_20
REMARK   11  A    between atoms: C18_21  and  C19_22
REMARK   12  A    between atoms: C18_21  and  C20_23
REMARK   13  A    between atoms: C21_24  and  C22_26
REMARK   14  A    between atoms: C25_29  and  O5_33
REMARK   15  A    between atoms: C26_30  and  O4_32
REMARK   16  A    between atoms: C28_35  and  C29_36
REMARK   17  A    between atoms: C29_36  and  C30_37
REMARK   18  A    between atoms: C30_37  and  C31_39
REMARK   19  A    between atoms: C30_37  and  C36_44
REMARK   20  A    between atoms: C31_39  and  C32_40
REMARK   21  A    between atoms: C33_41  and  C34_42
REMARK   22  A    between atoms: C33_41  and  C35_43
REMARK   23  A    between atoms: C36_44  and  C38_46
REMARK                            x       y       z     vdW  Elec       q    Type
REMARK                         _______ _______ _______ _____ _____    ______ ____
ROOT
ATOM      6  C   UNL     1      50.529  16.473  18.901  0.00  0.00    -0.010 C 
ATOM      7  C   UNL     1      49.231  16.042  19.567  0.00  0.00    +0.085 C 
ATOM      8  C   UNL     1      49.189  14.547  19.873  0.00  0.00    -0.139 C 
ATOM     20  C   UNL     1      49.232  13.751  18.586  0.00  0.00    +0.388 C 
ATOM     21  O   UNL     1      48.273  13.090  18.245  0.00  0.00    -0.400 OA
ATOM     22  C   UNL     1      50.475  13.784  17.728  0.00  0.00    -0.070 C 
ATOM     35  C   UNL     1      51.706  13.734  18.601  0.00  0.00    +0.384 C 
ATOM     36  C   UNL     1      51.747  14.497  19.907  0.00  0.00    -0.124 C 
ATOM     42  O   UNL     1      52.666  13.073  18.253  0.00  0.00    -0.384 OA
ATOM     43  C   UNL     1      50.452  14.196  20.645  0.00  0.00    +0.386 C 
ATOM     44  O   UNL     1      50.427  13.715  21.752  0.00  0.00    -0.393 OA
ATOM     45  C   UNL     1      51.778  16.002  19.632  0.00  0.00    -0.036 C 
ATOM     46  C   UNL     1      51.905  16.757  20.962  0.00  0.00    +0.050 C 
ATOM     47  C   UNL     1      53.011  16.330  18.775  0.00  0.00    +0.046 C 
ENDROOT
BRANCH  22  23
ATOM     23  C   UNL     1      50.473  12.568  16.823  0.00  0.00    +0.416 C 
ATOM     34  O   UNL     1      50.654  11.463  17.291  0.00  0.00    -0.408 OA
BRANCH  23  24
ATOM     24  C   UNL     1      50.251  12.726  15.379  0.00  0.00    -0.152 A 
ATOM     25  C   UNL     1      51.343  12.822  14.508  0.00  0.00    +0.068 A 
ATOM     26  C   UNL     1      51.133  12.969  13.156  0.00  0.00    +0.005 A 
ATOM     27  C   UNL     1      49.839  13.026  12.652  0.00  0.00    +0.119 A 
ATOM     30  C   UNL     1      48.746  12.931  13.514  0.00  0.00    +0.074 A 
ATOM     33  C   UNL     1      48.948  12.777  14.870  0.00  0.00    +0.081 A 
BRANCH  27  28
ATOM     28  O   UNL     1      49.638  13.173  11.318  0.00  0.00    -0.484 OA
ATOM     29  H   UNL     1      48.723  13.029  11.040  0.00  0.00    +0.395 HD
ENDBRANCH  27  28
BRANCH  30  31
ATOM     31  O   UNL     1      47.482  12.987  13.017  0.00  0.00    -0.482 OA
ATOM     32  H   UNL     1      47.253  12.244  12.442  0.00  0.00    +0.391 HD
ENDBRANCH  30  31
ENDBRANCH  23  24
ENDBRANCH  22  23
BRANCH   6   5
ATOM      5  C   UNL     1      50.556  18.012  18.846  0.00  0.00    +0.070 C 
BRANCH   5   4
ATOM      1  C   UNL     1      52.529  19.918  18.194  0.00  0.00    +0.072 C 
ATOM      2  C   UNL     1      51.608  19.389  17.125  0.00  0.00    -0.121 C 
ATOM      3  C   UNL     1      51.694  19.928  15.721  0.00  0.00    +0.072 C 
ATOM      4  C   UNL     1      50.731  18.461  17.417  0.00  0.00    -0.068 C 
ENDBRANCH   5   4
ENDBRANCH   6   5
BRANCH   8   9
ATOM      9  C   UNL     1      47.939  14.189  20.690  0.00  0.00    +0.076 C 
BRANCH   9  10
ATOM     10  C   UNL     1      47.211  15.471  21.095  0.00  0.00    +0.019 C 
BRANCH  10  11
ATOM     11  C   UNL     1      45.747  15.387  20.653  0.00  0.00    +0.034 C 
BRANCH  11  12
ATOM     12  C   UNL     1      45.281  13.956  20.726  0.00  0.00    -0.102 C 
ATOM     13  C   UNL     1      44.995  13.192  19.459  0.00  0.00    +0.071 C 
ATOM     14  C   UNL     1      45.127  13.376  21.891  0.00  0.00    -0.019 C 
ENDBRANCH  11  12
BRANCH  11  15
ATOM     15  C   UNL     1      45.618  15.892  19.214  0.00  0.00    +0.055 C 
BRANCH  15  16
ATOM     16  C   UNL     1      45.527  17.395  19.215  0.00  0.00    -0.052 C 
ATOM     17  C   UNL     1      46.109  18.087  18.267  0.00  0.00    -0.136 C 
ATOM     18  C   UNL     1      46.025  19.592  18.272  0.00  0.00    +0.070 C 
ATOM     19  C   UNL     1      46.861  17.379  17.170  0.00  0.00    +0.070 C 
ENDBRANCH  15  16
ENDBRANCH  11  15
ENDBRANCH  10  11
ENDBRANCH   9  10
ENDBRANCH   8   9
BRANCH  36  37
ATOM     37  C   UNL     1      52.960  14.071  20.747  0.00  0.00    +0.116 C 
BRANCH  37  38
ATOM     38  C   UNL     1      54.180  13.990  19.865  0.00  0.00    -0.075 C 
ATOM     39  C   UNL     1      55.357  14.303  20.345  0.00  0.00    -0.101 C 
ATOM     40  C   UNL     1      56.578  14.213  19.465  0.00  0.00    +0.070 C 
ATOM     41  C   UNL     1      55.492  14.753  21.777  0.00  0.00    +0.075 C 
ENDBRANCH  37  38
ENDBRANCH  36  37
TORSDOF 14
ENDMDL
