MODEL 1
REMARK VINA RESULT:      -6.6      0.000      0.000
REMARK  Name = ZINC95486083
REMARK  12 active torsions:
REMARK  status: ('A' for Active; 'I' for Inactive)
REMARK    1  A    between atoms: C1_1  and  C2_2
REMARK    2  A    between atoms: C2_2  and  C25_27
REMARK    3  A    between atoms: C3_3  and  C4_4
REMARK    4  A    between atoms: C4_4  and  C5_5
REMARK    5  A    between atoms: C7_7  and  C16_17
REMARK    6  A    between atoms: C9_9  and  C11_12
REMARK    7  A    between atoms: C10_10  and  O1_11
REMARK    8  A    between atoms: C11_12  and  C12_13
REMARK    9  A    between atoms: C13_14  and  C14_15
REMARK   10  A    between atoms: C13_14  and  C15_16
REMARK   11  A    between atoms: C17_18  and  C18_19
REMARK   12  A    between atoms: C18_19  and  C19_21
REMARK                            x       y       z     vdW  Elec       q    Type
REMARK                         _______ _______ _______ _____ _____    ______ ____
ROOT
ATOM      6  C   UNL     1      48.007  17.973  19.559  0.00  0.00    -0.099 A 
ATOM      7  C   UNL     1      46.925  18.798  19.356  0.00  0.00    +0.056 A 
ATOM      8  C   UNL     1      47.122  20.170  19.151  0.00  0.00    -0.090 A 
ATOM     19  C   UNL     1      48.421  20.694  19.156  0.00  0.00    +0.049 A 
ATOM     20  C   UNL     1      49.496  19.859  19.360  0.00  0.00    -0.099 A 
ATOM     26  C   UNL     1      49.294  18.499  19.568  0.00  0.00    +0.129 A 
ENDROOT
BRANCH   8   9
ATOM      9  C   UNL     1      45.970  21.055  18.933  0.00  0.00    +0.144 C 
ATOM     10  C   UNL     1      45.037  21.201  19.902  0.00  0.00    -0.115 C 
BRANCH  10  11
ATOM     11  C   UNL     1      43.926  22.056  19.693  0.00  0.00    +0.425 C 
ATOM     18  O   UNL     1      44.046  23.259  19.844  0.00  0.00    -0.463 OA
BRANCH  11  12
ATOM     12  C   UNL     1      42.621  21.487  19.288  0.00  0.00    -0.162 A 
ATOM     13  C   UNL     1      41.630  22.316  18.761  0.00  0.00    +0.054 A 
ATOM     14  C   UNL     1      40.415  21.781  18.387  0.00  0.00    -0.004 A 
ATOM     15  C   UNL     1      40.179  20.425  18.533  0.00  0.00    +0.037 A 
ATOM     16  C   UNL     1      41.158  19.598  19.055  0.00  0.00    -0.002 A 
ATOM     17  C   UNL     1      42.379  20.120  19.428  0.00  0.00    +0.070 A 
ENDBRANCH  11  12
ENDBRANCH  10  11
ENDBRANCH   8   9
BRANCH  26  27
ATOM     27  O   UNL     1      50.358  17.682  19.774  0.00  0.00    -0.488 OA
ATOM     28  H   UNL     1      51.146  17.927  19.271  0.00  0.00    +0.389 HD
ENDBRANCH  26  27
BRANCH   6   5
ATOM      5  C   UNL     1      47.796  16.497  19.779  0.00  0.00    +0.113 C 
BRANCH   5   4
ATOM      1  C   UNL     1      45.506  14.873  19.513  0.00  0.00    +0.072 C 
ATOM      2  C   UNL     1      45.781  15.583  20.813  0.00  0.00    -0.131 C 
ATOM      3  C   UNL     1      44.797  15.481  21.950  0.00  0.00    +0.073 C 
ATOM      4  C   UNL     1      46.875  16.290  20.954  0.00  0.00    -0.046 C 
ENDBRANCH   5   4
ENDBRANCH   6   5
BRANCH  20  21
ATOM     21  C   UNL     1      50.895  20.421  19.365  0.00  0.00    +0.119 C 
BRANCH  21  22
ATOM     22  C   UNL     1      51.128  21.197  18.095  0.00  0.00    -0.057 C 
ATOM     23  C   UNL     1      51.668  20.608  17.057  0.00  0.00    -0.125 C 
ATOM     24  C   UNL     1      51.777  21.343  15.746  0.00  0.00    +0.074 C 
ATOM     25  C   UNL     1      52.178  19.195  17.174  0.00  0.00    +0.073 C 
ENDBRANCH  21  22
ENDBRANCH  20  21
TORSDOF 8
ENDMDL
MODEL 2
REMARK VINA RESULT:      -6.5      0.613      4.825
REMARK  Name = ZINC95486083
REMARK  12 active torsions:
REMARK  status: ('A' for Active; 'I' for Inactive)
REMARK    1  A    between atoms: C1_1  and  C2_2
REMARK    2  A    between atoms: C2_2  and  C25_27
REMARK    3  A    between atoms: C3_3  and  C4_4
REMARK    4  A    between atoms: C4_4  and  C5_5
REMARK    5  A    between atoms: C7_7  and  C16_17
REMARK    6  A    between atoms: C9_9  and  C11_12
REMARK    7  A    between atoms: C10_10  and  O1_11
REMARK    8  A    between atoms: C11_12  and  C12_13
REMARK    9  A    between atoms: C13_14  and  C14_15
REMARK   10  A    between atoms: C13_14  and  C15_16
REMARK   11  A    between atoms: C17_18  and  C18_19
REMARK   12  A    between atoms: C18_19  and  C19_21
REMARK                            x       y       z     vdW  Elec       q    Type
REMARK                         _______ _______ _______ _____ _____    ______ ____
ROOT
ATOM      6  C   UNL     1      49.523  19.934  19.442  0.00  0.00    -0.099 A 
ATOM      7  C   UNL     1      48.432  20.723  19.160  0.00  0.00    +0.056 A 
ATOM      8  C   UNL     1      47.140  20.192  19.267  0.00  0.00    -0.090 A 
ATOM     19  C   UNL     1      46.966  18.858  19.659  0.00  0.00    +0.049 A 
ATOM     20  C   UNL     1      48.065  18.078  19.938  0.00  0.00    -0.099 A 
ATOM     26  C   UNL     1      49.346  18.609  19.826  0.00  0.00    +0.129 A 
ENDROOT
BRANCH   8   9
ATOM      9  C   UNL     1      45.971  21.030  18.968  0.00  0.00    +0.144 C 
ATOM     10  C   UNL     1      45.108  21.362  19.955  0.00  0.00    -0.115 C 
BRANCH  10  11
ATOM     11  C   UNL     1      43.980  22.171  19.667  0.00  0.00    +0.425 C 
ATOM     18  O   UNL     1      44.079  23.385  19.691  0.00  0.00    -0.463 OA
BRANCH  11  12
ATOM     12  C   UNL     1      42.682  21.541  19.337  0.00  0.00    -0.162 A 
ATOM     13  C   UNL     1      41.665  22.299  18.753  0.00  0.00    +0.054 A 
ATOM     14  C   UNL     1      40.457  21.707  18.449  0.00  0.00    -0.004 A 
ATOM     15  C   UNL     1      40.254  20.365  18.719  0.00  0.00    +0.037 A 
ATOM     16  C   UNL     1      41.258  19.608  19.297  0.00  0.00    -0.002 A 
ATOM     17  C   UNL     1      42.473  20.187  19.601  0.00  0.00    +0.070 A 
ENDBRANCH  11  12
ENDBRANCH  10  11
ENDBRANCH   8   9
BRANCH  26  27
ATOM     27  O   UNL     1      50.426  17.833  20.097  0.00  0.00    -0.488 OA
ATOM     28  H   UNL     1      51.241  18.131  19.671  0.00  0.00    +0.389 HD
ENDBRANCH  26  27
BRANCH   6   5
ATOM      5  C   UNL     1      50.913  20.504  19.327  0.00  0.00    +0.113 C 
BRANCH   5   4
ATOM      1  C   UNL     1      52.072  19.059  17.200  0.00  0.00    +0.072 C 
ATOM      2  C   UNL     1      51.672  20.499  17.006  0.00  0.00    -0.131 C 
ATOM      3  C   UNL     1      51.954  21.188  15.696  0.00  0.00    +0.073 C 
ATOM      4  C   UNL     1      51.081  21.151  17.977  0.00  0.00    -0.046 C 
ENDBRANCH   5   4
ENDBRANCH   6   5
BRANCH  20  21
ATOM     21  C   UNL     1      47.881  16.643  20.361  0.00  0.00    +0.119 C 
BRANCH  21  22
ATOM     22  C   UNL     1      47.818  15.763  19.140  0.00  0.00    -0.057 C 
ATOM     23  C   UNL     1      46.682  15.217  18.783  0.00  0.00    -0.125 C 
ATOM     24  C   UNL     1      46.588  14.450  17.489  0.00  0.00    +0.074 C 
ATOM     25  C   UNL     1      45.470  15.357  19.667  0.00  0.00    +0.073 C 
ENDBRANCH  21  22
ENDBRANCH  20  21
TORSDOF 8
ENDMDL
MODEL 3
REMARK VINA RESULT:      -6.2      1.991      5.494
REMARK  Name = ZINC95486083
REMARK  12 active torsions:
REMARK  status: ('A' for Active; 'I' for Inactive)
REMARK    1  A    between atoms: C1_1  and  C2_2
REMARK    2  A    between atoms: C2_2  and  C25_27
REMARK    3  A    between atoms: C3_3  and  C4_4
REMARK    4  A    between atoms: C4_4  and  C5_5
REMARK    5  A    between atoms: C7_7  and  C16_17
REMARK    6  A    between atoms: C9_9  and  C11_12
REMARK    7  A    between atoms: C10_10  and  O1_11
REMARK    8  A    between atoms: C11_12  and  C12_13
REMARK    9  A    between atoms: C13_14  and  C14_15
REMARK   10  A    between atoms: C13_14  and  C15_16
REMARK   11  A    between atoms: C17_18  and  C18_19
REMARK   12  A    between atoms: C18_19  and  C19_21
REMARK                            x       y       z     vdW  Elec       q    Type
REMARK                         _______ _______ _______ _____ _____    ______ ____
ROOT
ATOM      6  C   UNL     1      49.362  17.789  18.097  0.00  0.00    -0.099 A 
ATOM      7  C   UNL     1      48.268  18.589  18.330  0.00  0.00    +0.056 A 
ATOM      8  C   UNL     1      46.982  18.112  18.045  0.00  0.00    -0.090 A 
ATOM     19  C   UNL     1      46.818  16.822  17.523  0.00  0.00    +0.049 A 
ATOM     20  C   UNL     1      47.921  16.031  17.293  0.00  0.00    -0.099 A 
ATOM     26  C   UNL     1      49.196  16.512  17.573  0.00  0.00    +0.129 A 
ENDROOT
BRANCH   8   9
ATOM      9  C   UNL     1      45.809  18.961  18.293  0.00  0.00    +0.144 C 
ATOM     10  C   UNL     1      45.924  20.061  19.071  0.00  0.00    -0.115 C 
BRANCH  10  11
ATOM     11  C   UNL     1      44.792  20.881  19.310  0.00  0.00    +0.425 C 
ATOM     18  O   UNL     1      44.864  22.084  19.138  0.00  0.00    -0.463 OA
BRANCH  11  12
ATOM     12  C   UNL     1      43.522  20.274  19.767  0.00  0.00    -0.162 A 
ATOM     13  C   UNL     1      42.357  20.439  19.017  0.00  0.00    +0.054 A 
ATOM     14  C   UNL     1      41.176  19.872  19.449  0.00  0.00    -0.004 A 
ATOM     15  C   UNL     1      41.146  19.140  20.623  0.00  0.00    +0.037 A 
ATOM     16  C   UNL     1      42.298  18.973  21.372  0.00  0.00    -0.002 A 
ATOM     17  C   UNL     1      43.486  19.530  20.948  0.00  0.00    +0.070 A 
ENDBRANCH  11  12
ENDBRANCH  10  11
ENDBRANCH   8   9
BRANCH  26  27
ATOM     27  O   UNL     1      50.280  15.730  17.339  0.00  0.00    -0.488 OA
ATOM     28  H   UNL     1      50.788  15.514  18.133  0.00  0.00    +0.389 HD
ENDBRANCH  26  27
BRANCH   6   5
ATOM      5  C   UNL     1      50.747  18.302  18.403  0.00  0.00    +0.113 C 
BRANCH   5   4
ATOM      1  C   UNL     1      51.828  18.697  15.828  0.00  0.00    +0.072 C 
ATOM      2  C   UNL     1      51.455  19.882  16.681  0.00  0.00    -0.131 C 
ATOM      3  C   UNL     1      51.723  21.280  16.186  0.00  0.00    +0.073 C 
ATOM      4  C   UNL     1      50.899  19.697  17.853  0.00  0.00    -0.046 C 
ENDBRANCH   5   4
ENDBRANCH   6   5
BRANCH  20  21
ATOM     21  C   UNL     1      47.748  14.643  16.731  0.00  0.00    +0.119 C 
BRANCH  21  22
ATOM     22  C   UNL     1      46.405  14.099  17.143  0.00  0.00    -0.057 C 
ATOM     23  C   UNL     1      46.310  13.306  18.181  0.00  0.00    -0.125 C 
ATOM     24  C   UNL     1      44.953  12.871  18.674  0.00  0.00    +0.074 C 
ATOM     25  C   UNL     1      47.555  12.829  18.881  0.00  0.00    +0.073 C 
ENDBRANCH  21  22
ENDBRANCH  20  21
TORSDOF 8
ENDMDL
MODEL 4
REMARK VINA RESULT:      -6.2      2.045      5.317
REMARK  Name = ZINC95486083
REMARK  12 active torsions:
REMARK  status: ('A' for Active; 'I' for Inactive)
REMARK    1  A    between atoms: C1_1  and  C2_2
REMARK    2  A    between atoms: C2_2  and  C25_27
REMARK    3  A    between atoms: C3_3  and  C4_4
REMARK    4  A    between atoms: C4_4  and  C5_5
REMARK    5  A    between atoms: C7_7  and  C16_17
REMARK    6  A    between atoms: C9_9  and  C11_12
REMARK    7  A    between atoms: C10_10  and  O1_11
REMARK    8  A    between atoms: C11_12  and  C12_13
REMARK    9  A    between atoms: C13_14  and  C14_15
REMARK   10  A    between atoms: C13_14  and  C15_16
REMARK   11  A    between atoms: C17_18  and  C18_19
REMARK   12  A    between atoms: C18_19  and  C19_21
REMARK                            x       y       z     vdW  Elec       q    Type
REMARK                         _______ _______ _______ _____ _____    ______ ____
ROOT
ATOM      6  C   UNL     1      49.012  18.159  18.162  0.00  0.00    -0.099 A 
ATOM      7  C   UNL     1      48.079  19.068  18.604  0.00  0.00    +0.056 A 
ATOM      8  C   UNL     1      46.717  18.840  18.366  0.00  0.00    -0.090 A 
ATOM     19  C   UNL     1      46.314  17.689  17.678  0.00  0.00    +0.049 A 
ATOM     20  C   UNL     1      47.257  16.787  17.240  0.00  0.00    -0.099 A 
ATOM     26  C   UNL     1      48.608  17.021  17.474  0.00  0.00    +0.129 A 
ENDROOT
BRANCH   8   9
ATOM      9  C   UNL     1      45.715  19.806  18.837  0.00  0.00    +0.144 C 
ATOM     10  C   UNL     1      45.059  19.587  20.000  0.00  0.00    -0.115 C 
BRANCH  10  11
ATOM     11  C   UNL     1      44.093  20.519  20.455  0.00  0.00    +0.425 C 
ATOM     18  O   UNL     1      44.329  21.216  21.425  0.00  0.00    -0.463 OA
BRANCH  11  12
ATOM     12  C   UNL     1      42.798  20.645  19.750  0.00  0.00    -0.162 A 
ATOM     13  C   UNL     1      41.985  19.524  19.571  0.00  0.00    +0.054 A 
ATOM     14  C   UNL     1      40.780  19.648  18.913  0.00  0.00    -0.004 A 
ATOM     15  C   UNL     1      40.375  20.881  18.432  0.00  0.00    +0.037 A 
ATOM     16  C   UNL     1      41.175  21.996  18.606  0.00  0.00    -0.002 A 
ATOM     17  C   UNL     1      42.381  21.887  19.267  0.00  0.00    +0.070 A 
ENDBRANCH  11  12
ENDBRANCH  10  11
ENDBRANCH   8   9
BRANCH  26  27
ATOM     27  O   UNL     1      49.534  16.131  17.035  0.00  0.00    -0.488 OA
ATOM     28  H   UNL     1      49.432  15.243  17.405  0.00  0.00    +0.389 HD
ENDBRANCH  26  27
BRANCH   6   5
ATOM      5  C   UNL     1      50.478  18.403  18.417  0.00  0.00    +0.113 C 
BRANCH   5   4
ATOM      1  C   UNL     1      51.151  21.130  18.668  0.00  0.00    +0.072 C 
ATOM      2  C   UNL     1      51.333  20.425  17.349  0.00  0.00    -0.131 C 
ATOM      3  C   UNL     1      51.811  21.194  16.144  0.00  0.00    +0.073 C 
ATOM      4  C   UNL     1      51.075  19.144  17.249  0.00  0.00    -0.046 C 
ENDBRANCH   5   4
ENDBRANCH   6   5
BRANCH  20  21
ATOM     21  C   UNL     1      46.826  15.547  16.499  0.00  0.00    +0.119 C 
BRANCH  21  22
ATOM     22  C   UNL     1      46.638  14.418  17.477  0.00  0.00    -0.057 C 
ATOM     23  C   UNL     1      47.187  13.251  17.245  0.00  0.00    -0.125 C 
ATOM     24  C   UNL     1      47.114  12.163  18.286  0.00  0.00    +0.074 C 
ATOM     25  C   UNL     1      47.892  12.998  15.938  0.00  0.00    +0.073 C 
ENDBRANCH  21  22
ENDBRANCH  20  21
TORSDOF 8
ENDMDL
MODEL 5
REMARK VINA RESULT:      -6.2      3.105      6.837
REMARK  Name = ZINC95486083
REMARK  12 active torsions:
REMARK  status: ('A' for Active; 'I' for Inactive)
REMARK    1  A    between atoms: C1_1  and  C2_2
REMARK    2  A    between atoms: C2_2  and  C25_27
REMARK    3  A    between atoms: C3_3  and  C4_4
REMARK    4  A    between atoms: C4_4  and  C5_5
REMARK    5  A    between atoms: C7_7  and  C16_17
REMARK    6  A    between atoms: C9_9  and  C11_12
REMARK    7  A    between atoms: C10_10  and  O1_11
REMARK    8  A    between atoms: C11_12  and  C12_13
REMARK    9  A    between atoms: C13_14  and  C14_15
REMARK   10  A    between atoms: C13_14  and  C15_16
REMARK   11  A    between atoms: C17_18  and  C18_19
REMARK   12  A    between atoms: C18_19  and  C19_21
REMARK                            x       y       z     vdW  Elec       q    Type
REMARK                         _______ _______ _______ _____ _____    ______ ____
ROOT
ATOM      6  C   UNL     1      45.367  19.818  18.903  0.00  0.00    -0.099 A 
ATOM      7  C   UNL     1      45.365  18.606  18.253  0.00  0.00    +0.056 A 
ATOM      8  C   UNL     1      46.574  17.943  18.009  0.00  0.00    -0.090 A 
ATOM     19  C   UNL     1      47.780  18.519  18.429  0.00  0.00    +0.049 A 
ATOM     20  C   UNL     1      47.770  19.733  19.079  0.00  0.00    -0.099 A 
ATOM     26  C   UNL     1      46.567  20.389  19.313  0.00  0.00    +0.129 A 
ENDROOT
BRANCH   8   9
ATOM      9  C   UNL     1      46.578  16.647  17.316  0.00  0.00    +0.144 C 
ATOM     10  C   UNL     1      46.832  15.512  18.007  0.00  0.00    -0.115 C 
BRANCH  10  11
ATOM     11  C   UNL     1      46.835  14.263  17.339  0.00  0.00    +0.425 C 
ATOM     18  O   UNL     1      45.876  13.518  17.435  0.00  0.00    -0.463 OA
BRANCH  11  12
ATOM     12  C   UNL     1      48.004  13.862  16.524  0.00  0.00    -0.162 A 
ATOM     13  C   UNL     1      47.821  13.131  15.349  0.00  0.00    +0.054 A 
ATOM     14  C   UNL     1      48.915  12.760  14.595  0.00  0.00    -0.004 A 
ATOM     15  C   UNL     1      50.190  13.111  15.001  0.00  0.00    +0.037 A 
ATOM     16  C   UNL     1      50.379  13.836  16.165  0.00  0.00    -0.002 A 
ATOM     17  C   UNL     1      49.293  14.218  16.925  0.00  0.00    +0.070 A 
ENDBRANCH  11  12
ENDBRANCH  10  11
ENDBRANCH   8   9
BRANCH  26  27
ATOM     27  O   UNL     1      46.563  21.588  19.949  0.00  0.00    -0.488 OA
ATOM     28  H   UNL     1      47.364  22.111  19.806  0.00  0.00    +0.389 HD
ENDBRANCH  26  27
BRANCH   6   5
ATOM      5  C   UNL     1      44.066  20.533  19.165  0.00  0.00    +0.113 C 
BRANCH   5   4
ATOM      1  C   UNL     1      41.291  20.225  18.768  0.00  0.00    +0.072 C 
ATOM      2  C   UNL     1      41.947  19.647  19.994  0.00  0.00    -0.131 C 
ATOM      3  C   UNL     1      41.111  18.961  21.044  0.00  0.00    +0.073 C 
ATOM      4  C   UNL     1      43.245  19.740  20.149  0.00  0.00    -0.046 C 
ENDBRANCH   5   4
ENDBRANCH   6   5
BRANCH  20  21
ATOM     21  C   UNL     1      49.066  20.354  19.531  0.00  0.00    +0.119 C 
BRANCH  21  22
ATOM     22  C   UNL     1      49.763  20.980  18.351  0.00  0.00    -0.057 C 
ATOM     23  C   UNL     1      50.933  20.532  17.968  0.00  0.00    -0.125 C 
ATOM     24  C   UNL     1      51.567  21.064  16.709  0.00  0.00    +0.074 C 
ATOM     25  C   UNL     1      51.643  19.485  18.786  0.00  0.00    +0.073 C 
ENDBRANCH  21  22
ENDBRANCH  20  21
TORSDOF 8
ENDMDL
MODEL 6
REMARK VINA RESULT:      -6.1      2.004      7.433
REMARK  Name = ZINC95486083
REMARK  12 active torsions:
REMARK  status: ('A' for Active; 'I' for Inactive)
REMARK    1  A    between atoms: C1_1  and  C2_2
REMARK    2  A    between atoms: C2_2  and  C25_27
REMARK    3  A    between atoms: C3_3  and  C4_4
REMARK    4  A    between atoms: C4_4  and  C5_5
REMARK    5  A    between atoms: C7_7  and  C16_17
REMARK    6  A    between atoms: C9_9  and  C11_12
REMARK    7  A    between atoms: C10_10  and  O1_11
REMARK    8  A    between atoms: C11_12  and  C12_13
REMARK    9  A    between atoms: C13_14  and  C14_15
REMARK   10  A    between atoms: C13_14  and  C15_16
REMARK   11  A    between atoms: C17_18  and  C18_19
REMARK   12  A    between atoms: C18_19  and  C19_21
REMARK                            x       y       z     vdW  Elec       q    Type
REMARK                         _______ _______ _______ _____ _____    ______ ____
ROOT
ATOM      6  C   UNL     1      44.886  18.931  20.674  0.00  0.00    -0.099 A 
ATOM      7  C   UNL     1      45.993  19.622  20.240  0.00  0.00    +0.056 A 
ATOM      8  C   UNL     1      47.118  18.924  19.783  0.00  0.00    -0.090 A 
ATOM     19  C   UNL     1      47.110  17.523  19.773  0.00  0.00    +0.049 A 
ATOM     20  C   UNL     1      45.997  16.841  20.211  0.00  0.00    -0.099 A 
ATOM     26  C   UNL     1      44.884  17.540  20.667  0.00  0.00    +0.129 A 
ENDROOT
BRANCH   8   9
ATOM      9  C   UNL     1      48.302  19.657  19.317  0.00  0.00    +0.144 C 
ATOM     10  C   UNL     1      49.444  19.626  20.042  0.00  0.00    -0.115 C 
BRANCH  10  11
ATOM     11  C   UNL     1      50.587  20.334  19.592  0.00  0.00    +0.425 C 
ATOM     18  O   UNL     1      51.168  21.095  20.345  0.00  0.00    -0.463 OA
BRANCH  11  12
ATOM     12  C   UNL     1      51.077  20.146  18.208  0.00  0.00    -0.162 A 
ATOM     13  C   UNL     1      51.394  18.868  17.745  0.00  0.00    +0.054 A 
ATOM     14  C   UNL     1      51.850  18.701  16.454  0.00  0.00    -0.004 A 
ATOM     15  C   UNL     1      51.992  19.796  15.619  0.00  0.00    +0.037 A 
ATOM     16  C   UNL     1      51.679  21.065  16.073  0.00  0.00    -0.002 A 
ATOM     17  C   UNL     1      51.216  21.246  17.360  0.00  0.00    +0.070 A 
ENDBRANCH  11  12
ENDBRANCH  10  11
ENDBRANCH   8   9
BRANCH  26  27
ATOM     27  O   UNL     1      43.792  16.863  21.102  0.00  0.00    -0.488 OA
ATOM     28  H   UNL     1      44.000  16.078  21.627  0.00  0.00    +0.389 HD
ENDBRANCH  26  27
BRANCH   6   5
ATOM      5  C   UNL     1      43.675  19.681  21.165  0.00  0.00    +0.113 C 
BRANCH   5   4
ATOM      1  C   UNL     1      40.947  19.033  20.863  0.00  0.00    +0.072 C 
ATOM      2  C   UNL     1      41.647  19.861  19.817  0.00  0.00    -0.131 C 
ATOM      3  C   UNL     1      40.908  20.286  18.574  0.00  0.00    +0.073 C 
ATOM      4  C   UNL     1      42.899  20.210  19.987  0.00  0.00    -0.046 C 
ENDBRANCH   5   4
ENDBRANCH   6   5
BRANCH  20  21
ATOM     21  C   UNL     1      45.985  15.334  20.200  0.00  0.00    +0.119 C 
BRANCH  21  22
ATOM     22  C   UNL     1      46.627  14.835  18.932  0.00  0.00    -0.057 C 
ATOM     23  C   UNL     1      46.109  13.817  18.291  0.00  0.00    -0.125 C 
ATOM     24  C   UNL     1      46.669  13.404  16.954  0.00  0.00    +0.074 C 
ATOM     25  C   UNL     1      44.953  13.060  18.891  0.00  0.00    +0.073 C 
ENDBRANCH  21  22
ENDBRANCH  20  21
TORSDOF 8
ENDMDL
MODEL 7
REMARK VINA RESULT:      -6.0      3.300      8.017
REMARK  Name = ZINC95486083
REMARK  12 active torsions:
REMARK  status: ('A' for Active; 'I' for Inactive)
REMARK    1  A    between atoms: C1_1  and  C2_2
REMARK    2  A    between atoms: C2_2  and  C25_27
REMARK    3  A    between atoms: C3_3  and  C4_4
REMARK    4  A    between atoms: C4_4  and  C5_5
REMARK    5  A    between atoms: C7_7  and  C16_17
REMARK    6  A    between atoms: C9_9  and  C11_12
REMARK    7  A    between atoms: C10_10  and  O1_11
REMARK    8  A    between atoms: C11_12  and  C12_13
REMARK    9  A    between atoms: C13_14  and  C14_15
REMARK   10  A    between atoms: C13_14  and  C15_16
REMARK   11  A    between atoms: C17_18  and  C18_19
REMARK   12  A    between atoms: C18_19  and  C19_21
REMARK                            x       y       z     vdW  Elec       q    Type
REMARK                         _______ _______ _______ _____ _____    ______ ____
ROOT
ATOM      6  C   UNL     1      46.401  13.611  17.909  0.00  0.00    -0.099 A 
ATOM      7  C   UNL     1      47.401  14.355  17.326  0.00  0.00    +0.056 A 
ATOM      8  C   UNL     1      47.620  15.675  17.740  0.00  0.00    -0.090 A 
ATOM     19  C   UNL     1      46.818  16.231  18.745  0.00  0.00    +0.049 A 
ATOM     20  C   UNL     1      45.819  15.478  19.320  0.00  0.00    -0.099 A 
ATOM     26  C   UNL     1      45.603  14.169  18.901  0.00  0.00    +0.129 A 
ENDROOT
BRANCH   8   9
ATOM      9  C   UNL     1      48.688  16.473  17.123  0.00  0.00    +0.144 C 
ATOM     10  C   UNL     1      49.942  16.430  17.628  0.00  0.00    -0.115 C 
BRANCH  10  11
ATOM     11  C   UNL     1      50.972  17.200  17.033  0.00  0.00    +0.425 C 
ATOM     18  O   UNL     1      51.836  16.654  16.371  0.00  0.00    -0.463 OA
BRANCH  11  12
ATOM     12  C   UNL     1      50.998  18.669  17.215  0.00  0.00    -0.162 A 
ATOM     13  C   UNL     1      50.385  19.248  18.327  0.00  0.00    +0.054 A 
ATOM     14  C   UNL     1      50.412  20.617  18.491  0.00  0.00    -0.004 A 
ATOM     15  C   UNL     1      51.047  21.415  17.556  0.00  0.00    +0.037 A 
ATOM     16  C   UNL     1      51.657  20.848  16.451  0.00  0.00    -0.002 A 
ATOM     17  C   UNL     1      51.642  19.480  16.279  0.00  0.00    +0.070 A 
ENDBRANCH  11  12
ENDBRANCH  10  11
ENDBRANCH   8   9
BRANCH  26  27
ATOM     27  O   UNL     1      44.614  13.433  19.468  0.00  0.00    -0.488 OA
ATOM     28  H   UNL     1      44.000  13.043  18.831  0.00  0.00    +0.389 HD
ENDBRANCH  26  27
BRANCH   6   5
ATOM      5  C   UNL     1      46.164  12.190  17.464  0.00  0.00    +0.113 C 
BRANCH   5   4
ATOM      1  C   UNL     1      45.913  10.637  15.124  0.00  0.00    +0.072 C 
ATOM      2  C   UNL     1      47.274  10.900  15.713  0.00  0.00    -0.131 C 
ATOM      3  C   UNL     1      48.497  10.277  15.091  0.00  0.00    +0.073 C 
ATOM      4  C   UNL     1      47.395  11.670  16.767  0.00  0.00    -0.046 C 
ENDBRANCH   5   4
ENDBRANCH   6   5
BRANCH  20  21
ATOM     21  C   UNL     1      44.955  16.074  20.401  0.00  0.00    +0.119 C 
BRANCH  21  22
ATOM     22  C   UNL     1      44.585  17.485  20.027  0.00  0.00    -0.057 C 
ATOM     23  C   UNL     1      43.782  18.178  20.796  0.00  0.00    -0.125 C 
ATOM     24  C   UNL     1      43.520  19.632  20.495  0.00  0.00    +0.074 C 
ATOM     25  C   UNL     1      43.121  17.522  21.979  0.00  0.00    +0.073 C 
ENDBRANCH  21  22
ENDBRANCH  20  21
TORSDOF 8
ENDMDL
MODEL 8
REMARK VINA RESULT:      -6.0      2.751      6.697
REMARK  Name = ZINC95486083
REMARK  12 active torsions:
REMARK  status: ('A' for Active; 'I' for Inactive)
REMARK    1  A    between atoms: C1_1  and  C2_2
REMARK    2  A    between atoms: C2_2  and  C25_27
REMARK    3  A    between atoms: C3_3  and  C4_4
REMARK    4  A    between atoms: C4_4  and  C5_5
REMARK    5  A    between atoms: C7_7  and  C16_17
REMARK    6  A    between atoms: C9_9  and  C11_12
REMARK    7  A    between atoms: C10_10  and  O1_11
REMARK    8  A    between atoms: C11_12  and  C12_13
REMARK    9  A    between atoms: C13_14  and  C14_15
REMARK   10  A    between atoms: C13_14  and  C15_16
REMARK   11  A    between atoms: C17_18  and  C18_19
REMARK   12  A    between atoms: C18_19  and  C19_21
REMARK                            x       y       z     vdW  Elec       q    Type
REMARK                         _______ _______ _______ _____ _____    ______ ____
ROOT
ATOM      6  C   UNL     1      45.168  19.880  19.746  0.00  0.00    -0.099 A 
ATOM      7  C   UNL     1      45.155  18.664  19.103  0.00  0.00    +0.056 A 
ATOM      8  C   UNL     1      46.348  18.125  18.606  0.00  0.00    -0.090 A 
ATOM     19  C   UNL     1      47.548  18.829  18.764  0.00  0.00    +0.049 A 
ATOM     20  C   UNL     1      47.549  20.045  19.408  0.00  0.00    -0.099 A 
ATOM     26  C   UNL     1      46.361  20.578  19.896  0.00  0.00    +0.129 A 
ENDROOT
BRANCH   8   9
ATOM      9  C   UNL     1      46.340  16.826  17.920  0.00  0.00    +0.144 C 
ATOM     10  C   UNL     1      46.446  15.683  18.636  0.00  0.00    -0.115 C 
BRANCH  10  11
ATOM     11  C   UNL     1      46.438  14.430  17.974  0.00  0.00    +0.425 C 
ATOM     18  O   UNL     1      45.491  13.676  18.108  0.00  0.00    -0.463 OA
BRANCH  11  12
ATOM     12  C   UNL     1      47.582  14.036  17.121  0.00  0.00    -0.162 A 
ATOM     13  C   UNL     1      48.879  14.413  17.470  0.00  0.00    +0.054 A 
ATOM     14  C   UNL     1      49.940  14.044  16.670  0.00  0.00    -0.004 A 
ATOM     15  C   UNL     1      49.720  13.300  15.524  0.00  0.00    +0.037 A 
ATOM     16  C   UNL     1      48.436  12.923  15.172  0.00  0.00    -0.002 A 
ATOM     17  C   UNL     1      47.367  13.281  15.966  0.00  0.00    +0.070 A 
ENDBRANCH  11  12
ENDBRANCH  10  11
ENDBRANCH   8   9
BRANCH  26  27
ATOM     27  O   UNL     1      46.367  21.780  20.525  0.00  0.00    -0.488 OA
ATOM     28  H   UNL     1      46.719  21.751  21.425  0.00  0.00    +0.389 HD
ENDBRANCH  26  27
BRANCH   6   5
ATOM      5  C   UNL     1      43.884  20.461  20.282  0.00  0.00    +0.113 C 
BRANCH   5   4
ATOM      1  C   UNL     1      41.348  19.246  20.489  0.00  0.00    +0.072 C 
ATOM      2  C   UNL     1      41.731  19.983  19.233  0.00  0.00    -0.131 C 
ATOM      3  C   UNL     1      40.786  20.015  18.059  0.00  0.00    +0.073 C 
ATOM      4  C   UNL     1      42.887  20.597  19.160  0.00  0.00    -0.046 C 
ENDBRANCH   5   4
ENDBRANCH   6   5
BRANCH  20  21
ATOM     21  C   UNL     1      48.840  20.805  19.581  0.00  0.00    +0.119 C 
BRANCH  21  22
ATOM     22  C   UNL     1      49.551  20.892  18.256  0.00  0.00    -0.057 C 
ATOM     23  C   UNL     1      50.855  21.019  18.219  0.00  0.00    -0.125 C 
ATOM     24  C   UNL     1      51.579  20.971  16.898  0.00  0.00    +0.074 C 
ATOM     25  C   UNL     1      51.629  21.213  19.497  0.00  0.00    +0.073 C 
ENDBRANCH  21  22
ENDBRANCH  20  21
TORSDOF 8
ENDMDL
MODEL 9
REMARK VINA RESULT:      -6.0      2.840      8.212
REMARK  Name = ZINC95486083
REMARK  12 active torsions:
REMARK  status: ('A' for Active; 'I' for Inactive)
REMARK    1  A    between atoms: C1_1  and  C2_2
REMARK    2  A    between atoms: C2_2  and  C25_27
REMARK    3  A    between atoms: C3_3  and  C4_4
REMARK    4  A    between atoms: C4_4  and  C5_5
REMARK    5  A    between atoms: C7_7  and  C16_17
REMARK    6  A    between atoms: C9_9  and  C11_12
REMARK    7  A    between atoms: C10_10  and  O1_11
REMARK    8  A    between atoms: C11_12  and  C12_13
REMARK    9  A    between atoms: C13_14  and  C14_15
REMARK   10  A    between atoms: C13_14  and  C15_16
REMARK   11  A    between atoms: C17_18  and  C18_19
REMARK   12  A    between atoms: C18_19  and  C19_21
REMARK                            x       y       z     vdW  Elec       q    Type
REMARK                         _______ _______ _______ _____ _____    ______ ____
ROOT
ATOM      6  C   UNL     1      47.524  20.059  19.359  0.00  0.00    -0.099 A 
ATOM      7  C   UNL     1      47.473  18.840  18.725  0.00  0.00    +0.056 A 
ATOM      8  C   UNL     1      46.245  18.183  18.573  0.00  0.00    -0.090 A 
ATOM     19  C   UNL     1      45.075  18.772  19.070  0.00  0.00    +0.049 A 
ATOM     20  C   UNL     1      45.139  19.993  19.704  0.00  0.00    -0.099 A 
ATOM     26  C   UNL     1      46.361  20.638  19.856  0.00  0.00    +0.129 A 
ENDROOT
BRANCH   8   9
ATOM      9  C   UNL     1      46.184  16.881  17.896  0.00  0.00    +0.144 C 
ATOM     10  C   UNL     1      46.829  15.815  18.422  0.00  0.00    -0.115 C 
BRANCH  10  11
ATOM     11  C   UNL     1      46.770  14.559  17.769  0.00  0.00    +0.425 C 
ATOM     18  O   UNL     1      45.787  13.851  17.897  0.00  0.00    -0.463 OA
BRANCH  11  12
ATOM     12  C   UNL     1      47.903  14.106  16.930  0.00  0.00    -0.162 A 
ATOM     13  C   UNL     1      47.672  13.276  15.831  0.00  0.00    +0.054 A 
ATOM     14  C   UNL     1      48.732  12.858  15.054  0.00  0.00    -0.004 A 
ATOM     15  C   UNL     1      50.020  13.260  15.361  0.00  0.00    +0.037 A 
ATOM     16  C   UNL     1      50.255  14.082  16.448  0.00  0.00    -0.002 A 
ATOM     17  C   UNL     1      49.204  14.513  17.231  0.00  0.00    +0.070 A 
ENDBRANCH  11  12
ENDBRANCH  10  11
ENDBRANCH   8   9
BRANCH  26  27
ATOM     27  O   UNL     1      46.419  21.838  20.486  0.00  0.00    -0.488 OA
ATOM     28  H   UNL     1      47.063  22.451  20.107  0.00  0.00    +0.389 HD
ENDBRANCH  26  27
BRANCH   6   5
ATOM      5  C   UNL     1      48.845  20.767  19.523  0.00  0.00    +0.113 C 
BRANCH   5   4
ATOM      1  C   UNL     1      51.637  21.163  19.480  0.00  0.00    +0.072 C 
ATOM      2  C   UNL     1      50.878  20.993  18.189  0.00  0.00    -0.131 C 
ATOM      3  C   UNL     1      51.600  21.101  16.871  0.00  0.00    +0.073 C 
ATOM      4  C   UNL     1      49.590  20.750  18.213  0.00  0.00    -0.046 C 
ENDBRANCH   5   4
ENDBRANCH   6   5
BRANCH  20  21
ATOM     21  C   UNL     1      43.881  20.629  20.239  0.00  0.00    +0.119 C 
BRANCH  21  22
ATOM     22  C   UNL     1      42.862  20.734  19.135  0.00  0.00    -0.057 C 
ATOM     23  C   UNL     1      41.707  20.128  19.249  0.00  0.00    -0.125 C 
ATOM     24  C   UNL     1      40.637  20.343  18.209  0.00  0.00    +0.074 C 
ATOM     25  C   UNL     1      41.448  19.216  20.420  0.00  0.00    +0.073 C 
ENDBRANCH  21  22
ENDBRANCH  20  21
TORSDOF 8
ENDMDL
