MODEL 1
REMARK VINA RESULT:      -6.2      0.000      0.000
REMARK  Name = ZINC03978989
REMARK  6 active torsions:
REMARK  status: ('A' for Active; 'I' for Inactive)
REMARK    1  A    between atoms: C1_1  and  C2_2
REMARK    2  A    between atoms: C2_2  and  C23_31
REMARK    3  A    between atoms: C15_18  and  O5_28
REMARK    4  A    between atoms: C16_19  and  O4_26
REMARK    5  A    between atoms: O4_26  and  C21_27
REMARK    6  A    between atoms: O5_28  and  C22_29
REMARK                            x       y       z     vdW  Elec       q    Type
REMARK                         _______ _______ _______ _____ _____    ______ ____
ROOT
ATOM      1  C   UNL     1      52.899  17.451  21.010  0.00  0.00    +0.038 C 
ATOM      2  C   UNL     1      52.610  16.852  19.631  0.00  0.00    +0.145 C 
ATOM      3  C   UNL     1      53.840  16.081  19.149  0.00  0.00    +0.086 C 
ATOM      4  C   UNL     1      51.442  15.908  19.736  0.00  0.00    -0.053 C 
ATOM      5  C   UNL     1      50.202  16.364  19.575  0.00  0.00    +0.059 C 
ATOM      6  C   UNL     1      50.022  17.802  19.283  0.00  0.00    -0.173 A 
ATOM      7  C   UNL     1      51.134  18.540  18.848  0.00  0.00    +0.204 A 
ATOM      8  C   UNL     1      51.007  19.893  18.566  0.00  0.00    -0.037 A 
ATOM      9  C   UNL     1      49.788  20.520  18.710  0.00  0.00    +0.161 A 
ATOM     10  C   UNL     1      48.673  19.795  19.142  0.00  0.00    -0.275 A 
ATOM     11  C   UNL     1      47.366  20.463  19.303  0.00  0.00    +0.418 C 
ATOM     12  O   UNL     1      47.149  21.578  18.878  0.00  0.00    -0.430 OA
ATOM     13  C   UNL     1      46.317  19.655  20.039  0.00  0.00    +0.013 C 
ATOM     14  C   UNL     1      44.938  20.175  19.754  0.00  0.00    -0.161 A 
ATOM     15  C   UNL     1      44.719  21.540  19.689  0.00  0.00    +0.043 A 
ATOM     16  C   UNL     1      43.447  22.034  19.459  0.00  0.00    +0.071 A 
ATOM     19  C   UNL     1      42.384  21.152  19.289  0.00  0.00    +0.145 A 
ATOM     22  C   UNL     1      42.604  19.788  19.349  0.00  0.00    -0.058 A 
ATOM     23  C   UNL     1      43.883  19.291  19.578  0.00  0.00    +0.139 A 
ATOM     24  O   UNL     1      44.051  17.943  19.620  0.00  0.00    -0.299 OA
ATOM     25  C   UNL     1      45.284  17.413  20.118  0.00  0.00    +0.293 C 
ATOM     26  C   UNL     1      46.424  18.219  19.500  0.00  0.00    +0.156 C 
ATOM     27  O   UNL     1      47.707  17.700  19.833  0.00  0.00    -0.286 OA
ATOM     28  C   UNL     1      48.783  18.422  19.429  0.00  0.00    +0.220 A 
ATOM     29  O   UNL     1      52.324  17.905  18.711  0.00  0.00    -0.296 OA
ENDROOT
BRANCH  16  17
ATOM     17  O   UNL     1      43.237  23.377  19.397  0.00  0.00    -0.304 OA
ATOM     18  C   UNL     1      44.363  24.196  19.076  0.00  0.00    +0.238 C 
ENDBRANCH  16  17
BRANCH  19  20
ATOM     20  O   UNL     1      41.131  21.630  19.066  0.00  0.00    -0.299 OA
ATOM     21  C   UNL     1      40.242  20.799  18.318  0.00  0.00    +0.242 C 
ENDBRANCH  19  20
TORSDOF 2
ENDMDL
MODEL 2
REMARK VINA RESULT:      -6.1      3.895      8.276
REMARK  Name = ZINC03978989
REMARK  6 active torsions:
REMARK  status: ('A' for Active; 'I' for Inactive)
REMARK    1  A    between atoms: C1_1  and  C2_2
REMARK    2  A    between atoms: C2_2  and  C23_31
REMARK    3  A    between atoms: C15_18  and  O5_28
REMARK    4  A    between atoms: C16_19  and  O4_26
REMARK    5  A    between atoms: O4_26  and  C21_27
REMARK    6  A    between atoms: O5_28  and  C22_29
REMARK                            x       y       z     vdW  Elec       q    Type
REMARK                         _______ _______ _______ _____ _____    ______ ____
ROOT
ATOM      1  C   UNL     1      46.029  20.770  22.167  0.00  0.00    +0.038 C 
ATOM      2  C   UNL     1      46.772  21.634  21.146  0.00  0.00    +0.145 C 
ATOM      3  C   UNL     1      46.629  23.107  21.533  0.00  0.00    +0.086 C 
ATOM      4  C   UNL     1      48.231  21.259  21.148  0.00  0.00    -0.053 C 
ATOM      5  C   UNL     1      48.670  20.291  20.348  0.00  0.00    +0.059 C 
ATOM      6  C   UNL     1      47.691  19.620  19.466  0.00  0.00    -0.173 A 
ATOM      7  C   UNL     1      46.451  20.241  19.249  0.00  0.00    +0.204 A 
ATOM      8  C   UNL     1      45.504  19.642  18.429  0.00  0.00    -0.037 A 
ATOM      9  C   UNL     1      45.776  18.435  17.824  0.00  0.00    +0.161 A 
ATOM     10  C   UNL     1      47.009  17.807  18.031  0.00  0.00    -0.275 A 
ATOM     11  C   UNL     1      47.303  16.511  17.388  0.00  0.00    +0.418 C 
ATOM     12  O   UNL     1      46.607  16.049  16.508  0.00  0.00    -0.430 OA
ATOM     13  C   UNL     1      48.536  15.800  17.907  0.00  0.00    +0.013 C 
ATOM     14  C   UNL     1      49.022  14.776  16.924  0.00  0.00    -0.161 A 
ATOM     15  C   UNL     1      48.108  13.990  16.243  0.00  0.00    +0.043 A 
ATOM     16  C   UNL     1      48.543  13.019  15.358  0.00  0.00    +0.071 A 
ATOM     19  C   UNL     1      49.907  12.837  15.149  0.00  0.00    +0.145 A 
ATOM     22  C   UNL     1      50.819  13.626  15.824  0.00  0.00    -0.058 A 
ATOM     23  C   UNL     1      50.383  14.603  16.713  0.00  0.00    +0.139 A 
ATOM     24  O   UNL     1      51.317  15.360  17.347  0.00  0.00    -0.299 OA
ATOM     25  C   UNL     1      50.915  16.173  18.454  0.00  0.00    +0.293 C 
ATOM     26  C   UNL     1      49.618  16.881  18.070  0.00  0.00    +0.156 C 
ATOM     27  O   UNL     1      49.189  17.814  19.054  0.00  0.00    -0.286 OA
ATOM     28  C   UNL     1      47.981  18.402  18.855  0.00  0.00    +0.220 A 
ATOM     29  O   UNL     1      46.203  21.429  19.853  0.00  0.00    -0.296 OA
ENDROOT
BRANCH  16  17
ATOM     17  O   UNL     1      47.641  12.248  14.693  0.00  0.00    -0.304 OA
ATOM     18  C   UNL     1      46.868  11.334  15.475  0.00  0.00    +0.238 C 
ENDBRANCH  16  17
BRANCH  19  20
ATOM     20  O   UNL     1      50.342  11.882  14.283  0.00  0.00    -0.299 OA
ATOM     21  C   UNL     1      50.945  12.334  13.069  0.00  0.00    +0.242 C 
ENDBRANCH  19  20
TORSDOF 2
ENDMDL
MODEL 3
REMARK VINA RESULT:      -6.0      3.492      5.008
REMARK  Name = ZINC03978989
REMARK  6 active torsions:
REMARK  status: ('A' for Active; 'I' for Inactive)
REMARK    1  A    between atoms: C1_1  and  C2_2
REMARK    2  A    between atoms: C2_2  and  C23_31
REMARK    3  A    between atoms: C15_18  and  O5_28
REMARK    4  A    between atoms: C16_19  and  O4_26
REMARK    5  A    between atoms: O4_26  and  C21_27
REMARK    6  A    between atoms: O5_28  and  C22_29
REMARK                            x       y       z     vdW  Elec       q    Type
REMARK                         _______ _______ _______ _____ _____    ______ ____
ROOT
ATOM      1  C   UNL     1      49.985  12.728  14.072  0.00  0.00    +0.038 C 
ATOM      2  C   UNL     1      50.413  12.332  15.486  0.00  0.00    +0.145 C 
ATOM      3  C   UNL     1      51.160  10.998  15.432  0.00  0.00    +0.086 C 
ATOM      4  C   UNL     1      51.327  13.391  16.043  0.00  0.00    -0.053 C 
ATOM      5  C   UNL     1      50.818  14.428  16.704  0.00  0.00    +0.059 C 
ATOM      6  C   UNL     1      49.351  14.490  16.877  0.00  0.00    -0.173 A 
ATOM      7  C   UNL     1      48.602  13.323  16.661  0.00  0.00    +0.204 A 
ATOM      8  C   UNL     1      47.222  13.341  16.812  0.00  0.00    -0.037 A 
ATOM      9  C   UNL     1      46.580  14.505  17.174  0.00  0.00    +0.161 A 
ATOM     10  C   UNL     1      47.315  15.674  17.393  0.00  0.00    -0.275 A 
ATOM     11  C   UNL     1      46.631  16.924  17.778  0.00  0.00    +0.418 C 
ATOM     12  O   UNL     1      45.468  16.949  18.123  0.00  0.00    -0.430 OA
ATOM     13  C   UNL     1      47.486  18.173  17.708  0.00  0.00    +0.013 C 
ATOM     14  C   UNL     1      46.895  19.277  18.535  0.00  0.00    -0.161 A 
ATOM     15  C   UNL     1      45.525  19.477  18.536  0.00  0.00    +0.043 A 
ATOM     16  C   UNL     1      44.970  20.512  19.268  0.00  0.00    +0.071 A 
ATOM     19  C   UNL     1      45.794  21.353  20.010  0.00  0.00    +0.145 A 
ATOM     22  C   UNL     1      47.162  21.149  20.014  0.00  0.00    -0.058 A 
ATOM     23  C   UNL     1      47.721  20.108  19.279  0.00  0.00    +0.139 A 
ATOM     24  O   UNL     1      49.069  19.943  19.321  0.00  0.00    -0.299 OA
ATOM     25  C   UNL     1      49.690  19.067  18.375  0.00  0.00    +0.293 C 
ATOM     26  C   UNL     1      48.853  17.791  18.299  0.00  0.00    +0.156 C 
ATOM     27  O   UNL     1      49.446  16.794  17.475  0.00  0.00    -0.286 OA
ATOM     28  C   UNL     1      48.714  15.672  17.249  0.00  0.00    +0.220 A 
ATOM     29  O   UNL     1      49.253  12.188  16.307  0.00  0.00    -0.296 OA
ENDROOT
BRANCH  16  17
ATOM     17  O   UNL     1      43.623  20.706  19.264  0.00  0.00    -0.304 OA
ATOM     18  C   UNL     1      42.820  19.692  19.873  0.00  0.00    +0.238 C 
ENDBRANCH  16  17
BRANCH  19  20
ATOM     20  O   UNL     1      45.255  22.374  20.730  0.00  0.00    -0.299 OA
ATOM     21  C   UNL     1      45.140  22.183  22.141  0.00  0.00    +0.242 C 
ENDBRANCH  19  20
TORSDOF 2
ENDMDL
MODEL 4
REMARK VINA RESULT:      -5.8      1.372      8.234
REMARK  Name = ZINC03978989
REMARK  6 active torsions:
REMARK  status: ('A' for Active; 'I' for Inactive)
REMARK    1  A    between atoms: C1_1  and  C2_2
REMARK    2  A    between atoms: C2_2  and  C23_31
REMARK    3  A    between atoms: C15_18  and  O5_28
REMARK    4  A    between atoms: C16_19  and  O4_26
REMARK    5  A    between atoms: O4_26  and  C21_27
REMARK    6  A    between atoms: O5_28  and  C22_29
REMARK                            x       y       z     vdW  Elec       q    Type
REMARK                         _______ _______ _______ _____ _____    ______ ____
ROOT
ATOM      1  C   UNL     1      41.493  19.969  17.868  0.00  0.00    +0.038 C 
ATOM      2  C   UNL     1      41.574  20.248  19.370  0.00  0.00    +0.145 C 
ATOM      3  C   UNL     1      40.224  20.778  19.858  0.00  0.00    +0.086 C 
ATOM      4  C   UNL     1      41.896  18.967  20.095  0.00  0.00    -0.053 C 
ATOM      5  C   UNL     1      43.164  18.618  20.297  0.00  0.00    +0.059 C 
ATOM      6  C   UNL     1      44.222  19.524  19.800  0.00  0.00    -0.173 A 
ATOM      7  C   UNL     1      43.872  20.841  19.466  0.00  0.00    +0.204 A 
ATOM      8  C   UNL     1      44.836  21.722  18.995  0.00  0.00    -0.037 A 
ATOM      9  C   UNL     1      46.142  21.308  18.854  0.00  0.00    +0.161 A 
ATOM     10  C   UNL     1      46.504  19.998  19.184  0.00  0.00    -0.275 A 
ATOM     11  C   UNL     1      47.902  19.549  19.030  0.00  0.00    +0.418 C 
ATOM     12  O   UNL     1      48.814  20.321  18.825  0.00  0.00    -0.430 OA
ATOM     13  C   UNL     1      48.113  18.053  19.144  0.00  0.00    +0.013 C 
ATOM     14  C   UNL     1      49.548  17.733  19.446  0.00  0.00    -0.161 A 
ATOM     15  C   UNL     1      50.557  18.443  18.818  0.00  0.00    +0.043 A 
ATOM     16  C   UNL     1      51.884  18.137  19.062  0.00  0.00    +0.071 A 
ATOM     19  C   UNL     1      52.204  17.111  19.946  0.00  0.00    +0.145 A 
ATOM     22  C   UNL     1      51.197  16.405  20.578  0.00  0.00    -0.058 A 
ATOM     23  C   UNL     1      49.862  16.714  20.334  0.00  0.00    +0.139 A 
ATOM     24  O   UNL     1      48.908  15.999  20.985  0.00  0.00    -0.299 OA
ATOM     25  C   UNL     1      47.547  16.106  20.555  0.00  0.00    +0.293 C 
ATOM     26  C   UNL     1      47.244  17.585  20.324  0.00  0.00    +0.156 C 
ATOM     27  O   UNL     1      45.877  17.824  20.009  0.00  0.00    -0.286 OA
ATOM     28  C   UNL     1      45.540  19.094  19.667  0.00  0.00    +0.220 A 
ATOM     29  O   UNL     1      42.582  21.229  19.614  0.00  0.00    -0.296 OA
ENDROOT
BRANCH  16  17
ATOM     17  O   UNL     1      52.872  18.837  18.441  0.00  0.00    -0.304 OA
ATOM     18  C   UNL     1      52.532  20.131  17.938  0.00  0.00    +0.238 C 
ENDBRANCH  16  17
BRANCH  19  20
ATOM     20  O   UNL     1      53.507  16.802  20.188  0.00  0.00    -0.299 OA
ATOM     21  C   UNL     1      54.032  15.647  19.532  0.00  0.00    +0.242 C 
ENDBRANCH  19  20
TORSDOF 2
ENDMDL
MODEL 5
REMARK VINA RESULT:      -5.7      2.725      4.676
REMARK  Name = ZINC03978989
REMARK  6 active torsions:
REMARK  status: ('A' for Active; 'I' for Inactive)
REMARK    1  A    between atoms: C1_1  and  C2_2
REMARK    2  A    between atoms: C2_2  and  C23_31
REMARK    3  A    between atoms: C15_18  and  O5_28
REMARK    4  A    between atoms: C16_19  and  O4_26
REMARK    5  A    between atoms: O4_26  and  C21_27
REMARK    6  A    between atoms: O5_28  and  C22_29
REMARK                            x       y       z     vdW  Elec       q    Type
REMARK                         _______ _______ _______ _____ _____    ______ ____
ROOT
ATOM      1  C   UNL     1      48.444  11.698  17.188  0.00  0.00    +0.038 C 
ATOM      2  C   UNL     1      49.009  11.874  18.599  0.00  0.00    +0.145 C 
ATOM      3  C   UNL     1      49.750  10.599  19.008  0.00  0.00    +0.086 C 
ATOM      4  C   UNL     1      49.973  13.032  18.606  0.00  0.00    -0.053 C 
ATOM      5  C   UNL     1      49.530  14.263  18.848  0.00  0.00    +0.059 C 
ATOM      6  C   UNL     1      48.087  14.444  19.115  0.00  0.00    -0.173 A 
ATOM      7  C   UNL     1      47.322  13.315  19.446  0.00  0.00    +0.204 A 
ATOM      8  C   UNL     1      45.964  13.443  19.702  0.00  0.00    -0.037 A 
ATOM      9  C   UNL     1      45.359  14.679  19.633  0.00  0.00    +0.161 A 
ATOM     10  C   UNL     1      46.111  15.812  19.304  0.00  0.00    -0.275 A 
ATOM     11  C   UNL     1      45.466  17.137  19.225  0.00  0.00    +0.418 C 
ATOM     12  O   UNL     1      44.343  17.340  19.636  0.00  0.00    -0.430 OA
ATOM     13  C   UNL     1      46.308  18.225  18.590  0.00  0.00    +0.013 C 
ATOM     14  C   UNL     1      45.801  19.587  18.964  0.00  0.00    -0.161 A 
ATOM     15  C   UNL     1      44.437  19.823  19.010  0.00  0.00    +0.043 A 
ATOM     16  C   UNL     1      43.956  21.082  19.322  0.00  0.00    +0.071 A 
ATOM     19  C   UNL     1      44.848  22.115  19.594  0.00  0.00    +0.145 A 
ATOM     22  C   UNL     1      46.210  21.878  19.553  0.00  0.00    -0.058 A 
ATOM     23  C   UNL     1      46.695  20.611  19.241  0.00  0.00    +0.139 A 
ATOM     24  O   UNL     1      48.040  20.425  19.222  0.00  0.00    -0.299 OA
ATOM     25  C   UNL     1      48.566  19.225  18.646  0.00  0.00    +0.293 C 
ATOM     26  C   UNL     1      47.728  18.055  19.157  0.00  0.00    +0.156 C 
ATOM     27  O   UNL     1      48.238  16.792  18.743  0.00  0.00    -0.286 OA
ATOM     28  C   UNL     1      47.489  15.700  19.046  0.00  0.00    +0.220 A 
ATOM     29  O   UNL     1      47.936  12.109  19.511  0.00  0.00    -0.296 OA
ENDROOT
BRANCH  16  17
ATOM     17  O   UNL     1      42.615  21.309  19.365  0.00  0.00    -0.304 OA
ATOM     18  C   UNL     1      41.791  20.483  18.539  0.00  0.00    +0.238 C 
ENDBRANCH  16  17
BRANCH  19  20
ATOM     20  O   UNL     1      44.382  23.356  19.897  0.00  0.00    -0.299 OA
ATOM     21  C   UNL     1      44.448  24.344  18.867  0.00  0.00    +0.242 C 
ENDBRANCH  19  20
TORSDOF 2
ENDMDL
MODEL 6
REMARK VINA RESULT:      -5.6      2.857      8.722
REMARK  Name = ZINC03978989
REMARK  6 active torsions:
REMARK  status: ('A' for Active; 'I' for Inactive)
REMARK    1  A    between atoms: C1_1  and  C2_2
REMARK    2  A    between atoms: C2_2  and  C23_31
REMARK    3  A    between atoms: C15_18  and  O5_28
REMARK    4  A    between atoms: C16_19  and  O4_26
REMARK    5  A    between atoms: O4_26  and  C21_27
REMARK    6  A    between atoms: O5_28  and  C22_29
REMARK                            x       y       z     vdW  Elec       q    Type
REMARK                         _______ _______ _______ _____ _____    ______ ____
ROOT
ATOM      1  C   UNL     1      44.698  21.650  21.527  0.00  0.00    +0.038 C 
ATOM      2  C   UNL     1      44.273  21.706  20.058  0.00  0.00    +0.145 C 
ATOM      3  C   UNL     1      43.214  22.795  19.880  0.00  0.00    +0.086 C 
ATOM      4  C   UNL     1      45.471  22.035  19.207  0.00  0.00    -0.053 C 
ATOM      5  C   UNL     1      46.242  21.057  18.737  0.00  0.00    +0.059 C 
ATOM      6  C   UNL     1      45.876  19.663  19.068  0.00  0.00    -0.173 A 
ATOM      7  C   UNL     1      44.581  19.407  19.544  0.00  0.00    +0.204 A 
ATOM      8  C   UNL     1      44.199  18.112  19.867  0.00  0.00    -0.037 A 
ATOM      9  C   UNL     1      45.089  17.071  19.721  0.00  0.00    +0.161 A 
ATOM     10  C   UNL     1      46.382  17.313  19.247  0.00  0.00    -0.275 A 
ATOM     11  C   UNL     1      47.340  16.201  19.093  0.00  0.00    +0.418 C 
ATOM     12  O   UNL     1      47.003  15.038  19.159  0.00  0.00    -0.430 OA
ATOM     13  C   UNL     1      48.776  16.618  18.848  0.00  0.00    +0.013 C 
ATOM     14  C   UNL     1      49.569  15.494  18.249  0.00  0.00    -0.161 A 
ATOM     15  C   UNL     1      49.382  14.201  18.707  0.00  0.00    +0.043 A 
ATOM     16  C   UNL     1      50.129  13.159  18.186  0.00  0.00    +0.071 A 
ATOM     19  C   UNL     1      51.072  13.414  17.195  0.00  0.00    +0.145 A 
ATOM     22  C   UNL     1      51.256  14.705  16.734  0.00  0.00    -0.058 A 
ATOM     23  C   UNL     1      50.503  15.752  17.256  0.00  0.00    +0.139 A 
ATOM     24  O   UNL     1      50.713  17.002  16.765  0.00  0.00    -0.299 OA
ATOM     25  C   UNL     1      50.160  18.123  17.462  0.00  0.00    +0.293 C 
ATOM     26  C   UNL     1      48.721  17.776  17.838  0.00  0.00    +0.156 C 
ATOM     27  O   UNL     1      48.030  18.869  18.432  0.00  0.00    -0.286 OA
ATOM     28  C   UNL     1      46.784  18.618  18.911  0.00  0.00    +0.220 A 
ATOM     29  O   UNL     1      43.720  20.445  19.679  0.00  0.00    -0.296 OA
ENDROOT
BRANCH  16  17
ATOM     17  O   UNL     1      49.942  11.890  18.640  0.00  0.00    -0.304 OA
ATOM     18  C   UNL     1      48.594  11.477  18.873  0.00  0.00    +0.238 C 
ENDBRANCH  16  17
BRANCH  19  20
ATOM     20  O   UNL     1      51.813  12.396  16.681  0.00  0.00    -0.299 OA
ATOM     21  C   UNL     1      51.808  12.242  15.261  0.00  0.00    +0.242 C 
ENDBRANCH  19  20
TORSDOF 2
ENDMDL
MODEL 7
REMARK VINA RESULT:      -5.6      3.374      8.881
REMARK  Name = ZINC03978989
REMARK  6 active torsions:
REMARK  status: ('A' for Active; 'I' for Inactive)
REMARK    1  A    between atoms: C1_1  and  C2_2
REMARK    2  A    between atoms: C2_2  and  C23_31
REMARK    3  A    between atoms: C15_18  and  O5_28
REMARK    4  A    between atoms: C16_19  and  O4_26
REMARK    5  A    between atoms: O4_26  and  C21_27
REMARK    6  A    between atoms: O5_28  and  C22_29
REMARK                            x       y       z     vdW  Elec       q    Type
REMARK                         _______ _______ _______ _____ _____    ______ ____
ROOT
ATOM      1  C   UNL     1      41.490  19.739  17.791  0.00  0.00    +0.038 C 
ATOM      2  C   UNL     1      42.124  20.451  18.987  0.00  0.00    +0.145 C 
ATOM      3  C   UNL     1      41.482  21.830  19.151  0.00  0.00    +0.086 C 
ATOM      4  C   UNL     1      41.883  19.640  20.233  0.00  0.00    -0.053 C 
ATOM      5  C   UNL     1      42.752  18.698  20.591  0.00  0.00    +0.059 C 
ATOM      6  C   UNL     1      43.944  18.491  19.741  0.00  0.00    -0.173 A 
ATOM      7  C   UNL     1      44.292  19.494  18.822  0.00  0.00    +0.204 A 
ATOM      8  C   UNL     1      45.403  19.337  18.005  0.00  0.00    -0.037 A 
ATOM      9  C   UNL     1      46.171  18.197  18.091  0.00  0.00    +0.161 A 
ATOM     10  C   UNL     1      45.836  17.191  19.003  0.00  0.00    -0.275 A 
ATOM     11  C   UNL     1      46.653  15.966  19.096  0.00  0.00    +0.418 C 
ATOM     12  O   UNL     1      47.739  15.867  18.564  0.00  0.00    -0.430 OA
ATOM     13  C   UNL     1      46.037  14.841  19.903  0.00  0.00    +0.013 C 
ATOM     14  C   UNL     1      47.081  13.855  20.338  0.00  0.00    -0.161 A 
ATOM     15  C   UNL     1      48.091  13.493  19.462  0.00  0.00    +0.043 A 
ATOM     16  C   UNL     1      49.042  12.561  19.839  0.00  0.00    +0.071 A 
ATOM     19  C   UNL     1      48.984  11.988  21.106  0.00  0.00    +0.145 A 
ATOM     22  C   UNL     1      47.978  12.353  21.982  0.00  0.00    -0.058 A 
ATOM     23  C   UNL     1      47.023  13.292  21.605  0.00  0.00    +0.139 A 
ATOM     24  O   UNL     1      46.059  13.625  22.503  0.00  0.00    -0.299 OA
ATOM     25  C   UNL     1      44.922  14.370  22.056  0.00  0.00    +0.293 C 
ATOM     26  C   UNL     1      45.424  15.494  21.153  0.00  0.00    +0.156 C 
ATOM     27  O   UNL     1      44.385  16.377  20.745  0.00  0.00    -0.286 OA
ATOM     28  C   UNL     1      44.715  17.335  19.842  0.00  0.00    +0.220 A 
ATOM     29  O   UNL     1      43.524  20.609  18.754  0.00  0.00    -0.296 OA
ENDROOT
BRANCH  16  17
ATOM     17  O   UNL     1      50.032  12.207  18.974  0.00  0.00    -0.304 OA
ATOM     18  C   UNL     1      51.113  13.129  18.814  0.00  0.00    +0.238 C 
ENDBRANCH  16  17
BRANCH  19  20
ATOM     20  O   UNL     1      49.913  11.068  21.481  0.00  0.00    -0.299 OA
ATOM     21  C   UNL     1      50.951  11.514  22.356  0.00  0.00    +0.242 C 
ENDBRANCH  19  20
TORSDOF 2
ENDMDL
MODEL 8
REMARK VINA RESULT:      -5.2      3.755      5.272
REMARK  Name = ZINC03978989
REMARK  6 active torsions:
REMARK  status: ('A' for Active; 'I' for Inactive)
REMARK    1  A    between atoms: C1_1  and  C2_2
REMARK    2  A    between atoms: C2_2  and  C23_31
REMARK    3  A    between atoms: C15_18  and  O5_28
REMARK    4  A    between atoms: C16_19  and  O4_26
REMARK    5  A    between atoms: O4_26  and  C21_27
REMARK    6  A    between atoms: O5_28  and  C22_29
REMARK                            x       y       z     vdW  Elec       q    Type
REMARK                         _______ _______ _______ _____ _____    ______ ____
ROOT
ATOM      1  C   UNL     1      48.297  10.840  17.655  0.00  0.00    +0.038 C 
ATOM      2  C   UNL     1      47.392  11.395  16.554  0.00  0.00    +0.145 C 
ATOM      3  C   UNL     1      47.257  10.355  15.440  0.00  0.00    +0.086 C 
ATOM      4  C   UNL     1      46.031  11.687  17.129  0.00  0.00    -0.053 C 
ATOM      5  C   UNL     1      45.775  12.879  17.661  0.00  0.00    +0.059 C 
ATOM      6  C   UNL     1      46.855  13.890  17.654  0.00  0.00    -0.173 A 
ATOM      7  C   UNL     1      47.952  13.690  16.801  0.00  0.00    +0.204 A 
ATOM      8  C   UNL     1      48.986  14.615  16.766  0.00  0.00    -0.037 A 
ATOM      9  C   UNL     1      48.942  15.735  17.568  0.00  0.00    +0.161 A 
ATOM     10  C   UNL     1      47.854  15.945  18.421  0.00  0.00    -0.275 A 
ATOM     11  C   UNL     1      47.805  17.141  19.285  0.00  0.00    +0.418 C 
ATOM     12  O   UNL     1      48.566  18.075  19.147  0.00  0.00    -0.430 OA
ATOM     13  C   UNL     1      46.735  17.116  20.358  0.00  0.00    +0.013 C 
ATOM     14  C   UNL     1      46.442  18.499  20.860  0.00  0.00    -0.161 A 
ATOM     15  C   UNL     1      47.482  19.392  21.059  0.00  0.00    +0.043 A 
ATOM     16  C   UNL     1      47.229  20.660  21.551  0.00  0.00    +0.071 A 
ATOM     19  C   UNL     1      45.923  21.040  21.845  0.00  0.00    +0.145 A 
ATOM     22  C   UNL     1      44.885  20.150  21.641  0.00  0.00    -0.058 A 
ATOM     23  C   UNL     1      45.137  18.875  21.144  0.00  0.00    +0.139 A 
ATOM     24  O   UNL     1      44.083  18.040  20.952  0.00  0.00    -0.299 OA
ATOM     25  C   UNL     1      44.334  16.652  20.706  0.00  0.00    +0.293 C 
ATOM     26  C   UNL     1      45.469  16.555  19.689  0.00  0.00    +0.156 C 
ATOM     27  O   UNL     1      45.723  15.218  19.276  0.00  0.00    -0.286 OA
ATOM     28  C   UNL     1      46.795  15.020  18.466  0.00  0.00    +0.220 A 
ATOM     29  O   UNL     1      47.975  12.584  16.019  0.00  0.00    -0.296 OA
ENDROOT
BRANCH  16  17
ATOM     17  O   UNL     1      48.255  21.534  21.747  0.00  0.00    -0.304 OA
ATOM     18  C   UNL     1      49.579  20.996  21.715  0.00  0.00    +0.238 C 
ENDBRANCH  16  17
BRANCH  19  20
ATOM     20  O   UNL     1      45.668  22.284  22.334  0.00  0.00    -0.299 OA
ATOM     21  C   UNL     1      44.760  23.099  21.591  0.00  0.00    +0.242 C 
ENDBRANCH  19  20
TORSDOF 2
ENDMDL
MODEL 9
REMARK VINA RESULT:      -5.1      3.619      9.035
REMARK  Name = ZINC03978989
REMARK  6 active torsions:
REMARK  status: ('A' for Active; 'I' for Inactive)
REMARK    1  A    between atoms: C1_1  and  C2_2
REMARK    2  A    between atoms: C2_2  and  C23_31
REMARK    3  A    between atoms: C15_18  and  O5_28
REMARK    4  A    between atoms: C16_19  and  O4_26
REMARK    5  A    between atoms: O4_26  and  C21_27
REMARK    6  A    between atoms: O5_28  and  C22_29
REMARK                            x       y       z     vdW  Elec       q    Type
REMARK                         _______ _______ _______ _____ _____    ______ ____
ROOT
ATOM      1  C   UNL     1      45.028  21.228  21.195  0.00  0.00    +0.038 C 
ATOM      2  C   UNL     1      44.302  20.971  19.873  0.00  0.00    +0.145 C 
ATOM      3  C   UNL     1      43.305  22.103  19.618  0.00  0.00    +0.086 C 
ATOM      4  C   UNL     1      45.308  20.933  18.754  0.00  0.00    -0.053 C 
ATOM      5  C   UNL     1      45.893  19.784  18.423  0.00  0.00    +0.059 C 
ATOM      6  C   UNL     1      45.513  18.569  19.176  0.00  0.00    -0.173 A 
ATOM      7  C   UNL     1      44.337  18.597  19.941  0.00  0.00    +0.204 A 
ATOM      8  C   UNL     1      43.947  17.478  20.664  0.00  0.00    -0.037 A 
ATOM      9  C   UNL     1      44.713  16.333  20.633  0.00  0.00    +0.161 A 
ATOM     10  C   UNL     1      45.887  16.292  19.874  0.00  0.00    -0.275 A 
ATOM     11  C   UNL     1      46.713  15.069  19.842  0.00  0.00    +0.418 C 
ATOM     12  O   UNL     1      46.320  14.008  20.279  0.00  0.00    -0.430 OA
ATOM     13  C   UNL     1      48.088  15.237  19.227  0.00  0.00    +0.013 C 
ATOM     14  C   UNL     1      48.656  13.913  18.809  0.00  0.00    -0.161 A 
ATOM     15  C   UNL     1      48.485  12.805  19.621  0.00  0.00    +0.043 A 
ATOM     16  C   UNL     1      49.031  11.585  19.263  0.00  0.00    +0.071 A 
ATOM     19  C   UNL     1      49.754  11.472  18.079  0.00  0.00    +0.145 A 
ATOM     22  C   UNL     1      49.920  12.577  17.266  0.00  0.00    -0.058 A 
ATOM     23  C   UNL     1      49.369  13.804  17.623  0.00  0.00    +0.139 A 
ATOM     24  O   UNL     1      49.552  14.859  16.788  0.00  0.00    -0.299 OA
ATOM     25  C   UNL     1      49.238  16.176  17.253  0.00  0.00    +0.293 C 
ATOM     26  C   UNL     1      47.894  16.109  17.975  0.00  0.00    +0.156 C 
ATOM     27  O   UNL     1      47.422  17.389  18.377  0.00  0.00    -0.286 OA
ATOM     28  C   UNL     1      46.294  17.417  19.133  0.00  0.00    +0.220 A 
ATOM     29  O   UNL     1      43.597  19.732  19.956  0.00  0.00    -0.296 OA
ENDROOT
BRANCH  16  17
ATOM     17  O   UNL     1      48.861  10.499  20.066  0.00  0.00    -0.304 OA
ATOM     18  C   UNL     1      49.471  10.546  21.358  0.00  0.00    +0.238 C 
ENDBRANCH  16  17
BRANCH  19  20
ATOM     20  O   UNL     1      50.297  10.277  17.724  0.00  0.00    -0.299 OA
ATOM     21  C   UNL     1      51.663  10.283  17.307  0.00  0.00    +0.242 C 
ENDBRANCH  19  20
TORSDOF 2
ENDMDL
