MODEL 1
REMARK VINA RESULT:      -5.7      0.000      0.000
REMARK  Name = ZINC14815320
REMARK  5 active torsions:
REMARK  status: ('A' for Active; 'I' for Inactive)
REMARK    1  A    between atoms: C1_1  and  C2_2
REMARK    2  A    between atoms: C4_4  and  O5_20
REMARK    3  A    between atoms: C10_11  and  O4_19
REMARK    4  A    between atoms: C12_13  and  O3_17
REMARK    5  A    between atoms: O3_17  and  C15_18
REMARK                            x       y       z     vdW  Elec       q    Type
REMARK                         _______ _______ _______ _____ _____    ______ ____
ROOT
ATOM      1  C   UNL     1      41.038  18.343  21.357  0.00  0.00    +0.120 C 
ATOM      2  C   UNL     1      41.307  19.486  20.413  0.00  0.00    +0.028 A 
ATOM      3  C   UNL     1      40.266  20.194  19.882  0.00  0.00    -0.039 A 
ATOM      4  C   UNL     1      40.513  21.252  19.010  0.00  0.00    +0.184 A 
ATOM      7  C   UNL     1      41.809  21.598  18.669  0.00  0.00    -0.033 A 
ATOM      8  C   UNL     1      42.879  20.888  19.200  0.00  0.00    +0.185 A 
ATOM      9  O   UNL     1      44.142  21.226  18.871  0.00  0.00    -0.225 OA
ATOM     10  C   UNL     1      45.232  20.585  19.343  0.00  0.00    +0.221 A 
ATOM     11  C   UNL     1      46.498  20.995  18.952  0.00  0.00    -0.041 A 
ATOM     12  C   UNL     1      47.622  20.343  19.434  0.00  0.00    +0.215 A 
ATOM     15  C   UNL     1      47.499  19.271  20.313  0.00  0.00    -0.123 A 
ATOM     16  C   UNL     1      46.246  18.843  20.710  0.00  0.00    +0.246 A 
ATOM     19  C   UNL     1      45.106  19.502  20.230  0.00  0.00    -0.298 A 
ATOM     20  C   UNL     1      43.758  19.071  20.641  0.00  0.00    +0.442 A 
ATOM     21  O   UNL     1      43.593  18.140  21.408  0.00  0.00    -0.436 OA
ATOM     22  C   UNL     1      42.619  19.823  20.079  0.00  0.00    -0.242 A 
ENDROOT
BRANCH   4   5
ATOM      5  O   UNL     1      39.471  21.949  18.489  0.00  0.00    -0.490 OA
ATOM      6  H   UNL     1      39.717  22.535  17.760  0.00  0.00    +0.402 HD
ENDBRANCH   4   5
BRANCH  12  13
ATOM     13  O   UNL     1      48.856  20.753  19.045  0.00  0.00    -0.303 OA
ATOM     14  C   UNL     1      49.957  20.374  19.873  0.00  0.00    +0.257 C 
ENDBRANCH  12  13
BRANCH  16  17
ATOM     17  O   UNL     1      46.121  17.795  21.563  0.00  0.00    -0.474 OA
ATOM     18  H   UNL     1      45.982  16.945  21.123  0.00  0.00    +0.404 HD
ENDBRANCH  16  17
TORSDOF 3
ENDMDL
MODEL 2
REMARK VINA RESULT:      -5.6      2.085      3.791
REMARK  Name = ZINC14815320
REMARK  5 active torsions:
REMARK  status: ('A' for Active; 'I' for Inactive)
REMARK    1  A    between atoms: C1_1  and  C2_2
REMARK    2  A    between atoms: C4_4  and  O5_20
REMARK    3  A    between atoms: C10_11  and  O4_19
REMARK    4  A    between atoms: C12_13  and  O3_17
REMARK    5  A    between atoms: O3_17  and  C15_18
REMARK                            x       y       z     vdW  Elec       q    Type
REMARK                         _______ _______ _______ _____ _____    ______ ____
ROOT
ATOM      1  C   UNL     1      44.048  23.383  19.528  0.00  0.00    +0.120 C 
ATOM      2  C   UNL     1      43.009  22.300  19.396  0.00  0.00    +0.028 A 
ATOM      3  C   UNL     1      41.823  22.562  18.770  0.00  0.00    -0.039 A 
ATOM      4  C   UNL     1      40.862  21.563  18.644  0.00  0.00    +0.184 A 
ATOM      7  C   UNL     1      41.092  20.295  19.150  0.00  0.00    -0.033 A 
ATOM      8  C   UNL     1      42.293  20.011  19.790  0.00  0.00    +0.185 A 
ATOM      9  O   UNL     1      42.519  18.776  20.281  0.00  0.00    -0.225 OA
ATOM     10  C   UNL     1      43.657  18.423  20.914  0.00  0.00    +0.221 A 
ATOM     11  C   UNL     1      43.810  17.130  21.392  0.00  0.00    -0.041 A 
ATOM     12  C   UNL     1      44.977  16.760  22.042  0.00  0.00    +0.215 A 
ATOM     15  C   UNL     1      46.009  17.675  22.226  0.00  0.00    -0.123 A 
ATOM     16  C   UNL     1      45.874  18.971  21.762  0.00  0.00    +0.246 A 
ATOM     19  C   UNL     1      44.699  19.349  21.099  0.00  0.00    -0.298 A 
ATOM     20  C   UNL     1      44.530  20.721  20.589  0.00  0.00    +0.442 A 
ATOM     21  O   UNL     1      45.400  21.562  20.723  0.00  0.00    -0.436 OA
ATOM     22  C   UNL     1      43.255  21.026  19.910  0.00  0.00    -0.242 A 
ENDROOT
BRANCH   4   5
ATOM      5  O   UNL     1      39.687  21.834  18.021  0.00  0.00    -0.490 OA
ATOM      6  H   UNL     1      39.138  22.481  18.483  0.00  0.00    +0.402 HD
ENDBRANCH   4   5
BRANCH  12  13
ATOM     13  O   UNL     1      45.115  15.492  22.505  0.00  0.00    -0.303 OA
ATOM     14  C   UNL     1      45.338  14.467  21.535  0.00  0.00    +0.257 C 
ENDBRANCH  12  13
BRANCH  16  17
ATOM     17  O   UNL     1      46.876  19.868  21.944  0.00  0.00    -0.474 OA
ATOM     18  H   UNL     1      47.151  20.318  21.134  0.00  0.00    +0.404 HD
ENDBRANCH  16  17
TORSDOF 3
ENDMDL
MODEL 3
REMARK VINA RESULT:      -5.5      3.384      5.643
REMARK  Name = ZINC14815320
REMARK  5 active torsions:
REMARK  status: ('A' for Active; 'I' for Inactive)
REMARK    1  A    between atoms: C1_1  and  C2_2
REMARK    2  A    between atoms: C4_4  and  O5_20
REMARK    3  A    between atoms: C10_11  and  O4_19
REMARK    4  A    between atoms: C12_13  and  O3_17
REMARK    5  A    between atoms: O3_17  and  C15_18
REMARK                            x       y       z     vdW  Elec       q    Type
REMARK                         _______ _______ _______ _____ _____    ______ ____
ROOT
ATOM      1  C   UNL     1      45.519  13.882  20.393  0.00  0.00    +0.120 C 
ATOM      2  C   UNL     1      45.939  14.721  19.214  0.00  0.00    +0.028 A 
ATOM      3  C   UNL     1      46.666  14.162  18.200  0.00  0.00    -0.039 A 
ATOM      4  C   UNL     1      47.054  14.935  17.109  0.00  0.00    +0.184 A 
ATOM      7  C   UNL     1      46.713  16.275  17.036  0.00  0.00    -0.033 A 
ATOM      8  C   UNL     1      45.975  16.859  18.058  0.00  0.00    +0.185 A 
ATOM      9  O   UNL     1      45.640  18.163  17.987  0.00  0.00    -0.225 OA
ATOM     10  C   UNL     1      44.927  18.802  18.938  0.00  0.00    +0.221 A 
ATOM     11  C   UNL     1      44.625  20.148  18.789  0.00  0.00    -0.041 A 
ATOM     12  C   UNL     1      43.892  20.810  19.761  0.00  0.00    +0.215 A 
ATOM     15  C   UNL     1      43.448  20.140  20.896  0.00  0.00    -0.123 A 
ATOM     16  C   UNL     1      43.743  18.799  21.067  0.00  0.00    +0.246 A 
ATOM     19  C   UNL     1      44.479  18.123  20.085  0.00  0.00    -0.298 A 
ATOM     20  C   UNL     1      44.803  16.694  20.238  0.00  0.00    +0.442 A 
ATOM     21  O   UNL     1      44.440  16.058  21.211  0.00  0.00    -0.436 OA
ATOM     22  C   UNL     1      45.588  16.070  19.154  0.00  0.00    -0.242 A 
ENDROOT
BRANCH   4   5
ATOM      5  O   UNL     1      47.776  14.370  16.108  0.00  0.00    -0.490 OA
ATOM      6  H   UNL     1      48.025  13.451  16.274  0.00  0.00    +0.402 HD
ENDBRANCH   4   5
BRANCH  12  13
ATOM     13  O   UNL     1      43.603  22.127  19.604  0.00  0.00    -0.303 OA
ATOM     14  C   UNL     1      44.661  23.057  19.844  0.00  0.00    +0.257 C 
ENDBRANCH  12  13
BRANCH  16  17
ATOM     17  O   UNL     1      43.317  18.143  22.176  0.00  0.00    -0.474 OA
ATOM     18  H   UNL     1      42.420  17.790  22.102  0.00  0.00    +0.404 HD
ENDBRANCH  16  17
TORSDOF 3
ENDMDL
MODEL 4
REMARK VINA RESULT:      -5.4      2.466      7.521
REMARK  Name = ZINC14815320
REMARK  5 active torsions:
REMARK  status: ('A' for Active; 'I' for Inactive)
REMARK    1  A    between atoms: C1_1  and  C2_2
REMARK    2  A    between atoms: C4_4  and  O5_20
REMARK    3  A    between atoms: C10_11  and  O4_19
REMARK    4  A    between atoms: C12_13  and  O3_17
REMARK    5  A    between atoms: O3_17  and  C15_18
REMARK                            x       y       z     vdW  Elec       q    Type
REMARK                         _______ _______ _______ _____ _____    ______ ____
ROOT
ATOM      1  C   UNL     1      51.416  17.217  17.542  0.00  0.00    +0.120 C 
ATOM      2  C   UNL     1      51.281  18.619  18.079  0.00  0.00    +0.028 A 
ATOM      3  C   UNL     1      52.397  19.371  18.315  0.00  0.00    -0.039 A 
ATOM      4  C   UNL     1      52.275  20.667  18.809  0.00  0.00    +0.184 A 
ATOM      7  C   UNL     1      51.027  21.209  19.068  0.00  0.00    -0.033 A 
ATOM      8  C   UNL     1      49.883  20.458  18.833  0.00  0.00    +0.185 A 
ATOM      9  O   UNL     1      48.667  20.985  19.083  0.00  0.00    -0.225 OA
ATOM     10  C   UNL     1      47.511  20.319  18.882  0.00  0.00    +0.221 A 
ATOM     11  C   UNL     1      46.300  20.935  19.166  0.00  0.00    -0.041 A 
ATOM     12  C   UNL     1      45.108  20.258  18.961  0.00  0.00    +0.215 A 
ATOM     15  C   UNL     1      45.106  18.956  18.469  0.00  0.00    -0.123 A 
ATOM     16  C   UNL     1      46.302  18.323  18.185  0.00  0.00    +0.246 A 
ATOM     19  C   UNL     1      47.510  19.004  18.385  0.00  0.00    -0.298 A 
ATOM     20  C   UNL     1      48.799  18.356  18.085  0.00  0.00    +0.442 A 
ATOM     21  O   UNL     1      48.856  17.219  17.654  0.00  0.00    -0.436 OA
ATOM     22  C   UNL     1      50.017  19.152  18.334  0.00  0.00    -0.242 A 
ENDROOT
BRANCH   4   5
ATOM      5  O   UNL     1      53.390  21.406  19.040  0.00  0.00    -0.490 OA
ATOM      6  H   UNL     1      53.918  21.096  19.788  0.00  0.00    +0.402 HD
ENDBRANCH   4   5
BRANCH  12  13
ATOM     13  O   UNL     1      43.930  20.870  19.242  0.00  0.00    -0.303 OA
ATOM     14  C   UNL     1      42.735  20.183  18.867  0.00  0.00    +0.257 C 
ENDBRANCH  12  13
BRANCH  16  17
ATOM     17  O   UNL     1      46.305  17.051  17.710  0.00  0.00    -0.474 OA
ATOM     18  H   UNL     1      47.180  16.729  17.456  0.00  0.00    +0.404 HD
ENDBRANCH  16  17
TORSDOF 3
ENDMDL
MODEL 5
REMARK VINA RESULT:      -5.3      6.150      8.370
REMARK  Name = ZINC14815320
REMARK  5 active torsions:
REMARK  status: ('A' for Active; 'I' for Inactive)
REMARK    1  A    between atoms: C1_1  and  C2_2
REMARK    2  A    between atoms: C4_4  and  O5_20
REMARK    3  A    between atoms: C10_11  and  O4_19
REMARK    4  A    between atoms: C12_13  and  O3_17
REMARK    5  A    between atoms: O3_17  and  C15_18
REMARK                            x       y       z     vdW  Elec       q    Type
REMARK                         _______ _______ _______ _____ _____    ______ ____
ROOT
ATOM      1  C   UNL     1      49.527  20.777  19.469  0.00  0.00    +0.120 C 
ATOM      2  C   UNL     1      50.339  20.264  18.307  0.00  0.00    +0.028 A 
ATOM      3  C   UNL     1      51.089  21.129  17.562  0.00  0.00    -0.039 A 
ATOM      4  C   UNL     1      51.841  20.658  16.490  0.00  0.00    +0.184 A 
ATOM      7  C   UNL     1      51.839  19.312  16.163  0.00  0.00    -0.033 A 
ATOM      8  C   UNL     1      51.081  18.419  16.910  0.00  0.00    +0.185 A 
ATOM      9  O   UNL     1      51.080  17.108  16.595  0.00  0.00    -0.225 OA
ATOM     10  C   UNL     1      50.371  16.180  17.271  0.00  0.00    +0.221 A 
ATOM     11  C   UNL     1      50.424  14.850  16.880  0.00  0.00    -0.041 A 
ATOM     12  C   UNL     1      49.699  13.891  17.571  0.00  0.00    +0.215 A 
ATOM     15  C   UNL     1      48.912  14.244  18.661  0.00  0.00    -0.123 A 
ATOM     16  C   UNL     1      48.841  15.565  19.064  0.00  0.00    +0.246 A 
ATOM     19  C   UNL     1      49.576  16.538  18.373  0.00  0.00    -0.298 A 
ATOM     20  C   UNL     1      49.524  17.953  18.783  0.00  0.00    +0.442 A 
ATOM     21  O   UNL     1      48.851  18.318  19.730  0.00  0.00    -0.436 OA
ATOM     22  C   UNL     1      50.327  18.905  17.991  0.00  0.00    -0.242 A 
ENDROOT
BRANCH   4   5
ATOM      5  O   UNL     1      52.583  21.527  15.756  0.00  0.00    -0.490 OA
ATOM      6  H   UNL     1      53.220  22.034  16.275  0.00  0.00    +0.402 HD
ENDBRANCH   4   5
BRANCH  12  13
ATOM     13  O   UNL     1      49.759  12.593  17.179  0.00  0.00    -0.303 OA
ATOM     14  C   UNL     1      50.001  12.344  15.793  0.00  0.00    +0.257 C 
ENDBRANCH  12  13
BRANCH  16  17
ATOM     17  O   UNL     1      48.070  15.915  20.124  0.00  0.00    -0.474 OA
ATOM     18  H   UNL     1      47.161  15.588  20.073  0.00  0.00    +0.404 HD
ENDBRANCH  16  17
TORSDOF 3
ENDMDL
MODEL 6
REMARK VINA RESULT:      -5.2     20.980     23.300
REMARK  Name = ZINC14815320
REMARK  5 active torsions:
REMARK  status: ('A' for Active; 'I' for Inactive)
REMARK    1  A    between atoms: C1_1  and  C2_2
REMARK    2  A    between atoms: C4_4  and  O5_20
REMARK    3  A    between atoms: C10_11  and  O4_19
REMARK    4  A    between atoms: C12_13  and  O3_17
REMARK    5  A    between atoms: O3_17  and  C15_18
REMARK                            x       y       z     vdW  Elec       q    Type
REMARK                         _______ _______ _______ _____ _____    ______ ____
ROOT
ATOM      1  C   UNL     1      54.504  35.331   6.786  0.00  0.00    +0.120 C 
ATOM      2  C   UNL     1      53.368  34.497   6.251  0.00  0.00    +0.028 A 
ATOM      3  C   UNL     1      52.197  34.409   6.950  0.00  0.00    -0.039 A 
ATOM      4  C   UNL     1      51.145  33.641   6.457  0.00  0.00    +0.184 A 
ATOM      7  C   UNL     1      51.270  32.959   5.259  0.00  0.00    -0.033 A 
ATOM      8  C   UNL     1      52.454  33.038   4.536  0.00  0.00    +0.185 A 
ATOM      9  O   UNL     1      52.576  32.375   3.368  0.00  0.00    -0.225 OA
ATOM     10  C   UNL     1      53.692  32.402   2.610  0.00  0.00    +0.221 A 
ATOM     11  C   UNL     1      53.736  31.690   1.420  0.00  0.00    -0.041 A 
ATOM     12  C   UNL     1      54.879  31.713   0.636  0.00  0.00    +0.215 A 
ATOM     15  C   UNL     1      55.994  32.448   1.026  0.00  0.00    -0.123 A 
ATOM     16  C   UNL     1      55.972  33.160   2.212  0.00  0.00    +0.246 A 
ATOM     19  C   UNL     1      54.818  33.144   3.006  0.00  0.00    -0.298 A 
ATOM     20  C   UNL     1      54.765  33.898   4.271  0.00  0.00    +0.442 A 
ATOM     21  O   UNL     1      55.711  34.557   4.661  0.00  0.00    -0.436 OA
ATOM     22  C   UNL     1      53.509  33.815   5.042  0.00  0.00    -0.242 A 
ENDROOT
BRANCH   4   5
ATOM      5  O   UNL     1      49.986  33.560   7.159  0.00  0.00    -0.490 OA
ATOM      6  H   UNL     1      49.241  33.215   6.649  0.00  0.00    +0.402 HD
ENDBRANCH   4   5
BRANCH  12  13
ATOM     13  O   UNL     1      54.911  31.013  -0.526  0.00  0.00    -0.303 OA
ATOM     14  C   UNL     1      56.064  30.204  -0.765  0.00  0.00    +0.257 C 
ENDBRANCH  12  13
BRANCH  16  17
ATOM     17  O   UNL     1      57.060  33.873   2.599  0.00  0.00    -0.474 OA
ATOM     18  H   UNL     1      57.417  34.449   1.910  0.00  0.00    +0.404 HD
ENDBRANCH  16  17
TORSDOF 3
ENDMDL
MODEL 7
REMARK VINA RESULT:      -5.1     21.009     23.304
REMARK  Name = ZINC14815320
REMARK  5 active torsions:
REMARK  status: ('A' for Active; 'I' for Inactive)
REMARK    1  A    between atoms: C1_1  and  C2_2
REMARK    2  A    between atoms: C4_4  and  O5_20
REMARK    3  A    between atoms: C10_11  and  O4_19
REMARK    4  A    between atoms: C12_13  and  O3_17
REMARK    5  A    between atoms: O3_17  and  C15_18
REMARK                            x       y       z     vdW  Elec       q    Type
REMARK                         _______ _______ _______ _____ _____    ______ ____
ROOT
ATOM      1  C   UNL     1      54.914  33.117   6.069  0.00  0.00    +0.120 C 
ATOM      2  C   UNL     1      53.472  33.115   5.629  0.00  0.00    +0.028 A 
ATOM      3  C   UNL     1      52.483  33.406   6.526  0.00  0.00    -0.039 A 
ATOM      4  C   UNL     1      51.150  33.408   6.122  0.00  0.00    +0.184 A 
ATOM      7  C   UNL     1      50.810  33.114   4.812  0.00  0.00    -0.033 A 
ATOM      8  C   UNL     1      51.803  32.815   3.888  0.00  0.00    +0.185 A 
ATOM      9  O   UNL     1      51.473  32.531   2.612  0.00  0.00    -0.225 OA
ATOM     10  C   UNL     1      52.378  32.231   1.657  0.00  0.00    +0.221 A 
ATOM     11  C   UNL     1      51.954  31.950   0.367  0.00  0.00    -0.041 A 
ATOM     12  C   UNL     1      52.878  31.642  -0.620  0.00  0.00    +0.215 A 
ATOM     15  C   UNL     1      54.239  31.611  -0.333  0.00  0.00    -0.123 A 
ATOM     16  C   UNL     1      54.682  31.884   0.949  0.00  0.00    +0.246 A 
ATOM     19  C   UNL     1      53.753  32.201   1.948  0.00  0.00    -0.298 A 
ATOM     20  C   UNL     1      54.197  32.501   3.321  0.00  0.00    +0.442 A 
ATOM     21  O   UNL     1      55.375  32.488   3.627  0.00  0.00    -0.436 OA
ATOM     22  C   UNL     1      53.144  32.818   4.306  0.00  0.00    -0.242 A 
ENDROOT
BRANCH   4   5
ATOM      5  O   UNL     1      50.176  33.698   7.021  0.00  0.00    -0.490 OA
ATOM      6  H   UNL     1      50.493  34.159   7.809  0.00  0.00    +0.402 HD
ENDBRANCH   4   5
BRANCH  12  13
ATOM     13  O   UNL     1      52.451  31.368  -1.878  0.00  0.00    -0.303 OA
ATOM     14  C   UNL     1      51.087  31.666  -2.181  0.00  0.00    +0.257 C 
ENDBRANCH  12  13
BRANCH  16  17
ATOM     17  O   UNL     1      56.008  31.850   1.233  0.00  0.00    -0.474 OA
ATOM     18  H   UNL     1      56.418  32.723   1.299  0.00  0.00    +0.404 HD
ENDBRANCH  16  17
TORSDOF 3
ENDMDL
MODEL 8
REMARK VINA RESULT:      -5.1     21.699     22.878
REMARK  Name = ZINC14815320
REMARK  5 active torsions:
REMARK  status: ('A' for Active; 'I' for Inactive)
REMARK    1  A    between atoms: C1_1  and  C2_2
REMARK    2  A    between atoms: C4_4  and  O5_20
REMARK    3  A    between atoms: C10_11  and  O4_19
REMARK    4  A    between atoms: C12_13  and  O3_17
REMARK    5  A    between atoms: O3_17  and  C15_18
REMARK                            x       y       z     vdW  Elec       q    Type
REMARK                         _______ _______ _______ _____ _____    ______ ____
ROOT
ATOM      1  C   UNL     1      53.711  35.401   7.128  0.00  0.00    +0.120 C 
ATOM      2  C   UNL     1      53.157  34.505   6.050  0.00  0.00    +0.028 A 
ATOM      3  C   UNL     1      51.813  34.480   5.804  0.00  0.00    -0.039 A 
ATOM      4  C   UNL     1      51.300  33.654   4.807  0.00  0.00    +0.184 A 
ATOM      7  C   UNL     1      52.139  32.848   4.057  0.00  0.00    -0.033 A 
ATOM      8  C   UNL     1      53.508  32.861   4.295  0.00  0.00    +0.185 A 
ATOM      9  O   UNL     1      54.327  32.078   3.563  0.00  0.00    -0.225 OA
ATOM     10  C   UNL     1      55.664  32.034   3.735  0.00  0.00    +0.221 A 
ATOM     11  C   UNL     1      56.436  31.199   2.940  0.00  0.00    -0.041 A 
ATOM     12  C   UNL     1      57.811  31.149   3.109  0.00  0.00    +0.215 A 
ATOM     15  C   UNL     1      58.437  31.932   4.074  0.00  0.00    -0.123 A 
ATOM     16  C   UNL     1      57.685  32.767   4.881  0.00  0.00    +0.246 A 
ATOM     19  C   UNL     1      56.295  32.825   4.710  0.00  0.00    -0.298 A 
ATOM     20  C   UNL     1      55.471  33.710   5.552  0.00  0.00    +0.442 A 
ATOM     21  O   UNL     1      55.965  34.416   6.411  0.00  0.00    -0.436 OA
ATOM     22  C   UNL     1      54.016  33.698   5.302  0.00  0.00    -0.242 A 
ENDROOT
BRANCH   4   5
ATOM      5  O   UNL     1      49.963  33.638   4.571  0.00  0.00    -0.490 OA
ATOM      6  H   UNL     1      49.431  33.411   5.345  0.00  0.00    +0.402 HD
ENDBRANCH   4   5
BRANCH  12  13
ATOM     13  O   UNL     1      58.555  30.328   2.325  0.00  0.00    -0.303 OA
ATOM     14  C   UNL     1      58.226  28.938   2.344  0.00  0.00    +0.257 C 
ENDBRANCH  12  13
BRANCH  16  17
ATOM     17  O   UNL     1      58.291  33.528   5.827  0.00  0.00    -0.474 OA
ATOM     18  H   UNL     1      58.149  33.216   6.731  0.00  0.00    +0.404 HD
ENDBRANCH  16  17
TORSDOF 3
ENDMDL
MODEL 9
REMARK VINA RESULT:      -5.0     21.351     23.707
REMARK  Name = ZINC14815320
REMARK  5 active torsions:
REMARK  status: ('A' for Active; 'I' for Inactive)
REMARK    1  A    between atoms: C1_1  and  C2_2
REMARK    2  A    between atoms: C4_4  and  O5_20
REMARK    3  A    between atoms: C10_11  and  O4_19
REMARK    4  A    between atoms: C12_13  and  O3_17
REMARK    5  A    between atoms: O3_17  and  C15_18
REMARK                            x       y       z     vdW  Elec       q    Type
REMARK                         _______ _______ _______ _____ _____    ______ ____
ROOT
ATOM      1  C   UNL     1      50.819  33.333   5.092  0.00  0.00    +0.120 C 
ATOM      2  C   UNL     1      52.310  33.141   4.993  0.00  0.00    +0.028 A 
ATOM      3  C   UNL     1      53.101  33.346   6.089  0.00  0.00    -0.039 A 
ATOM      4  C   UNL     1      54.479  33.167   6.001  0.00  0.00    +0.184 A 
ATOM      7  C   UNL     1      55.065  32.782   4.808  0.00  0.00    -0.033 A 
ATOM      8  C   UNL     1      54.277  32.569   3.684  0.00  0.00    +0.185 A 
ATOM      9  O   UNL     1      54.847  32.192   2.522  0.00  0.00    -0.225 OA
ATOM     10  C   UNL     1      54.149  31.967   1.389  0.00  0.00    +0.221 A 
ATOM     11  C   UNL     1      54.814  31.582   0.234  0.00  0.00    -0.041 A 
ATOM     12  C   UNL     1      54.104  31.347  -0.934  0.00  0.00    +0.215 A 
ATOM     15  C   UNL     1      52.721  31.493  -0.966  0.00  0.00    -0.123 A 
ATOM     16  C   UNL     1      52.040  31.882   0.174  0.00  0.00    +0.246 A 
ATOM     19  C   UNL     1      52.752  32.115   1.358  0.00  0.00    -0.298 A 
ATOM     20  C   UNL     1      52.052  32.523   2.588  0.00  0.00    +0.442 A 
ATOM     21  O   UNL     1      50.843  32.667   2.617  0.00  0.00    -0.436 OA
ATOM     22  C   UNL     1      52.887  32.752   3.784  0.00  0.00    -0.242 A 
ENDROOT
BRANCH   4   5
ATOM      5  O   UNL     1      55.254  33.375   7.096  0.00  0.00    -0.490 OA
ATOM      6  H   UNL     1      56.130  32.970   7.039  0.00  0.00    +0.402 HD
ENDBRANCH   4   5
BRANCH  12  13
ATOM     13  O   UNL     1      54.765  30.972  -2.058  0.00  0.00    -0.303 OA
ATOM     14  C   UNL     1      55.179  29.607  -2.142  0.00  0.00    +0.257 C 
ENDBRANCH  12  13
BRANCH  16  17
ATOM     17  O   UNL     1      50.692  32.030   0.145  0.00  0.00    -0.474 OA
ATOM     18  H   UNL     1      50.391  32.922   0.368  0.00  0.00    +0.404 HD
ENDBRANCH  16  17
TORSDOF 3
ENDMDL
