MODEL 1
REMARK VINA RESULT:      -6.3      0.000      0.000
REMARK  Name = ZINC13539005
REMARK  9 active torsions:
REMARK  status: ('A' for Active; 'I' for Inactive)
REMARK    1  A    between atoms: C1_1  and  C2_2
REMARK    2  A    between atoms: C2_2  and  C19_25
REMARK    3  A    between atoms: C3_3  and  C4_4
REMARK    4  A    between atoms: C4_4  and  C5_5
REMARK    5  A    between atoms: C9_9  and  O2_13
REMARK    6  A    between atoms: C10_10  and  O1_11
REMARK    7  A    between atoms: O1_11  and  C11_12
REMARK    8  A    between atoms: C14_17  and  O6_24
REMARK    9  A    between atoms: C16_19  and  O5_23
REMARK                            x       y       z     vdW  Elec       q    Type
REMARK                         _______ _______ _______ _____ _____    ______ ____
ROOT
ATOM      6  C   UNL     1      46.515  19.488  20.441  0.00  0.00    +0.019 A 
ATOM      7  C   UNL     1      45.198  19.753  20.056  0.00  0.00    -0.225 A 
ATOM      8  C   UNL     1      44.277  18.706  19.903  0.00  0.00    +0.179 A 
ATOM      9  O   UNL     1      43.004  18.950  19.526  0.00  0.00    -0.225 OA
ATOM     10  C   UNL     1      42.523  20.187  19.285  0.00  0.00    +0.200 A 
ATOM     11  C   UNL     1      41.198  20.352  18.909  0.00  0.00    -0.035 A 
ATOM     12  C   UNL     1      40.699  21.619  18.648  0.00  0.00    +0.198 A 
ATOM     15  C   UNL     1      41.515  22.740  18.759  0.00  0.00    -0.059 A 
ATOM     16  C   UNL     1      42.838  22.597  19.133  0.00  0.00    +0.224 A 
ATOM     19  C   UNL     1      43.349  21.319  19.398  0.00  0.00    -0.272 A 
ATOM     20  C   UNL     1      44.687  17.401  20.150  0.00  0.00    -0.013 A 
ATOM     21  C   UNL     1      45.989  17.144  20.537  0.00  0.00    +0.165 A 
ATOM     24  C   UNL     1      44.754  21.136  19.798  0.00  0.00    +0.439 A 
ATOM     25  O   UNL     1      45.513  22.083  19.912  0.00  0.00    -0.422 OA
ATOM     26  C   UNL     1      46.907  18.188  20.683  0.00  0.00    +0.039 A 
ENDROOT
BRANCH  12  13
ATOM     13  O   UNL     1      39.401  21.768  18.281  0.00  0.00    -0.487 OA
ATOM     14  H   UNL     1      38.931  22.459  18.766  0.00  0.00    +0.405 HD
ENDBRANCH  12  13
BRANCH  16  17
ATOM     17  O   UNL     1      43.638  23.688  19.242  0.00  0.00    -0.472 OA
ATOM     18  H   UNL     1      44.545  23.485  19.511  0.00  0.00    +0.403 HD
ENDBRANCH  16  17
BRANCH  21  22
ATOM     22  O   UNL     1      46.381  15.866  20.776  0.00  0.00    -0.477 OA
ATOM     23  H   UNL     1      45.649  15.248  20.911  0.00  0.00    +0.398 HD
ENDBRANCH  21  22
BRANCH  26  27
ATOM     27  O   UNL     1      48.186  17.922  21.064  0.00  0.00    -0.313 OA
ATOM     28  C   UNL     1      48.443  17.856  22.468  0.00  0.00    +0.222 C 
ENDBRANCH  26  27
BRANCH   6   5
ATOM      5  C   UNL     1      47.500  20.617  20.598  0.00  0.00    +0.129 C 
BRANCH   5   4
ATOM      1  C   UNL     1      50.512  20.665  18.220  0.00  0.00    +0.073 C 
ATOM      2  C   UNL     1      49.659  20.714  19.461  0.00  0.00    -0.128 C 
ATOM      3  C   UNL     1      50.309  20.761  20.820  0.00  0.00    +0.074 C 
ATOM      4  C   UNL     1      48.353  20.715  19.359  0.00  0.00    -0.037 C 
ENDBRANCH   5   4
ENDBRANCH   6   5
TORSDOF 6
ENDMDL
MODEL 2
REMARK VINA RESULT:      -6.1      2.604      3.167
REMARK  Name = ZINC13539005
REMARK  9 active torsions:
REMARK  status: ('A' for Active; 'I' for Inactive)
REMARK    1  A    between atoms: C1_1  and  C2_2
REMARK    2  A    between atoms: C2_2  and  C19_25
REMARK    3  A    between atoms: C3_3  and  C4_4
REMARK    4  A    between atoms: C4_4  and  C5_5
REMARK    5  A    between atoms: C9_9  and  O2_13
REMARK    6  A    between atoms: C10_10  and  O1_11
REMARK    7  A    between atoms: O1_11  and  C11_12
REMARK    8  A    between atoms: C14_17  and  O6_24
REMARK    9  A    between atoms: C16_19  and  O5_23
REMARK                            x       y       z     vdW  Elec       q    Type
REMARK                         _______ _______ _______ _____ _____    ______ ____
ROOT
ATOM      6  C   UNL     1      48.687  18.428  18.366  0.00  0.00    +0.019 A 
ATOM      7  C   UNL     1      47.377  18.893  18.499  0.00  0.00    -0.225 A 
ATOM      8  C   UNL     1      46.305  18.167  17.959  0.00  0.00    +0.179 A 
ATOM      9  O   UNL     1      45.036  18.610  18.077  0.00  0.00    -0.225 OA
ATOM     10  C   UNL     1      44.701  19.749  18.716  0.00  0.00    +0.200 A 
ATOM     11  C   UNL     1      43.370  20.130  18.800  0.00  0.00    -0.035 A 
ATOM     12  C   UNL     1      43.019  21.306  19.445  0.00  0.00    +0.198 A 
ATOM     15  C   UNL     1      43.992  22.119  20.017  0.00  0.00    -0.059 A 
ATOM     16  C   UNL     1      45.324  21.757  19.946  0.00  0.00    +0.224 A 
ATOM     19  C   UNL     1      45.685  20.570  19.294  0.00  0.00    -0.272 A 
ATOM     20  C   UNL     1      46.562  16.970  17.300  0.00  0.00    -0.013 A 
ATOM     21  C   UNL     1      47.860  16.510  17.176  0.00  0.00    +0.165 A 
ATOM     24  C   UNL     1      47.096  20.160  19.203  0.00  0.00    +0.439 A 
ATOM     25  O   UNL     1      47.989  20.833  19.687  0.00  0.00    -0.422 OA
ATOM     26  C   UNL     1      48.927  17.239  17.709  0.00  0.00    +0.039 A 
ENDROOT
BRANCH  12  13
ATOM     13  O   UNL     1      41.712  21.667  19.520  0.00  0.00    -0.487 OA
ATOM     14  H   UNL     1      41.496  22.466  19.020  0.00  0.00    +0.405 HD
ENDBRANCH  12  13
BRANCH  16  17
ATOM     17  O   UNL     1      46.276  22.547  20.502  0.00  0.00    -0.472 OA
ATOM     18  H   UNL     1      45.948  23.407  20.802  0.00  0.00    +0.403 HD
ENDBRANCH  16  17
BRANCH  21  22
ATOM     22  O   UNL     1      48.101  15.340  16.530  0.00  0.00    -0.477 OA
ATOM     23  H   UNL     1      47.991  14.555  17.083  0.00  0.00    +0.398 HD
ENDBRANCH  21  22
BRANCH  26  27
ATOM     27  O   UNL     1      50.200  16.776  17.580  0.00  0.00    -0.313 OA
ATOM     28  C   UNL     1      50.656  15.851  18.569  0.00  0.00    +0.222 C 
ENDBRANCH  26  27
BRANCH   6   5
ATOM      5  C   UNL     1      49.834  19.217  18.943  0.00  0.00    +0.129 C 
BRANCH   5   4
ATOM      1  C   UNL     1      52.138  20.892  16.370  0.00  0.00    +0.073 C 
ATOM      2  C   UNL     1      51.631  20.058  17.518  0.00  0.00    -0.128 C 
ATOM      3  C   UNL     1      52.563  19.116  18.236  0.00  0.00    +0.074 C 
ATOM      4  C   UNL     1      50.378  20.153  17.893  0.00  0.00    -0.037 C 
ENDBRANCH   5   4
ENDBRANCH   6   5
TORSDOF 6
ENDMDL
MODEL 3
REMARK VINA RESULT:      -5.4      2.220      7.004
REMARK  Name = ZINC13539005
REMARK  9 active torsions:
REMARK  status: ('A' for Active; 'I' for Inactive)
REMARK    1  A    between atoms: C1_1  and  C2_2
REMARK    2  A    between atoms: C2_2  and  C19_25
REMARK    3  A    between atoms: C3_3  and  C4_4
REMARK    4  A    between atoms: C4_4  and  C5_5
REMARK    5  A    between atoms: C9_9  and  O2_13
REMARK    6  A    between atoms: C10_10  and  O1_11
REMARK    7  A    between atoms: O1_11  and  C11_12
REMARK    8  A    between atoms: C14_17  and  O6_24
REMARK    9  A    between atoms: C16_19  and  O5_23
REMARK                            x       y       z     vdW  Elec       q    Type
REMARK                         _______ _______ _______ _____ _____    ______ ____
ROOT
ATOM      6  C   UNL     1      45.646  18.428  20.079  0.00  0.00    +0.019 A 
ATOM      7  C   UNL     1      46.856  19.032  19.731  0.00  0.00    -0.225 A 
ATOM      8  C   UNL     1      46.870  20.266  19.063  0.00  0.00    +0.179 A 
ATOM      9  O   UNL     1      48.034  20.856  18.716  0.00  0.00    -0.225 OA
ATOM     10  C   UNL     1      49.245  20.328  18.987  0.00  0.00    +0.200 A 
ATOM     11  C   UNL     1      50.395  21.003  18.603  0.00  0.00    -0.035 A 
ATOM     12  C   UNL     1      51.643  20.462  18.867  0.00  0.00    +0.198 A 
ATOM     15  C   UNL     1      51.764  19.239  19.518  0.00  0.00    -0.059 A 
ATOM     16  C   UNL     1      50.631  18.550  19.910  0.00  0.00    +0.224 A 
ATOM     19  C   UNL     1      49.366  19.092  19.646  0.00  0.00    -0.272 A 
ATOM     20  C   UNL     1      45.664  20.887  18.764  0.00  0.00    -0.013 A 
ATOM     21  C   UNL     1      44.468  20.289  19.116  0.00  0.00    +0.165 A 
ATOM     24  C   UNL     1      48.142  18.381  20.051  0.00  0.00    +0.439 A 
ATOM     25  O   UNL     1      48.189  17.307  20.625  0.00  0.00    -0.422 OA
ATOM     26  C   UNL     1      44.456  19.057  19.775  0.00  0.00    +0.039 A 
ENDROOT
BRANCH  12  13
ATOM     13  O   UNL     1      52.761  21.133  18.486  0.00  0.00    -0.487 OA
ATOM     14  H   UNL     1      53.104  20.867  17.622  0.00  0.00    +0.405 HD
ENDBRANCH  12  13
BRANCH  16  17
ATOM     17  O   UNL     1      50.744  17.357  20.545  0.00  0.00    -0.472 OA
ATOM     18  H   UNL     1      50.443  17.371  21.464  0.00  0.00    +0.403 HD
ENDBRANCH  16  17
BRANCH  21  22
ATOM     22  O   UNL     1      43.294  20.903  18.819  0.00  0.00    -0.477 OA
ATOM     23  H   UNL     1      42.863  20.566  18.021  0.00  0.00    +0.398 HD
ENDBRANCH  21  22
BRANCH  26  27
ATOM     27  O   UNL     1      43.274  18.477  20.116  0.00  0.00    -0.313 OA
ATOM     28  C   UNL     1      42.685  18.886  21.352  0.00  0.00    +0.222 C 
ENDBRANCH  26  27
BRANCH   6   5
ATOM      5  C   UNL     1      45.639  17.099  20.790  0.00  0.00    +0.129 C 
BRANCH   5   4
ATOM      1  C   UNL     1      45.134  13.646  19.193  0.00  0.00    +0.073 C 
ATOM      2  C   UNL     1      45.567  14.752  20.121  0.00  0.00    -0.128 C 
ATOM      3  C   UNL     1      46.261  14.420  21.417  0.00  0.00    +0.074 C 
ATOM      4  C   UNL     1      45.340  16.002  19.800  0.00  0.00    -0.037 C 
ENDBRANCH   5   4
ENDBRANCH   6   5
TORSDOF 6
ENDMDL
MODEL 4
REMARK VINA RESULT:      -5.4     20.081     22.902
REMARK  Name = ZINC13539005
REMARK  9 active torsions:
REMARK  status: ('A' for Active; 'I' for Inactive)
REMARK    1  A    between atoms: C1_1  and  C2_2
REMARK    2  A    between atoms: C2_2  and  C19_25
REMARK    3  A    between atoms: C3_3  and  C4_4
REMARK    4  A    between atoms: C4_4  and  C5_5
REMARK    5  A    between atoms: C9_9  and  O2_13
REMARK    6  A    between atoms: C10_10  and  O1_11
REMARK    7  A    between atoms: O1_11  and  C11_12
REMARK    8  A    between atoms: C14_17  and  O6_24
REMARK    9  A    between atoms: C16_19  and  O5_23
REMARK                            x       y       z     vdW  Elec       q    Type
REMARK                         _______ _______ _______ _____ _____    ______ ____
ROOT
ATOM      6  C   UNL     1      55.646  32.243   1.976  0.00  0.00    +0.019 A 
ATOM      7  C   UNL     1      54.531  32.463   2.789  0.00  0.00    -0.225 A 
ATOM      8  C   UNL     1      53.235  32.283   2.284  0.00  0.00    +0.179 A 
ATOM      9  O   UNL     1      52.151  32.497   3.059  0.00  0.00    -0.225 OA
ATOM     10  C   UNL     1      52.223  32.879   4.350  0.00  0.00    +0.200 A 
ATOM     11  C   UNL     1      51.059  33.071   5.081  0.00  0.00    -0.035 A 
ATOM     12  C   UNL     1      51.124  33.475   6.405  0.00  0.00    +0.198 A 
ATOM     15  C   UNL     1      52.352  33.694   7.020  0.00  0.00    -0.059 A 
ATOM     16  C   UNL     1      53.523  33.508   6.311  0.00  0.00    +0.224 A 
ATOM     19  C   UNL     1      53.464  33.100   4.972  0.00  0.00    -0.272 A 
ATOM     20  C   UNL     1      53.073  31.871   0.966  0.00  0.00    -0.013 A 
ATOM     21  C   UNL     1      54.179  31.649   0.167  0.00  0.00    +0.165 A 
ATOM     24  C   UNL     1      54.696  32.894   4.191  0.00  0.00    +0.439 A 
ATOM     25  O   UNL     1      55.797  33.070   4.681  0.00  0.00    -0.422 OA
ATOM     26  C   UNL     1      55.469  31.835   0.670  0.00  0.00    +0.039 A 
ENDROOT
BRANCH  12  13
ATOM     13  O   UNL     1      49.977  33.659   7.109  0.00  0.00    -0.487 OA
ATOM     14  H   UNL     1      49.805  34.580   7.345  0.00  0.00    +0.405 HD
ENDBRANCH  12  13
BRANCH  16  17
ATOM     17  O   UNL     1      54.723  33.720   6.908  0.00  0.00    -0.472 OA
ATOM     18  H   UNL     1      55.385  33.043   6.711  0.00  0.00    +0.403 HD
ENDBRANCH  16  17
BRANCH  21  22
ATOM     22  O   UNL     1      54.011  31.247  -1.119  0.00  0.00    -0.477 OA
ATOM     23  H   UNL     1      54.347  30.359  -1.301  0.00  0.00    +0.398 HD
ENDBRANCH  21  22
BRANCH  26  27
ATOM     27  O   UNL     1      56.550  31.614  -0.126  0.00  0.00    -0.313 OA
ATOM     28  C   UNL     1      57.000  32.710  -0.926  0.00  0.00    +0.222 C 
ENDBRANCH  26  27
BRANCH   6   5
ATOM      5  C   UNL     1      57.035  32.445   2.524  0.00  0.00    +0.129 C 
BRANCH   5   4
ATOM      1  C   UNL     1      59.126  29.746   4.276  0.00  0.00    +0.073 C 
ATOM      2  C   UNL     1      58.640  31.071   3.747  0.00  0.00    -0.128 C 
ATOM      3  C   UNL     1      59.338  32.345   4.149  0.00  0.00    +0.074 C 
ATOM      4  C   UNL     1      57.611  31.115   2.938  0.00  0.00    -0.037 C 
ENDBRANCH   5   4
ENDBRANCH   6   5
TORSDOF 6
ENDMDL
MODEL 5
REMARK VINA RESULT:      -5.4      5.094      8.106
REMARK  Name = ZINC13539005
REMARK  9 active torsions:
REMARK  status: ('A' for Active; 'I' for Inactive)
REMARK    1  A    between atoms: C1_1  and  C2_2
REMARK    2  A    between atoms: C2_2  and  C19_25
REMARK    3  A    between atoms: C3_3  and  C4_4
REMARK    4  A    between atoms: C4_4  and  C5_5
REMARK    5  A    between atoms: C9_9  and  O2_13
REMARK    6  A    between atoms: C10_10  and  O1_11
REMARK    7  A    between atoms: O1_11  and  C11_12
REMARK    8  A    between atoms: C14_17  and  O6_24
REMARK    9  A    between atoms: C16_19  and  O5_23
REMARK                            x       y       z     vdW  Elec       q    Type
REMARK                         _______ _______ _______ _____ _____    ______ ____
ROOT
ATOM      6  C   UNL     1      48.817  17.362  17.840  0.00  0.00    +0.019 A 
ATOM      7  C   UNL     1      48.607  16.113  17.251  0.00  0.00    -0.225 A 
ATOM      8  C   UNL     1      47.311  15.696  16.908  0.00  0.00    +0.179 A 
ATOM      9  O   UNL     1      47.096  14.490  16.343  0.00  0.00    -0.225 OA
ATOM     10  C   UNL     1      48.082  13.614  16.058  0.00  0.00    +0.200 A 
ATOM     11  C   UNL     1      47.776  12.396  15.470  0.00  0.00    -0.035 A 
ATOM     12  C   UNL     1      48.783  11.486  15.185  0.00  0.00    +0.198 A 
ATOM     15  C   UNL     1      50.109  11.779  15.483  0.00  0.00    -0.059 A 
ATOM     16  C   UNL     1      50.435  12.987  16.069  0.00  0.00    +0.224 A 
ATOM     19  C   UNL     1      49.423  13.911  16.360  0.00  0.00    -0.272 A 
ATOM     20  C   UNL     1      46.240  16.548  17.151  0.00  0.00    -0.013 A 
ATOM     21  C   UNL     1      46.453  17.786  17.729  0.00  0.00    +0.165 A 
ATOM     24  C   UNL     1      49.741  15.206  16.984  0.00  0.00    +0.439 A 
ATOM     25  O   UNL     1      50.885  15.515  17.265  0.00  0.00    -0.422 OA
ATOM     26  C   UNL     1      47.743  18.196  18.075  0.00  0.00    +0.039 A 
ENDROOT
BRANCH  12  13
ATOM     13  O   UNL     1      48.470  10.297  14.608  0.00  0.00    -0.487 OA
ATOM     14  H   UNL     1      48.753   9.526  15.118  0.00  0.00    +0.405 HD
ENDBRANCH  12  13
BRANCH  16  17
ATOM     17  O   UNL     1      51.728  13.277  16.361  0.00  0.00    -0.472 OA
ATOM     18  H   UNL     1      52.124  13.940  15.779  0.00  0.00    +0.403 HD
ENDBRANCH  16  17
BRANCH  21  22
ATOM     22  O   UNL     1      45.400  18.611  17.962  0.00  0.00    -0.477 OA
ATOM     23  H   UNL     1      44.543  18.163  17.969  0.00  0.00    +0.398 HD
ENDBRANCH  21  22
BRANCH  26  27
ATOM     27  O   UNL     1      47.941  19.416  18.644  0.00  0.00    -0.313 OA
ATOM     28  C   UNL     1      47.784  19.503  20.062  0.00  0.00    +0.222 C 
ENDBRANCH  26  27
BRANCH   6   5
ATOM      5  C   UNL     1      50.210  17.800  18.212  0.00  0.00    +0.129 C 
BRANCH   5   4
ATOM      1  C   UNL     1      51.976  20.696  16.416  0.00  0.00    +0.073 C 
ATOM      2  C   UNL     1      51.303  19.853  17.469  0.00  0.00    -0.128 C 
ATOM      3  C   UNL     1      51.261  20.325  18.900  0.00  0.00    +0.074 C 
ATOM      4  C   UNL     1      50.754  18.709  17.140  0.00  0.00    -0.037 C 
ENDBRANCH   5   4
ENDBRANCH   6   5
TORSDOF 6
ENDMDL
MODEL 6
REMARK VINA RESULT:      -5.3      2.031      2.613
REMARK  Name = ZINC13539005
REMARK  9 active torsions:
REMARK  status: ('A' for Active; 'I' for Inactive)
REMARK    1  A    between atoms: C1_1  and  C2_2
REMARK    2  A    between atoms: C2_2  and  C19_25
REMARK    3  A    between atoms: C3_3  and  C4_4
REMARK    4  A    between atoms: C4_4  and  C5_5
REMARK    5  A    between atoms: C9_9  and  O2_13
REMARK    6  A    between atoms: C10_10  and  O1_11
REMARK    7  A    between atoms: O1_11  and  C11_12
REMARK    8  A    between atoms: C14_17  and  O6_24
REMARK    9  A    between atoms: C16_19  and  O5_23
REMARK                            x       y       z     vdW  Elec       q    Type
REMARK                         _______ _______ _______ _____ _____    ______ ____
ROOT
ATOM      6  C   UNL     1      47.917  17.692  18.877  0.00  0.00    +0.019 A 
ATOM      7  C   UNL     1      46.596  18.061  19.138  0.00  0.00    -0.225 A 
ATOM      8  C   UNL     1      45.660  17.106  19.564  0.00  0.00    +0.179 A 
ATOM      9  O   UNL     1      44.380  17.450  19.813  0.00  0.00    -0.225 OA
ATOM     10  C   UNL     1      43.909  18.708  19.690  0.00  0.00    +0.200 A 
ATOM     11  C   UNL     1      42.579  18.980  19.975  0.00  0.00    -0.035 A 
ATOM     12  C   UNL     1      42.085  20.269  19.839  0.00  0.00    +0.198 A 
ATOM     15  C   UNL     1      42.912  21.304  19.417  0.00  0.00    -0.059 A 
ATOM     16  C   UNL     1      44.240  21.055  19.129  0.00  0.00    +0.224 A 
ATOM     19  C   UNL     1      44.746  19.755  19.264  0.00  0.00    -0.272 A 
ATOM     20  C   UNL     1      46.069  15.788  19.735  0.00  0.00    -0.013 A 
ATOM     21  C   UNL     1      47.379  15.428  19.481  0.00  0.00    +0.165 A 
ATOM     24  C   UNL     1      46.157  19.460  18.965  0.00  0.00    +0.439 A 
ATOM     25  O   UNL     1      46.925  20.329  18.593  0.00  0.00    -0.422 OA
ATOM     26  C   UNL     1      48.307  16.380  19.050  0.00  0.00    +0.039 A 
ENDROOT
BRANCH  12  13
ATOM     13  O   UNL     1      40.781  20.521  20.121  0.00  0.00    -0.487 OA
ATOM     14  H   UNL     1      40.248  20.748  19.347  0.00  0.00    +0.405 HD
ENDBRANCH  12  13
BRANCH  16  17
ATOM     17  O   UNL     1      45.050  22.063  18.718  0.00  0.00    -0.472 OA
ATOM     18  H   UNL     1      44.580  22.802  18.308  0.00  0.00    +0.403 HD
ENDBRANCH  16  17
BRANCH  21  22
ATOM     22  O   UNL     1      47.769  14.138  19.650  0.00  0.00    -0.477 OA
ATOM     23  H   UNL     1      48.486  13.863  19.063  0.00  0.00    +0.398 HD
ENDBRANCH  21  22
BRANCH  26  27
ATOM     27  O   UNL     1      49.594  16.014  18.803  0.00  0.00    -0.313 OA
ATOM     28  C   UNL     1      49.890  15.535  17.490  0.00  0.00    +0.222 C 
ENDBRANCH  26  27
BRANCH   6   5
ATOM      5  C   UNL     1      48.914  18.723  18.413  0.00  0.00    +0.129 C 
BRANCH   5   4
ATOM      1  C   UNL     1      51.205  20.741  20.737  0.00  0.00    +0.073 C 
ATOM      2  C   UNL     1      50.445  20.264  19.526  0.00  0.00    -0.128 C 
ATOM      3  C   UNL     1      50.437  21.092  18.267  0.00  0.00    +0.074 C 
ATOM      4  C   UNL     1      49.791  19.130  19.569  0.00  0.00    -0.037 C 
ENDBRANCH   5   4
ENDBRANCH   6   5
TORSDOF 6
ENDMDL
MODEL 7
REMARK VINA RESULT:      -5.3      3.372      6.845
REMARK  Name = ZINC13539005
REMARK  9 active torsions:
REMARK  status: ('A' for Active; 'I' for Inactive)
REMARK    1  A    between atoms: C1_1  and  C2_2
REMARK    2  A    between atoms: C2_2  and  C19_25
REMARK    3  A    between atoms: C3_3  and  C4_4
REMARK    4  A    between atoms: C4_4  and  C5_5
REMARK    5  A    between atoms: C9_9  and  O2_13
REMARK    6  A    between atoms: C10_10  and  O1_11
REMARK    7  A    between atoms: O1_11  and  C11_12
REMARK    8  A    between atoms: C14_17  and  O6_24
REMARK    9  A    between atoms: C16_19  and  O5_23
REMARK                            x       y       z     vdW  Elec       q    Type
REMARK                         _______ _______ _______ _____ _____    ______ ____
ROOT
ATOM      6  C   UNL     1      46.702  16.630  19.429  0.00  0.00    +0.019 A 
ATOM      7  C   UNL     1      47.758  17.166  18.690  0.00  0.00    -0.225 A 
ATOM      8  C   UNL     1      48.266  16.482  17.575  0.00  0.00    +0.179 A 
ATOM      9  O   UNL     1      49.290  16.987  16.856  0.00  0.00    -0.225 OA
ATOM     10  C   UNL     1      49.885  18.166  17.135  0.00  0.00    +0.200 A 
ATOM     11  C   UNL     1      50.928  18.618  16.340  0.00  0.00    -0.035 A 
ATOM     12  C   UNL     1      51.552  19.822  16.627  0.00  0.00    +0.198 A 
ATOM     15  C   UNL     1      51.145  20.593  17.710  0.00  0.00    -0.059 A 
ATOM     16  C   UNL     1      50.107  20.160  18.514  0.00  0.00    +0.224 A 
ATOM     19  C   UNL     1      49.472  18.943  18.230  0.00  0.00    -0.272 A 
ATOM     20  C   UNL     1      47.696  15.268  17.208  0.00  0.00    -0.013 A 
ATOM     21  C   UNL     1      46.646  14.744  17.940  0.00  0.00    +0.165 A 
ATOM     24  C   UNL     1      48.364  18.458  19.069  0.00  0.00    +0.439 A 
ATOM     25  O   UNL     1      47.966  19.092  20.030  0.00  0.00    -0.422 OA
ATOM     26  C   UNL     1      46.146  15.425  19.053  0.00  0.00    +0.039 A 
ENDROOT
BRANCH  12  13
ATOM     13  O   UNL     1      52.572  20.255  15.841  0.00  0.00    -0.487 OA
ATOM     14  H   UNL     1      52.473  21.166  15.534  0.00  0.00    +0.405 HD
ENDBRANCH  12  13
BRANCH  16  17
ATOM     17  O   UNL     1      49.706  20.908  19.572  0.00  0.00    -0.472 OA
ATOM     18  H   UNL     1      50.285  21.659  19.765  0.00  0.00    +0.403 HD
ENDBRANCH  16  17
BRANCH  21  22
ATOM     22  O   UNL     1      46.096  13.558  17.574  0.00  0.00    -0.477 OA
ATOM     23  H   UNL     1      46.533  13.136  16.821  0.00  0.00    +0.398 HD
ENDBRANCH  21  22
BRANCH  26  27
ATOM     27  O   UNL     1      45.114  14.899  19.766  0.00  0.00    -0.313 OA
ATOM     28  C   UNL     1      45.442  13.927  20.761  0.00  0.00    +0.222 C 
ENDBRANCH  26  27
BRANCH   6   5
ATOM      5  C   UNL     1      46.166  17.368  20.629  0.00  0.00    +0.129 C 
BRANCH   5   4
ATOM      1  C   UNL     1      42.628  18.853  20.709  0.00  0.00    +0.073 C 
ATOM      2  C   UNL     1      43.841  18.010  21.009  0.00  0.00    -0.128 C 
ATOM      3  C   UNL     1      43.831  17.065  22.182  0.00  0.00    +0.074 C 
ATOM      4  C   UNL     1      44.905  18.100  20.248  0.00  0.00    -0.037 C 
ENDBRANCH   5   4
ENDBRANCH   6   5
TORSDOF 6
ENDMDL
MODEL 8
REMARK VINA RESULT:      -5.2      2.721      5.123
REMARK  Name = ZINC13539005
REMARK  9 active torsions:
REMARK  status: ('A' for Active; 'I' for Inactive)
REMARK    1  A    between atoms: C1_1  and  C2_2
REMARK    2  A    between atoms: C2_2  and  C19_25
REMARK    3  A    between atoms: C3_3  and  C4_4
REMARK    4  A    between atoms: C4_4  and  C5_5
REMARK    5  A    between atoms: C9_9  and  O2_13
REMARK    6  A    between atoms: C10_10  and  O1_11
REMARK    7  A    between atoms: O1_11  and  C11_12
REMARK    8  A    between atoms: C14_17  and  O6_24
REMARK    9  A    between atoms: C16_19  and  O5_23
REMARK                            x       y       z     vdW  Elec       q    Type
REMARK                         _______ _______ _______ _____ _____    ______ ____
ROOT
ATOM      6  C   UNL     1      49.043  18.809  18.369  0.00  0.00    +0.019 A 
ATOM      7  C   UNL     1      48.260  19.701  19.105  0.00  0.00    -0.225 A 
ATOM      8  C   UNL     1      48.862  20.661  19.932  0.00  0.00    +0.179 A 
ATOM      9  O   UNL     1      48.115  21.525  20.652  0.00  0.00    -0.225 OA
ATOM     10  C   UNL     1      46.767  21.544  20.625  0.00  0.00    +0.200 A 
ATOM     11  C   UNL     1      46.073  22.471  21.390  0.00  0.00    -0.035 A 
ATOM     12  C   UNL     1      44.687  22.490  21.378  0.00  0.00    +0.198 A 
ATOM     15  C   UNL     1      43.973  21.584  20.602  0.00  0.00    -0.059 A 
ATOM     16  C   UNL     1      44.644  20.653  19.832  0.00  0.00    +0.224 A 
ATOM     19  C   UNL     1      46.045  20.628  19.840  0.00  0.00    -0.272 A 
ATOM     20  C   UNL     1      50.249  20.721  20.002  0.00  0.00    -0.013 A 
ATOM     21  C   UNL     1      51.020  19.840  19.268  0.00  0.00    +0.165 A 
ATOM     24  C   UNL     1      46.787  19.648  19.031  0.00  0.00    +0.439 A 
ATOM     25  O   UNL     1      46.212  18.832  18.332  0.00  0.00    -0.422 OA
ATOM     26  C   UNL     1      50.419  18.880  18.449  0.00  0.00    +0.039 A 
ENDROOT
BRANCH  12  13
ATOM     13  O   UNL     1      44.021  23.402  22.130  0.00  0.00    -0.487 OA
ATOM     14  H   UNL     1      44.551  24.173  22.375  0.00  0.00    +0.405 HD
ENDBRANCH  12  13
BRANCH  16  17
ATOM     17  O   UNL     1      43.950  19.767  19.073  0.00  0.00    -0.472 OA
ATOM     18  H   UNL     1      43.060  19.581  19.401  0.00  0.00    +0.403 HD
ENDBRANCH  16  17
BRANCH  21  22
ATOM     22  O   UNL     1      52.375  19.906  19.342  0.00  0.00    -0.477 OA
ATOM     23  H   UNL     1      52.790  20.345  18.587  0.00  0.00    +0.398 HD
ENDBRANCH  21  22
BRANCH  26  27
ATOM     27  O   UNL     1      51.188  18.017  17.731  0.00  0.00    -0.313 OA
ATOM     28  C   UNL     1      51.603  18.447  16.433  0.00  0.00    +0.222 C 
ENDBRANCH  26  27
BRANCH   6   5
ATOM      5  C   UNL     1      48.389  17.776  17.487  0.00  0.00    +0.129 C 
BRANCH   5   4
ATOM      1  C   UNL     1      47.790  14.083  18.344  0.00  0.00    +0.073 C 
ATOM      2  C   UNL     1      47.649  15.465  17.759  0.00  0.00    -0.128 C 
ATOM      3  C   UNL     1      46.609  15.734  16.702  0.00  0.00    +0.074 C 
ATOM      4  C   UNL     1      48.430  16.433  18.171  0.00  0.00    -0.037 C 
ENDBRANCH   5   4
ENDBRANCH   6   5
TORSDOF 6
ENDMDL
MODEL 9
REMARK VINA RESULT:      -5.2      3.238      5.655
REMARK  Name = ZINC13539005
REMARK  9 active torsions:
REMARK  status: ('A' for Active; 'I' for Inactive)
REMARK    1  A    between atoms: C1_1  and  C2_2
REMARK    2  A    between atoms: C2_2  and  C19_25
REMARK    3  A    between atoms: C3_3  and  C4_4
REMARK    4  A    between atoms: C4_4  and  C5_5
REMARK    5  A    between atoms: C9_9  and  O2_13
REMARK    6  A    between atoms: C10_10  and  O1_11
REMARK    7  A    between atoms: O1_11  and  C11_12
REMARK    8  A    between atoms: C14_17  and  O6_24
REMARK    9  A    between atoms: C16_19  and  O5_23
REMARK                            x       y       z     vdW  Elec       q    Type
REMARK                         _______ _______ _______ _____ _____    ______ ____
ROOT
ATOM      6  C   UNL     1      49.779  18.550  17.912  0.00  0.00    +0.019 A 
ATOM      7  C   UNL     1      48.637  18.944  18.613  0.00  0.00    -0.225 A 
ATOM      8  C   UNL     1      48.575  20.209  19.217  0.00  0.00    +0.179 A 
ATOM      9  O   UNL     1      47.479  20.599  19.902  0.00  0.00    -0.225 OA
ATOM     10  C   UNL     1      46.380  19.831  20.047  0.00  0.00    +0.200 A 
ATOM     11  C   UNL     1      45.291  20.310  20.761  0.00  0.00    -0.035 A 
ATOM     12  C   UNL     1      44.162  19.523  20.925  0.00  0.00    +0.198 A 
ATOM     15  C   UNL     1      44.103  18.245  20.379  0.00  0.00    -0.059 A 
ATOM     16  C   UNL     1      45.176  17.749  19.664  0.00  0.00    +0.224 A 
ATOM     19  C   UNL     1      46.321  18.540  19.494  0.00  0.00    -0.272 A 
ATOM     20  C   UNL     1      49.659  21.071  19.098  0.00  0.00    -0.013 A 
ATOM     21  C   UNL     1      50.785  20.678  18.398  0.00  0.00    +0.165 A 
ATOM     24  C   UNL     1      47.479  18.037  18.738  0.00  0.00    +0.439 A 
ATOM     25  O   UNL     1      47.481  16.927  18.238  0.00  0.00    -0.422 OA
ATOM     26  C   UNL     1      50.848  19.415  17.803  0.00  0.00    +0.039 A 
ENDROOT
BRANCH  12  13
ATOM     13  O   UNL     1      43.103  20.004  21.625  0.00  0.00    -0.487 OA
ATOM     14  H   UNL     1      42.673  20.766  21.214  0.00  0.00    +0.405 HD
ENDBRANCH  12  13
BRANCH  16  17
ATOM     17  O   UNL     1      45.123  16.503  19.130  0.00  0.00    -0.472 OA
ATOM     18  H   UNL     1      44.226  16.151  19.042  0.00  0.00    +0.403 HD
ENDBRANCH  16  17
BRANCH  21  22
ATOM     22  O   UNL     1      51.839  21.526  18.287  0.00  0.00    -0.477 OA
ATOM     23  H   UNL     1      52.629  21.125  17.900  0.00  0.00    +0.398 HD
ENDBRANCH  21  22
BRANCH  26  27
ATOM     27  O   UNL     1      51.961  19.040  17.117  0.00  0.00    -0.313 OA
ATOM     28  C   UNL     1      52.057  19.465  15.756  0.00  0.00    +0.222 C 
ENDBRANCH  26  27
BRANCH   6   5
ATOM      5  C   UNL     1      49.842  17.186  17.272  0.00  0.00    +0.129 C 
BRANCH   5   4
ATOM      1  C   UNL     1      51.791  14.135  18.543  0.00  0.00    +0.073 C 
ATOM      2  C   UNL     1      50.779  15.006  17.844  0.00  0.00    -0.128 C 
ATOM      3  C   UNL     1      49.795  14.393  16.881  0.00  0.00    +0.074 C 
ATOM      4  C   UNL     1      50.754  16.295  18.075  0.00  0.00    -0.037 C 
ENDBRANCH   5   4
ENDBRANCH   6   5
TORSDOF 6
ENDMDL
