MODEL 1
REMARK VINA RESULT:      -6.0      0.000      0.000
REMARK  Name = ZINC95486094
REMARK  6 active torsions:
REMARK  status: ('A' for Active; 'I' for Inactive)
REMARK    1  A    between atoms: C1_1  and  C2_2
REMARK    2  A    between atoms: C2_2  and  C19_24
REMARK    3  A    between atoms: C11_14  and  C18_23
REMARK    4  A    between atoms: C15_19  and  C16_20
REMARK    5  A    between atoms: C15_19  and  C17_21
REMARK    6  A    between atoms: C17_21  and  O2_22
REMARK                            x       y       z     vdW  Elec       q    Type
REMARK                         _______ _______ _______ _____ _____    ______ ____
ROOT
ATOM      1  C   UNL     1      51.898  21.098  16.253  0.00  0.00    +0.022 C 
ATOM      2  C   UNL     1      51.395  20.317  17.480  0.00  0.00    -0.029 C 
ATOM      5  C   UNL     1      50.208  21.068  18.077  0.00  0.00    +0.020 C 
ATOM      6  C   UNL     1      49.563  20.261  19.206  0.00  0.00    +0.014 C 
ATOM      7  C   UNL     1      49.097  18.911  18.651  0.00  0.00    -0.001 C 
ATOM      8  C   UNL     1      50.321  18.137  18.167  0.00  0.00    +0.001 C 
ATOM      9  C   UNL     1      49.919  16.763  17.638  0.00  0.00    +0.001 C 
ATOM     10  C   UNL     1      49.054  15.983  18.612  0.00  0.00    +0.020 C 
ATOM     11  C   UNL     1      47.874  16.773  19.172  0.00  0.00    +0.007 C 
ATOM     12  C   UNL     1      46.667  16.757  18.263  0.00  0.00    -0.035 C 
ATOM     16  C   UNL     1      46.132  15.309  18.174  0.00  0.00    +0.038 C 
ATOM     17  C   UNL     1      45.513  17.609  18.811  0.00  0.00    +0.031 C 
ATOM     18  C   UNL     1      46.065  18.957  19.212  0.00  0.00    +0.365 C 
ATOM     19  O   UNL     1      45.655  19.982  18.734  0.00  0.00    -0.450 OA
ATOM     20  C   UNL     1      47.165  18.944  20.248  0.00  0.00    +0.018 C 
ATOM     21  C   UNL     1      48.337  18.121  19.705  0.00  0.00    -0.029 C 
ATOM     22  C   UNL     1      49.272  17.855  20.906  0.00  0.00    +0.031 C 
ATOM     23  C   UNL     1      50.990  18.919  17.031  0.00  0.00    +0.023 C 
ENDROOT
BRANCH   2   3
ATOM      3  C   UNL     1      52.518  20.238  18.482  0.00  0.00    -0.033 C 
ATOM      4  C   UNL     1      52.746  21.242  19.293  0.00  0.00    -0.005 C 
ENDBRANCH   2   3
BRANCH  12  13
ATOM     13  C   UNL     1      46.968  17.222  16.839  0.00  0.00    +0.179 C 
BRANCH  13  14
ATOM     14  O   UNL     1      46.440  16.277  15.907  0.00  0.00    -0.570 OA
ATOM     15  H   UNL     1      46.091  16.674  15.098  0.00  0.00    +0.380 HD
ENDBRANCH  13  14
ENDBRANCH  12  13
TORSDOF 3
ENDMDL
MODEL 2
REMARK VINA RESULT:      -5.8      2.196      4.254
REMARK  Name = ZINC95486094
REMARK  6 active torsions:
REMARK  status: ('A' for Active; 'I' for Inactive)
REMARK    1  A    between atoms: C1_1  and  C2_2
REMARK    2  A    between atoms: C2_2  and  C19_24
REMARK    3  A    between atoms: C11_14  and  C18_23
REMARK    4  A    between atoms: C15_19  and  C16_20
REMARK    5  A    between atoms: C15_19  and  C17_21
REMARK    6  A    between atoms: C17_21  and  O2_22
REMARK                            x       y       z     vdW  Elec       q    Type
REMARK                         _______ _______ _______ _____ _____    ______ ____
ROOT
ATOM      1  C   UNL     1      50.843  20.794  20.684  0.00  0.00    +0.022 C 
ATOM      2  C   UNL     1      49.820  20.084  19.782  0.00  0.00    -0.029 C 
ATOM      5  C   UNL     1      49.619  18.664  20.303  0.00  0.00    +0.020 C 
ATOM      6  C   UNL     1      48.494  17.957  19.544  0.00  0.00    +0.014 C 
ATOM      7  C   UNL     1      47.199  18.758  19.711  0.00  0.00    -0.001 C 
ATOM      8  C   UNL     1      47.394  20.134  19.077  0.00  0.00    +0.001 C 
ATOM      9  C   UNL     1      46.118  20.964  19.181  0.00  0.00    +0.001 C 
ATOM     10  C   UNL     1      44.891  20.230  18.671  0.00  0.00    +0.020 C 
ATOM     11  C   UNL     1      44.729  18.819  19.229  0.00  0.00    +0.007 C 
ATOM     12  C   UNL     1      44.045  18.792  20.577  0.00  0.00    -0.035 C 
ATOM     16  C   UNL     1      42.591  19.290  20.406  0.00  0.00    +0.038 C 
ATOM     17  C   UNL     1      43.949  17.371  21.153  0.00  0.00    +0.031 C 
ATOM     18  C   UNL     1      45.309  16.721  21.048  0.00  0.00    +0.365 C 
ATOM     19  O   UNL     1      45.895  16.309  22.014  0.00  0.00    -0.450 OA
ATOM     20  C   UNL     1      45.892  16.620  19.658  0.00  0.00    +0.018 C 
ATOM     21  C   UNL     1      46.022  18.032  19.079  0.00  0.00    -0.029 C 
ATOM     22  C   UNL     1      46.292  17.857  17.567  0.00  0.00    +0.031 C 
ATOM     23  C   UNL     1      48.515  20.871  19.819  0.00  0.00    +0.023 C 
ENDROOT
BRANCH   2   3
ATOM      3  C   UNL     1      50.369  20.052  18.379  0.00  0.00    -0.033 C 
ATOM      4  C   UNL     1      50.975  21.104  17.887  0.00  0.00    -0.005 C 
ENDBRANCH   2   3
BRANCH  12  13
ATOM     13  C   UNL     1      44.715  19.684  21.620  0.00  0.00    +0.179 C 
BRANCH  13  14
ATOM     14  O   UNL     1      43.803  20.703  22.032  0.00  0.00    -0.570 OA
ATOM     15  H   UNL     1      43.374  20.529  22.881  0.00  0.00    +0.380 HD
ENDBRANCH  13  14
ENDBRANCH  12  13
TORSDOF 3
ENDMDL
MODEL 3
REMARK VINA RESULT:      -5.4      2.103      5.729
REMARK  Name = ZINC95486094
REMARK  6 active torsions:
REMARK  status: ('A' for Active; 'I' for Inactive)
REMARK    1  A    between atoms: C1_1  and  C2_2
REMARK    2  A    between atoms: C2_2  and  C19_24
REMARK    3  A    between atoms: C11_14  and  C18_23
REMARK    4  A    between atoms: C15_19  and  C16_20
REMARK    5  A    between atoms: C15_19  and  C17_21
REMARK    6  A    between atoms: C17_21  and  O2_22
REMARK                            x       y       z     vdW  Elec       q    Type
REMARK                         _______ _______ _______ _____ _____    ______ ____
ROOT
ATOM      1  C   UNL     1      44.736  19.652  18.380  0.00  0.00    +0.022 C 
ATOM      2  C   UNL     1      45.958  19.079  19.118  0.00  0.00    -0.029 C 
ATOM      5  C   UNL     1      46.663  18.094  18.191  0.00  0.00    +0.020 C 
ATOM      6  C   UNL     1      47.978  17.608  18.806  0.00  0.00    +0.014 C 
ATOM      7  C   UNL     1      48.884  18.816  19.064  0.00  0.00    -0.001 C 
ATOM      8  C   UNL     1      48.202  19.727  20.082  0.00  0.00    +0.001 C 
ATOM      9  C   UNL     1      49.081  20.931  20.407  0.00  0.00    +0.001 C 
ATOM     10  C   UNL     1      50.497  20.545  20.792  0.00  0.00    +0.020 C 
ATOM     11  C   UNL     1      51.162  19.566  19.828  0.00  0.00    +0.007 C 
ATOM     12  C   UNL     1      51.794  20.247  18.636  0.00  0.00    -0.035 C 
ATOM     16  C   UNL     1      52.963  21.130  19.131  0.00  0.00    +0.038 C 
ATOM     17  C   UNL     1      52.402  19.243  17.645  0.00  0.00    +0.031 C 
ATOM     18  C   UNL     1      51.379  18.166  17.371  0.00  0.00    +0.365 C 
ATOM     19  O   UNL     1      50.976  17.937  16.261  0.00  0.00    -0.450 OA
ATOM     20  C   UNL     1      50.888  17.393  18.573  0.00  0.00    +0.018 C 
ATOM     21  C   UNL     1      50.253  18.376  19.560  0.00  0.00    -0.029 C 
ATOM     22  C   UNL     1      50.082  17.607  20.889  0.00  0.00    +0.031 C 
ATOM     23  C   UNL     1      46.881  20.233  19.493  0.00  0.00    +0.023 C 
ENDROOT
BRANCH   2   3
ATOM      3  C   UNL     1      45.475  18.374  20.358  0.00  0.00    -0.033 C 
ATOM      4  C   UNL     1      44.279  17.839  20.384  0.00  0.00    -0.005 C 
ENDBRANCH   2   3
BRANCH  12  13
ATOM     13  C   UNL     1      50.831  21.151  17.868  0.00  0.00    +0.179 C 
BRANCH  13  14
ATOM     14  O   UNL     1      51.420  21.526  16.622  0.00  0.00    -0.570 OA
ATOM     15  H   UNL     1      50.859  21.354  15.854  0.00  0.00    +0.380 HD
ENDBRANCH  13  14
ENDBRANCH  12  13
TORSDOF 3
ENDMDL
MODEL 4
REMARK VINA RESULT:      -5.1      2.530      4.807
REMARK  Name = ZINC95486094
REMARK  6 active torsions:
REMARK  status: ('A' for Active; 'I' for Inactive)
REMARK    1  A    between atoms: C1_1  and  C2_2
REMARK    2  A    between atoms: C2_2  and  C19_24
REMARK    3  A    between atoms: C11_14  and  C18_23
REMARK    4  A    between atoms: C15_19  and  C16_20
REMARK    5  A    between atoms: C15_19  and  C17_21
REMARK    6  A    between atoms: C17_21  and  O2_22
REMARK                            x       y       z     vdW  Elec       q    Type
REMARK                         _______ _______ _______ _____ _____    ______ ____
ROOT
ATOM      1  C   UNL     1      43.340  22.528  19.609  0.00  0.00    +0.022 C 
ATOM      2  C   UNL     1      44.516  21.779  20.258  0.00  0.00    -0.029 C 
ATOM      5  C   UNL     1      44.002  20.446  20.795  0.00  0.00    +0.020 C 
ATOM      6  C   UNL     1      45.155  19.583  21.312  0.00  0.00    +0.014 C 
ATOM      7  C   UNL     1      46.144  19.335  20.169  0.00  0.00    -0.001 C 
ATOM      8  C   UNL     1      46.727  20.677  19.731  0.00  0.00    +0.001 C 
ATOM      9  C   UNL     1      47.752  20.485  18.617  0.00  0.00    +0.001 C 
ATOM     10  C   UNL     1      48.806  19.447  18.954  0.00  0.00    +0.020 C 
ATOM     11  C   UNL     1      48.242  18.129  19.476  0.00  0.00    +0.007 C 
ATOM     12  C   UNL     1      47.828  17.184  18.371  0.00  0.00    -0.035 C 
ATOM     16  C   UNL     1      49.090  16.760  17.583  0.00  0.00    +0.038 C 
ATOM     17  C   UNL     1      47.204  15.890  18.913  0.00  0.00    +0.031 C 
ATOM     18  C   UNL     1      46.160  16.260  19.941  0.00  0.00    +0.365 C 
ATOM     19  O   UNL     1      45.009  15.930  19.828  0.00  0.00    -0.450 OA
ATOM     20  C   UNL     1      46.645  17.071  21.120  0.00  0.00    +0.018 C 
ATOM     21  C   UNL     1      47.246  18.379  20.598  0.00  0.00    -0.029 C 
ATOM     22  C   UNL     1      48.020  19.002  21.782  0.00  0.00    +0.031 C 
ATOM     23  C   UNL     1      45.595  21.565  19.204  0.00  0.00    +0.023 C 
ENDROOT
BRANCH   2   3
ATOM      3  C   UNL     1      45.049  22.623  21.386  0.00  0.00    -0.033 C 
ATOM      4  C   UNL     1      45.622  23.773  21.130  0.00  0.00    -0.005 C 
ENDBRANCH   2   3
BRANCH  12  13
ATOM     13  C   UNL     1      46.852  17.803  17.372  0.00  0.00    +0.179 C 
BRANCH  13  14
ATOM     14  O   UNL     1      46.693  16.927  16.255  0.00  0.00    -0.570 OA
ATOM     15  H   UNL     1      45.775  16.794  15.985  0.00  0.00    +0.380 HD
ENDBRANCH  13  14
ENDBRANCH  12  13
TORSDOF 3
ENDMDL
MODEL 5
REMARK VINA RESULT:      -4.9      3.364      4.867
REMARK  Name = ZINC95486094
REMARK  6 active torsions:
REMARK  status: ('A' for Active; 'I' for Inactive)
REMARK    1  A    between atoms: C1_1  and  C2_2
REMARK    2  A    between atoms: C2_2  and  C19_24
REMARK    3  A    between atoms: C11_14  and  C18_23
REMARK    4  A    between atoms: C15_19  and  C16_20
REMARK    5  A    between atoms: C15_19  and  C17_21
REMARK    6  A    between atoms: C17_21  and  O2_22
REMARK                            x       y       z     vdW  Elec       q    Type
REMARK                         _______ _______ _______ _____ _____    ______ ____
ROOT
ATOM      1  C   UNL     1      43.754  19.905  18.614  0.00  0.00    +0.022 C 
ATOM      2  C   UNL     1      44.917  19.112  19.235  0.00  0.00    -0.029 C 
ATOM      5  C   UNL     1      44.346  17.870  19.913  0.00  0.00    +0.020 C 
ATOM      6  C   UNL     1      45.467  16.956  20.414  0.00  0.00    +0.014 C 
ATOM      7  C   UNL     1      46.341  16.542  19.226  0.00  0.00    -0.001 C 
ATOM      8  C   UNL     1      46.989  17.795  18.639  0.00  0.00    +0.001 C 
ATOM      9  C   UNL     1      47.904  17.436  17.472  0.00  0.00    +0.001 C 
ATOM     10  C   UNL     1      48.899  16.342  17.815  0.00  0.00    +0.020 C 
ATOM     11  C   UNL     1      48.279  15.118  18.482  0.00  0.00    +0.007 C 
ATOM     12  C   UNL     1      47.708  14.130  17.490  0.00  0.00    -0.035 C 
ATOM     16  C   UNL     1      48.866  13.545  16.649  0.00  0.00    +0.038 C 
ATOM     17  C   UNL     1      47.030  12.937  18.180  0.00  0.00    +0.031 C 
ATOM     18  C   UNL     1      46.103  13.468  19.247  0.00  0.00    +0.365 C 
ATOM     19  O   UNL     1      44.924  13.226  19.245  0.00  0.00    -0.450 OA
ATOM     20  C   UNL     1      46.740  14.322  20.318  0.00  0.00    +0.018 C 
ATOM     21  C   UNL     1      47.397  15.533  19.650  0.00  0.00    -0.029 C 
ATOM     22  C   UNL     1      48.307  16.177  20.720  0.00  0.00    +0.031 C 
ATOM     23  C   UNL     1      45.890  18.731  18.125  0.00  0.00    +0.023 C 
ENDROOT
BRANCH   2   3
ATOM      3  C   UNL     1      45.601  19.992  20.249  0.00  0.00    -0.033 C 
ATOM      4  C   UNL     1      46.035  21.178  19.901  0.00  0.00    -0.005 C 
ENDBRANCH   2   3
BRANCH  12  13
ATOM     13  C   UNL     1      46.706  14.751  16.518  0.00  0.00    +0.179 C 
BRANCH  13  14
ATOM     14  O   UNL     1      46.909  14.209  15.212  0.00  0.00    -0.570 OA
ATOM     15  H   UNL     1      47.830  14.224  14.918  0.00  0.00    +0.380 HD
ENDBRANCH  13  14
ENDBRANCH  12  13
TORSDOF 3
ENDMDL
MODEL 6
REMARK VINA RESULT:      -4.8      2.300      5.795
REMARK  Name = ZINC95486094
REMARK  6 active torsions:
REMARK  status: ('A' for Active; 'I' for Inactive)
REMARK    1  A    between atoms: C1_1  and  C2_2
REMARK    2  A    between atoms: C2_2  and  C19_24
REMARK    3  A    between atoms: C11_14  and  C18_23
REMARK    4  A    between atoms: C15_19  and  C16_20
REMARK    5  A    between atoms: C15_19  and  C17_21
REMARK    6  A    between atoms: C17_21  and  O2_22
REMARK                            x       y       z     vdW  Elec       q    Type
REMARK                         _______ _______ _______ _____ _____    ______ ____
ROOT
ATOM      1  C   UNL     1      46.213  16.584  17.893  0.00  0.00    +0.022 C 
ATOM      2  C   UNL     1      47.747  16.508  17.980  0.00  0.00    -0.029 C 
ATOM      5  C   UNL     1      48.338  17.402  16.894  0.00  0.00    +0.020 C 
ATOM      6  C   UNL     1      49.860  17.494  17.028  0.00  0.00    +0.014 C 
ATOM      7  C   UNL     1      50.205  18.059  18.410  0.00  0.00    -0.001 C 
ATOM      8  C   UNL     1      49.702  17.085  19.473  0.00  0.00    +0.001 C 
ATOM      9  C   UNL     1      50.054  17.581  20.873  0.00  0.00    +0.001 C 
ATOM     10  C   UNL     1      51.522  17.937  21.022  0.00  0.00    +0.020 C 
ATOM     11  C   UNL     1      52.062  18.841  19.918  0.00  0.00    +0.007 C 
ATOM     12  C   UNL     1      51.797  20.308  20.172  0.00  0.00    -0.035 C 
ATOM     16  C   UNL     1      52.588  20.745  21.426  0.00  0.00    +0.038 C 
ATOM     17  C   UNL     1      52.290  21.197  19.020  0.00  0.00    +0.031 C 
ATOM     18  C   UNL     1      51.790  20.613  17.720  0.00  0.00    +0.365 C 
ATOM     19  O   UNL     1      51.095  21.241  16.965  0.00  0.00    -0.450 OA
ATOM     20  C   UNL     1      52.211  19.193  17.422  0.00  0.00    +0.018 C 
ATOM     21  C   UNL     1      51.702  18.287  18.548  0.00  0.00    -0.029 C 
ATOM     22  C   UNL     1      52.434  16.937  18.380  0.00  0.00    +0.031 C 
ATOM     23  C   UNL     1      48.177  16.974  19.366  0.00  0.00    +0.023 C 
ENDROOT
BRANCH   2   3
ATOM      3  C   UNL     1      48.162  15.076  17.759  0.00  0.00    -0.033 C 
ATOM      4  C   UNL     1      47.534  14.340  16.876  0.00  0.00    -0.005 C 
ENDBRANCH   2   3
BRANCH  12  13
ATOM     13  C   UNL     1      50.325  20.628  20.425  0.00  0.00    +0.179 C 
BRANCH  13  14
ATOM     14  O   UNL     1      50.171  21.152  21.744  0.00  0.00    -0.570 OA
ATOM     15  H   UNL     1      50.148  22.117  21.785  0.00  0.00    +0.380 HD
ENDBRANCH  13  14
ENDBRANCH  12  13
TORSDOF 3
ENDMDL
MODEL 7
REMARK VINA RESULT:      -4.8      3.315      5.277
REMARK  Name = ZINC95486094
REMARK  6 active torsions:
REMARK  status: ('A' for Active; 'I' for Inactive)
REMARK    1  A    between atoms: C1_1  and  C2_2
REMARK    2  A    between atoms: C2_2  and  C19_24
REMARK    3  A    between atoms: C11_14  and  C18_23
REMARK    4  A    between atoms: C15_19  and  C16_20
REMARK    5  A    between atoms: C15_19  and  C17_21
REMARK    6  A    between atoms: C17_21  and  O2_22
REMARK                            x       y       z     vdW  Elec       q    Type
REMARK                         _______ _______ _______ _____ _____    ______ ____
ROOT
ATOM      1  C   UNL     1      42.278  20.724  18.914  0.00  0.00    +0.022 C 
ATOM      2  C   UNL     1      43.699  20.479  19.450  0.00  0.00    -0.029 C 
ATOM      5  C   UNL     1      43.590  19.801  20.812  0.00  0.00    +0.020 C 
ATOM      6  C   UNL     1      44.970  19.387  21.329  0.00  0.00    +0.014 C 
ATOM      7  C   UNL     1      45.612  18.427  20.322  0.00  0.00    -0.001 C 
ATOM      8  C   UNL     1      45.812  19.170  19.002  0.00  0.00    +0.001 C 
ATOM      9  C   UNL     1      46.486  18.270  17.971  0.00  0.00    +0.001 C 
ATOM     10  C   UNL     1      47.750  17.612  18.494  0.00  0.00    +0.020 C 
ATOM     11  C   UNL     1      47.587  16.938  19.854  0.00  0.00    +0.007 C 
ATOM     12  C   UNL     1      47.033  15.536  19.757  0.00  0.00    -0.035 C 
ATOM     16  C   UNL     1      48.063  14.644  19.025  0.00  0.00    +0.038 C 
ATOM     17  C   UNL     1      46.815  14.898  21.137  0.00  0.00    +0.031 C 
ATOM     18  C   UNL     1      46.069  15.884  22.005  0.00  0.00    +0.365 C 
ATOM     19  O   UNL     1      45.005  15.619  22.501  0.00  0.00    -0.450 OA
ATOM     20  C   UNL     1      46.734  17.224  22.213  0.00  0.00    +0.018 C 
ATOM     21  C   UNL     1      46.933  17.887  20.847  0.00  0.00    -0.029 C 
ATOM     22  C   UNL     1      47.903  19.068  21.076  0.00  0.00    +0.031 C 
ATOM     23  C   UNL     1      44.445  19.596  18.457  0.00  0.00    +0.023 C 
ENDROOT
BRANCH   2   3
ATOM      3  C   UNL     1      44.389  21.812  19.584  0.00  0.00    -0.033 C 
ATOM      4  C   UNL     1      43.685  22.897  19.789  0.00  0.00    -0.005 C 
ENDBRANCH   2   3
BRANCH  12  13
ATOM     13  C   UNL     1      45.720  15.450  18.980  0.00  0.00    +0.179 C 
BRANCH  13  14
ATOM     14  O   UNL     1      45.144  14.155  19.158  0.00  0.00    -0.570 OA
ATOM     15  H   UNL     1      44.249  14.169  19.523  0.00  0.00    +0.380 HD
ENDBRANCH  13  14
ENDBRANCH  12  13
TORSDOF 3
ENDMDL
MODEL 8
REMARK VINA RESULT:      -4.8     19.579     22.436
REMARK  Name = ZINC95486094
REMARK  6 active torsions:
REMARK  status: ('A' for Active; 'I' for Inactive)
REMARK    1  A    between atoms: C1_1  and  C2_2
REMARK    2  A    between atoms: C2_2  and  C19_24
REMARK    3  A    between atoms: C11_14  and  C18_23
REMARK    4  A    between atoms: C15_19  and  C16_20
REMARK    5  A    between atoms: C15_19  and  C17_21
REMARK    6  A    between atoms: C17_21  and  O2_22
REMARK                            x       y       z     vdW  Elec       q    Type
REMARK                         _______ _______ _______ _____ _____    ______ ____
ROOT
ATOM      1  C   UNL     1      51.882  32.717   5.999  0.00  0.00    +0.022 C 
ATOM      2  C   UNL     1      53.166  33.513   5.707  0.00  0.00    -0.029 C 
ATOM      5  C   UNL     1      54.342  32.787   6.354  0.00  0.00    +0.020 C 
ATOM      6  C   UNL     1      55.670  33.442   5.967  0.00  0.00    +0.014 C 
ATOM      7  C   UNL     1      55.816  33.409   4.442  0.00  0.00    -0.001 C 
ATOM      8  C   UNL     1      54.691  34.239   3.828  0.00  0.00    +0.001 C 
ATOM      9  C   UNL     1      54.810  34.274   2.307  0.00  0.00    +0.001 C 
ATOM     10  C   UNL     1      56.193  34.679   1.831  0.00  0.00    +0.020 C 
ATOM     11  C   UNL     1      57.334  33.917   2.500  0.00  0.00    +0.007 C 
ATOM     12  C   UNL     1      57.622  32.587   1.842  0.00  0.00    -0.035 C 
ATOM     16  C   UNL     1      58.140  32.845   0.408  0.00  0.00    +0.038 C 
ATOM     17  C   UNL     1      58.728  31.806   2.567  0.00  0.00    +0.031 C 
ATOM     18  C   UNL     1      58.416  31.800   4.045  0.00  0.00    +0.365 C 
ATOM     19  O   UNL     1      58.271  30.777   4.662  0.00  0.00    -0.450 OA
ATOM     20  C   UNL     1      58.296  33.153   4.706  0.00  0.00    +0.018 C 
ATOM     21  C   UNL     1      57.176  33.936   4.013  0.00  0.00    -0.029 C 
ATOM     22  C   UNL     1      57.318  35.401   4.482  0.00  0.00    +0.031 C 
ATOM     23  C   UNL     1      53.345  33.606   4.196  0.00  0.00    +0.023 C 
ENDROOT
BRANCH   2   3
ATOM      3  C   UNL     1      53.014  34.889   6.300  0.00  0.00    -0.033 C 
ATOM      4  C   UNL     1      52.319  35.057   7.398  0.00  0.00    -0.005 C 
ENDBRANCH   2   3
BRANCH  12  13
ATOM     13  C   UNL     1      56.395  31.683   1.730  0.00  0.00    +0.179 C 
BRANCH  13  14
ATOM     14  O   UNL     1      56.753  30.476   1.056  0.00  0.00    -0.570 OA
ATOM     15  H   UNL     1      56.113  30.192   0.390  0.00  0.00    +0.380 HD
ENDBRANCH  13  14
ENDBRANCH  12  13
TORSDOF 3
ENDMDL
MODEL 9
REMARK VINA RESULT:      -4.7      2.124      5.884
REMARK  Name = ZINC95486094
REMARK  6 active torsions:
REMARK  status: ('A' for Active; 'I' for Inactive)
REMARK    1  A    between atoms: C1_1  and  C2_2
REMARK    2  A    between atoms: C2_2  and  C19_24
REMARK    3  A    between atoms: C11_14  and  C18_23
REMARK    4  A    between atoms: C15_19  and  C16_20
REMARK    5  A    between atoms: C15_19  and  C17_21
REMARK    6  A    between atoms: C17_21  and  O2_22
REMARK                            x       y       z     vdW  Elec       q    Type
REMARK                         _______ _______ _______ _____ _____    ______ ____
ROOT
ATOM      1  C   UNL     1      45.966  13.702  21.891  0.00  0.00    +0.022 C 
ATOM      2  C   UNL     1      46.207  14.455  20.572  0.00  0.00    -0.029 C 
ATOM      5  C   UNL     1      45.130  15.526  20.424  0.00  0.00    +0.020 C 
ATOM      6  C   UNL     1      45.406  16.416  19.210  0.00  0.00    +0.014 C 
ATOM      7  C   UNL     1      46.777  17.079  19.379  0.00  0.00    -0.001 C 
ATOM      8  C   UNL     1      47.844  15.987  19.408  0.00  0.00    +0.001 C 
ATOM      9  C   UNL     1      49.238  16.595  19.536  0.00  0.00    +0.001 C 
ATOM     10  C   UNL     1      49.508  17.679  18.509  0.00  0.00    +0.020 C 
ATOM     11  C   UNL     1      48.408  18.732  18.407  0.00  0.00    +0.007 C 
ATOM     12  C   UNL     1      48.544  19.831  19.436  0.00  0.00    -0.035 C 
ATOM     16  C   UNL     1      49.841  20.623  19.148  0.00  0.00    +0.038 C 
ATOM     17  C   UNL     1      47.393  20.846  19.360  0.00  0.00    +0.031 C 
ATOM     18  C   UNL     1      46.089  20.085  19.322  0.00  0.00    +0.365 C 
ATOM     19  O   UNL     1      45.233  20.245  20.151  0.00  0.00    -0.450 OA
ATOM     20  C   UNL     1      45.922  19.108  18.181  0.00  0.00    +0.018 C 
ATOM     21  C   UNL     1      47.046  18.071  18.258  0.00  0.00    -0.029 C 
ATOM     22  C   UNL     1      47.035  17.319  16.908  0.00  0.00    +0.031 C 
ATOM     23  C   UNL     1      47.597  15.079  20.617  0.00  0.00    +0.023 C 
ENDROOT
BRANCH   2   3
ATOM      3  C   UNL     1      46.116  13.466  19.439  0.00  0.00    -0.033 C 
ATOM      4  C   UNL     1      44.945  13.039  19.034  0.00  0.00    -0.005 C 
ENDBRANCH   2   3
BRANCH  12  13
ATOM     13  C   UNL     1      48.632  19.316  20.872  0.00  0.00    +0.179 C 
BRANCH  13  14
ATOM     14  O   UNL     1      48.850  20.413  21.759  0.00  0.00    -0.570 OA
ATOM     15  H   UNL     1      48.212  20.468  22.483  0.00  0.00    +0.380 HD
ENDBRANCH  13  14
ENDBRANCH  12  13
TORSDOF 3
ENDMDL
