MODEL 1
REMARK VINA RESULT:      -7.2      0.000      0.000
REMARK  Name = ZINC95486235
REMARK  7 active torsions:
REMARK  status: ('A' for Active; 'I' for Inactive)
REMARK    1  A    between atoms: C1_1  and  N1_2
REMARK    2  A    between atoms: C4_6  and  O5_35
REMARK    3  A    between atoms: N2_18  and  C17_23
REMARK    4  A    between atoms: C17_23  and  C18_24
REMARK    5  A    between atoms: C18_24  and  C19_25
REMARK    6  A    between atoms: C22_28  and  O2_31
REMARK    7  A    between atoms: O5_35  and  C26_36
REMARK                            x       y       z     vdW  Elec       q    Type
REMARK                         _______ _______ _______ _____ _____    ______ ____
ROOT
ATOM      1  C   UNL     1      48.701  15.058  21.490  0.00  0.00    +0.302 C 
ATOM      2  N   UNL     1      47.690  15.445  20.507  0.00  0.00    -0.614 N 
ATOM      3  C   UNL     1      47.590  14.963  19.145  0.00  0.00    +0.213 C 
ATOM      4  C   UNL     1      48.791  14.415  18.428  0.00  0.00    +0.056 C 
ATOM      5  C   UNL     1      48.319  13.900  17.058  0.00  0.00    +0.201 C 
ATOM      8  C   UNL     1      47.203  14.710  16.479  0.00  0.00    -0.064 C 
ATOM      9  C   UNL     1      46.609  15.731  17.035  0.00  0.00    +0.034 C 
ATOM     10  C   UNL     1      47.031  16.192  18.380  0.00  0.00    +0.013 C 
ATOM     11  C   UNL     1      48.072  17.277  18.293  0.00  0.00    -0.047 A 
ATOM     12  C   UNL     1      49.169  17.059  17.455  0.00  0.00    +0.065 A 
ATOM     13  C   UNL     1      50.157  18.026  17.399  0.00  0.00    +0.027 A 
ATOM     14  C   UNL     1      50.051  19.212  18.143  0.00  0.00    +0.041 A 
ATOM     15  O   UNL     1      51.157  19.962  17.936  0.00  0.00    -0.305 OA
ATOM     16  C   UNL     1      52.123  19.066  17.347  0.00  0.00    +0.431 C 
ATOM     17  C   UNL     1      48.937  19.452  18.929  0.00  0.00    +0.041 A 
ATOM     18  O   UNL     1      51.312  18.062  16.697  0.00  0.00    -0.302 OA
ATOM     19  C   UNL     1      47.941  18.475  18.962  0.00  0.00    -0.061 A 
ATOM     20  C   UNL     1      46.684  18.820  19.725  0.00  0.00    +0.249 C 
ATOM     21  N   UNL     1      45.586  17.971  19.259  0.00  0.00    -0.509 NA
ATOM     32  C   UNL     1      45.942  16.557  19.392  0.00  0.00    +0.205 C 
ATOM     33  C   UNL     1      46.654  16.313  20.719  0.00  0.00    +0.496 C 
ATOM     34  O   UNL     1      46.358  16.789  21.794  0.00  0.00    -0.511 OA
ENDROOT
BRANCH   5   6
ATOM      6  O   UNL     1      49.422  13.901  16.150  0.00  0.00    -0.375 OA
ATOM      7  C   UNL     1      49.320  12.923  15.112  0.00  0.00    +0.207 C 
ENDBRANCH   5   6
BRANCH  21  22
ATOM     22  C   UNL     1      44.327  18.286  19.939  0.00  0.00    +0.195 C 
BRANCH  22  23
ATOM     23  C   UNL     1      44.299  19.774  20.296  0.00  0.00    +0.082 C 
BRANCH  23  24
ATOM     24  C   UNL     1      43.049  20.401  19.736  0.00  0.00    -0.090 A 
ATOM     25  C   UNL     1      41.922  19.627  19.527  0.00  0.00    +0.030 A 
ATOM     26  C   UNL     1      40.775  20.200  19.013  0.00  0.00    -0.016 A 
ATOM     27  C   UNL     1      40.755  21.553  18.705  0.00  0.00    +0.101 A 
ATOM     30  C   UNL     1      41.887  22.328  18.916  0.00  0.00    -0.015 A 
ATOM     31  C   UNL     1      43.029  21.750  19.436  0.00  0.00    +0.028 A 
BRANCH  27  28
ATOM     28  O   UNL     1      39.627  22.118  18.198  0.00  0.00    -0.501 OA
ATOM     29  H   UNL     1      39.785  22.933  17.702  0.00  0.00    +0.391 HD
ENDBRANCH  27  28
ENDBRANCH  23  24
ENDBRANCH  22  23
ENDBRANCH  21  22
TORSDOF 5
ENDMDL
MODEL 2
REMARK VINA RESULT:      -6.9      2.034      4.402
REMARK  Name = ZINC95486235
REMARK  7 active torsions:
REMARK  status: ('A' for Active; 'I' for Inactive)
REMARK    1  A    between atoms: C1_1  and  N1_2
REMARK    2  A    between atoms: C4_6  and  O5_35
REMARK    3  A    between atoms: N2_18  and  C17_23
REMARK    4  A    between atoms: C17_23  and  C18_24
REMARK    5  A    between atoms: C18_24  and  C19_25
REMARK    6  A    between atoms: C22_28  and  O2_31
REMARK    7  A    between atoms: O5_35  and  C26_36
REMARK                            x       y       z     vdW  Elec       q    Type
REMARK                         _______ _______ _______ _____ _____    ______ ____
ROOT
ATOM      1  C   UNL     1      49.839  16.750  20.302  0.00  0.00    +0.302 C 
ATOM      2  N   UNL     1      48.407  17.038  20.373  0.00  0.00    -0.614 N 
ATOM      3  C   UNL     1      47.428  16.326  21.167  0.00  0.00    +0.213 C 
ATOM      4  C   UNL     1      47.668  14.907  21.601  0.00  0.00    +0.056 C 
ATOM      5  C   UNL     1      46.495  14.493  22.505  0.00  0.00    +0.201 C 
ATOM      8  C   UNL     1      45.196  15.116  22.104  0.00  0.00    -0.064 C 
ATOM      9  C   UNL     1      45.004  15.965  21.130  0.00  0.00    +0.034 C 
ATOM     10  C   UNL     1      46.148  16.403  20.293  0.00  0.00    +0.013 C 
ATOM     11  C   UNL     1      46.295  15.545  19.064  0.00  0.00    -0.047 A 
ATOM     12  C   UNL     1      46.283  14.158  19.234  0.00  0.00    +0.065 A 
ATOM     13  C   UNL     1      46.463  13.356  18.121  0.00  0.00    +0.027 A 
ATOM     14  C   UNL     1      46.629  13.917  16.845  0.00  0.00    +0.041 A 
ATOM     15  O   UNL     1      46.820  12.923  15.948  0.00  0.00    -0.305 OA
ATOM     16  C   UNL     1      47.143  11.756  16.733  0.00  0.00    +0.431 C 
ATOM     17  C   UNL     1      46.584  15.290  16.669  0.00  0.00    +0.041 A 
ATOM     18  O   UNL     1      46.510  12.009  18.006  0.00  0.00    -0.302 OA
ATOM     19  C   UNL     1      46.384  16.085  17.798  0.00  0.00    -0.061 A 
ATOM     20  C   UNL     1      46.214  17.566  17.559  0.00  0.00    +0.249 C 
ATOM     21  N   UNL     1      45.526  18.166  18.703  0.00  0.00    -0.509 NA
ATOM     32  C   UNL     1      46.257  17.889  19.940  0.00  0.00    +0.205 C 
ATOM     33  C   UNL     1      47.758  18.047  19.717  0.00  0.00    +0.496 C 
ATOM     34  O   UNL     1      48.302  18.923  19.079  0.00  0.00    -0.511 OA
ENDROOT
BRANCH   5   6
ATOM      6  O   UNL     1      46.363  13.072  22.483  0.00  0.00    -0.375 OA
ATOM      7  C   UNL     1      47.610  12.373  22.485  0.00  0.00    +0.207 C 
ENDBRANCH   5   6
BRANCH  21  22
ATOM     22  C   UNL     1      45.298  19.601  18.511  0.00  0.00    +0.195 C 
BRANCH  22  23
ATOM     23  C   UNL     1      44.575  20.171  19.733  0.00  0.00    +0.082 C 
BRANCH  23  24
ATOM     24  C   UNL     1      43.195  20.626  19.333  0.00  0.00    -0.090 A 
ATOM     25  C   UNL     1      42.918  21.976  19.227  0.00  0.00    +0.030 A 
ATOM     26  C   UNL     1      41.654  22.397  18.861  0.00  0.00    -0.016 A 
ATOM     27  C   UNL     1      40.662  21.461  18.601  0.00  0.00    +0.101 A 
ATOM     30  C   UNL     1      40.943  20.107  18.708  0.00  0.00    -0.015 A 
ATOM     31  C   UNL     1      42.211  19.693  19.068  0.00  0.00    +0.028 A 
BRANCH  27  28
ATOM     28  O   UNL     1      39.417  21.872  18.241  0.00  0.00    -0.501 OA
ATOM     29  H   UNL     1      38.867  22.155  18.984  0.00  0.00    +0.391 HD
ENDBRANCH  27  28
ENDBRANCH  23  24
ENDBRANCH  22  23
ENDBRANCH  21  22
TORSDOF 5
ENDMDL
MODEL 3
REMARK VINA RESULT:      -6.6      2.090      2.385
REMARK  Name = ZINC95486235
REMARK  7 active torsions:
REMARK  status: ('A' for Active; 'I' for Inactive)
REMARK    1  A    between atoms: C1_1  and  N1_2
REMARK    2  A    between atoms: C4_6  and  O5_35
REMARK    3  A    between atoms: N2_18  and  C17_23
REMARK    4  A    between atoms: C17_23  and  C18_24
REMARK    5  A    between atoms: C18_24  and  C19_25
REMARK    6  A    between atoms: C22_28  and  O2_31
REMARK    7  A    between atoms: O5_35  and  C26_36
REMARK                            x       y       z     vdW  Elec       q    Type
REMARK                         _______ _______ _______ _____ _____    ______ ____
ROOT
ATOM      1  C   UNL     1      45.138  14.019  21.232  0.00  0.00    +0.302 C 
ATOM      2  N   UNL     1      45.147  15.262  20.462  0.00  0.00    -0.614 N 
ATOM      3  C   UNL     1      45.594  15.420  19.094  0.00  0.00    +0.213 C 
ATOM      4  C   UNL     1      46.569  14.454  18.483  0.00  0.00    +0.056 C 
ATOM      5  C   UNL     1      46.747  14.845  17.006  0.00  0.00    +0.201 C 
ATOM      8  C   UNL     1      46.658  16.320  16.774  0.00  0.00    -0.064 C 
ATOM      9  C   UNL     1      46.414  17.238  17.670  0.00  0.00    +0.034 C 
ATOM     10  C   UNL     1      46.190  16.852  19.085  0.00  0.00    +0.013 C 
ATOM     11  C   UNL     1      47.469  16.897  19.880  0.00  0.00    -0.047 A 
ATOM     12  C   UNL     1      48.590  16.259  19.343  0.00  0.00    +0.065 A 
ATOM     13  C   UNL     1      49.760  16.252  20.082  0.00  0.00    +0.027 A 
ATOM     14  C   UNL     1      49.831  16.891  21.329  0.00  0.00    +0.041 A 
ATOM     15  O   UNL     1      51.065  16.704  21.851  0.00  0.00    -0.305 OA
ATOM     16  C   UNL     1      51.645  15.627  21.085  0.00  0.00    +0.431 C 
ATOM     17  C   UNL     1      48.736  17.571  21.835  0.00  0.00    +0.041 A 
ATOM     18  O   UNL     1      50.967  15.703  19.812  0.00  0.00    -0.302 OA
ATOM     19  C   UNL     1      47.569  17.585  21.071  0.00  0.00    -0.061 A 
ATOM     20  C   UNL     1      46.435  18.438  21.587  0.00  0.00    +0.249 C 
ATOM     21  N   UNL     1      45.527  18.758  20.483  0.00  0.00    -0.509 NA
ATOM     32  C   UNL     1      45.047  17.530  19.846  0.00  0.00    +0.205 C 
ATOM     33  C   UNL     1      44.710  16.481  20.901  0.00  0.00    +0.496 C 
ATOM     34  O   UNL     1      44.138  16.676  21.952  0.00  0.00    -0.511 OA
ENDROOT
BRANCH   5   6
ATOM      6  O   UNL     1      48.012  14.371  16.543  0.00  0.00    -0.375 OA
ATOM      7  C   UNL     1      47.941  13.142  15.816  0.00  0.00    +0.207 C 
ENDBRANCH   5   6
BRANCH  21  22
ATOM     22  C   UNL     1      44.423  19.617  20.917  0.00  0.00    +0.195 C 
BRANCH  22  23
ATOM     23  C   UNL     1      44.332  20.835  19.994  0.00  0.00    +0.082 C 
BRANCH  23  24
ATOM     24  C   UNL     1      42.937  20.935  19.433  0.00  0.00    -0.090 A 
ATOM     25  C   UNL     1      42.198  19.788  19.210  0.00  0.00    +0.030 A 
ATOM     26  C   UNL     1      40.920  19.877  18.695  0.00  0.00    -0.016 A 
ATOM     27  C   UNL     1      40.377  21.121  18.401  0.00  0.00    +0.101 A 
ATOM     30  C   UNL     1      41.121  22.271  18.626  0.00  0.00    -0.015 A 
ATOM     31  C   UNL     1      42.396  22.175  19.147  0.00  0.00    +0.028 A 
BRANCH  27  28
ATOM     28  O   UNL     1      39.120  21.211  17.893  0.00  0.00    -0.501 OA
ATOM     29  H   UNL     1      38.765  20.372  17.571  0.00  0.00    +0.391 HD
ENDBRANCH  27  28
ENDBRANCH  23  24
ENDBRANCH  22  23
ENDBRANCH  21  22
TORSDOF 5
ENDMDL
MODEL 4
REMARK VINA RESULT:      -6.5      3.285      7.836
REMARK  Name = ZINC95486235
REMARK  7 active torsions:
REMARK  status: ('A' for Active; 'I' for Inactive)
REMARK    1  A    between atoms: C1_1  and  N1_2
REMARK    2  A    between atoms: C4_6  and  O5_35
REMARK    3  A    between atoms: N2_18  and  C17_23
REMARK    4  A    between atoms: C17_23  and  C18_24
REMARK    5  A    between atoms: C18_24  and  C19_25
REMARK    6  A    between atoms: C22_28  and  O2_31
REMARK    7  A    between atoms: O5_35  and  C26_36
REMARK                            x       y       z     vdW  Elec       q    Type
REMARK                         _______ _______ _______ _____ _____    ______ ____
ROOT
ATOM      1  C   UNL     1      52.242  16.959  21.337  0.00  0.00    +0.302 C 
ATOM      2  N   UNL     1      51.916  16.633  19.950  0.00  0.00    -0.614 N 
ATOM      3  C   UNL     1      52.113  17.490  18.799  0.00  0.00    +0.213 C 
ATOM      4  C   UNL     1      52.189  18.983  18.951  0.00  0.00    +0.056 C 
ATOM      5  C   UNL     1      52.505  19.575  17.567  0.00  0.00    +0.201 C 
ATOM      8  C   UNL     1      51.889  18.803  16.443  0.00  0.00    -0.064 C 
ATOM      9  C   UNL     1      51.183  17.709  16.542  0.00  0.00    +0.034 C 
ATOM     10  C   UNL     1      50.925  17.111  17.875  0.00  0.00    +0.013 C 
ATOM     11  C   UNL     1      49.625  17.599  18.459  0.00  0.00    -0.047 A 
ATOM     12  C   UNL     1      49.389  18.977  18.458  0.00  0.00    +0.065 A 
ATOM     13  C   UNL     1      48.221  19.445  19.032  0.00  0.00    +0.027 A 
ATOM     14  C   UNL     1      47.279  18.560  19.580  0.00  0.00    +0.041 A 
ATOM     15  O   UNL     1      46.256  19.273  20.103  0.00  0.00    -0.305 OA
ATOM     16  C   UNL     1      46.746  20.626  20.206  0.00  0.00    +0.431 C 
ATOM     17  C   UNL     1      47.488  17.192  19.531  0.00  0.00    +0.041 A 
ATOM     18  O   UNL     1      47.758  20.707  19.178  0.00  0.00    -0.302 OA
ATOM     19  C   UNL     1      48.662  16.733  18.933  0.00  0.00    -0.061 A 
ATOM     20  C   UNL     1      48.802  15.238  18.780  0.00  0.00    +0.249 C 
ATOM     21  N   UNL     1      49.776  14.947  17.726  0.00  0.00    -0.509 NA
ATOM     32  C   UNL     1      51.056  15.593  18.023  0.00  0.00    +0.205 C 
ATOM     33  C   UNL     1      51.392  15.451  19.504  0.00  0.00    +0.496 C 
ATOM     34  O   UNL     1      51.238  14.460  20.186  0.00  0.00    -0.511 OA
ENDROOT
BRANCH   5   6
ATOM      6  O   UNL     1      52.045  20.926  17.517  0.00  0.00    -0.375 OA
ATOM      7  C   UNL     1      51.503  21.309  16.251  0.00  0.00    +0.207 C 
ENDBRANCH   5   6
BRANCH  21  22
ATOM     22  C   UNL     1      49.927  13.506  17.506  0.00  0.00    +0.195 C 
BRANCH  22  23
ATOM     23  C   UNL     1      51.169  13.249  16.651  0.00  0.00    +0.082 C 
BRANCH  23  24
ATOM     24  C   UNL     1      50.770  13.155  15.201  0.00  0.00    -0.090 A 
ATOM     25  C   UNL     1      51.714  13.355  14.211  0.00  0.00    +0.030 A 
ATOM     26  C   UNL     1      51.350  13.271  12.881  0.00  0.00    -0.016 A 
ATOM     27  C   UNL     1      50.036  12.984  12.539  0.00  0.00    +0.101 A 
ATOM     30  C   UNL     1      49.091  12.783  13.535  0.00  0.00    -0.015 A 
ATOM     31  C   UNL     1      49.462  12.863  14.863  0.00  0.00    +0.028 A 
BRANCH  27  28
ATOM     28  O   UNL     1      49.676  12.901  11.231  0.00  0.00    -0.501 OA
ATOM     29  H   UNL     1      48.729  13.021  11.076  0.00  0.00    +0.391 HD
ENDBRANCH  27  28
ENDBRANCH  23  24
ENDBRANCH  22  23
ENDBRANCH  21  22
TORSDOF 5
ENDMDL
MODEL 5
REMARK VINA RESULT:      -6.4      4.254      7.385
REMARK  Name = ZINC95486235
REMARK  7 active torsions:
REMARK  status: ('A' for Active; 'I' for Inactive)
REMARK    1  A    between atoms: C1_1  and  N1_2
REMARK    2  A    between atoms: C4_6  and  O5_35
REMARK    3  A    between atoms: N2_18  and  C17_23
REMARK    4  A    between atoms: C17_23  and  C18_24
REMARK    5  A    between atoms: C18_24  and  C19_25
REMARK    6  A    between atoms: C22_28  and  O2_31
REMARK    7  A    between atoms: O5_35  and  C26_36
REMARK                            x       y       z     vdW  Elec       q    Type
REMARK                         _______ _______ _______ _____ _____    ______ ____
ROOT
ATOM      1  C   UNL     1      50.240  11.976  20.557  0.00  0.00    +0.302 C 
ATOM      2  N   UNL     1      50.044  13.307  19.985  0.00  0.00    -0.614 N 
ATOM      3  C   UNL     1      48.926  14.192  20.237  0.00  0.00    +0.213 C 
ATOM      4  C   UNL     1      47.601  13.653  20.698  0.00  0.00    +0.056 C 
ATOM      5  C   UNL     1      46.680  14.854  20.969  0.00  0.00    +0.201 C 
ATOM      8  C   UNL     1      46.924  16.003  20.042  0.00  0.00    -0.064 C 
ATOM      9  C   UNL     1      47.833  16.072  19.107  0.00  0.00    +0.034 C 
ATOM     10  C   UNL     1      48.755  14.932  18.884  0.00  0.00    +0.013 C 
ATOM     11  C   UNL     1      48.229  13.992  17.831  0.00  0.00    -0.047 A 
ATOM     12  C   UNL     1      46.903  13.568  17.943  0.00  0.00    +0.065 A 
ATOM     13  C   UNL     1      46.418  12.668  17.010  0.00  0.00    +0.027 A 
ATOM     14  C   UNL     1      47.227  12.211  15.959  0.00  0.00    +0.041 A 
ATOM     15  O   UNL     1      46.527  11.321  15.218  0.00  0.00    -0.305 OA
ATOM     16  C   UNL     1      45.398  10.948  16.036  0.00  0.00    +0.431 C 
ATOM     17  C   UNL     1      48.523  12.676  15.815  0.00  0.00    +0.041 A 
ATOM     18  O   UNL     1      45.200  12.091  16.896  0.00  0.00    -0.302 OA
ATOM     19  C   UNL     1      48.993  13.596  16.753  0.00  0.00    -0.061 A 
ATOM     20  C   UNL     1      50.362  14.179  16.499  0.00  0.00    +0.249 C 
ATOM     21  N   UNL     1      50.494  15.443  17.227  0.00  0.00    -0.509 NA
ATOM     32  C   UNL     1      50.238  15.238  18.654  0.00  0.00    +0.205 C 
ATOM     33  C   UNL     1      50.900  13.949  19.132  0.00  0.00    +0.496 C 
ATOM     34  O   UNL     1      52.004  13.551  18.828  0.00  0.00    -0.511 OA
ENDROOT
BRANCH   5   6
ATOM      6  O   UNL     1      45.319  14.438  20.854  0.00  0.00    -0.375 OA
ATOM      7  C   UNL     1      45.024  13.220  21.542  0.00  0.00    +0.207 C 
ENDBRANCH   5   6
BRANCH  21  22
ATOM     22  C   UNL     1      51.793  16.076  16.989  0.00  0.00    +0.195 C 
BRANCH  22  23
ATOM     23  C   UNL     1      52.034  17.158  18.045  0.00  0.00    +0.082 C 
BRANCH  23  24
ATOM     24  C   UNL     1      51.900  18.518  17.410  0.00  0.00    -0.090 A 
ATOM     25  C   UNL     1      51.716  19.635  18.204  0.00  0.00    +0.030 A 
ATOM     26  C   UNL     1      51.592  20.883  17.625  0.00  0.00    -0.016 A 
ATOM     27  C   UNL     1      51.651  21.015  16.245  0.00  0.00    +0.101 A 
ATOM     30  C   UNL     1      51.836  19.892  15.450  0.00  0.00    -0.015 A 
ATOM     31  C   UNL     1      51.966  18.647  16.036  0.00  0.00    +0.028 A 
BRANCH  27  28
ATOM     28  O   UNL     1      51.528  22.241  15.673  0.00  0.00    -0.501 OA
ATOM     29  H   UNL     1      52.101  22.916  16.062  0.00  0.00    +0.391 HD
ENDBRANCH  27  28
ENDBRANCH  23  24
ENDBRANCH  22  23
ENDBRANCH  21  22
TORSDOF 5
ENDMDL
MODEL 6
REMARK VINA RESULT:      -6.4      1.486      2.048
REMARK  Name = ZINC95486235
REMARK  7 active torsions:
REMARK  status: ('A' for Active; 'I' for Inactive)
REMARK    1  A    between atoms: C1_1  and  N1_2
REMARK    2  A    between atoms: C4_6  and  O5_35
REMARK    3  A    between atoms: N2_18  and  C17_23
REMARK    4  A    between atoms: C17_23  and  C18_24
REMARK    5  A    between atoms: C18_24  and  C19_25
REMARK    6  A    between atoms: C22_28  and  O2_31
REMARK    7  A    between atoms: O5_35  and  C26_36
REMARK                            x       y       z     vdW  Elec       q    Type
REMARK                         _______ _______ _______ _____ _____    ______ ____
ROOT
ATOM      1  C   UNL     1      49.745  13.221  20.745  0.00  0.00    +0.302 C 
ATOM      2  N   UNL     1      48.537  13.633  20.032  0.00  0.00    -0.614 N 
ATOM      3  C   UNL     1      48.268  13.445  18.621  0.00  0.00    +0.213 C 
ATOM      4  C   UNL     1      49.391  13.276  17.636  0.00  0.00    +0.056 C 
ATOM      5  C   UNL     1      48.762  12.996  16.260  0.00  0.00    +0.201 C 
ATOM      8  C   UNL     1      47.465  13.709  16.051  0.00  0.00    -0.064 C 
ATOM      9  C   UNL     1      46.844  14.471  16.911  0.00  0.00    +0.034 C 
ATOM     10  C   UNL     1      47.427  14.696  18.257  0.00  0.00    +0.013 C 
ATOM     11  C   UNL     1      48.282  15.935  18.289  0.00  0.00    -0.047 A 
ATOM     12  C   UNL     1      49.237  16.092  17.281  0.00  0.00    +0.065 A 
ATOM     13  C   UNL     1      50.062  17.203  17.323  0.00  0.00    +0.027 A 
ATOM     14  C   UNL     1      49.929  18.165  18.337  0.00  0.00    +0.041 A 
ATOM     15  O   UNL     1      50.872  19.119  18.165  0.00  0.00    -0.305 OA
ATOM     16  C   UNL     1      51.833  18.548  17.252  0.00  0.00    +0.431 C 
ATOM     17  C   UNL     1      48.945  18.037  19.302  0.00  0.00    +0.041 A 
ATOM     18  O   UNL     1      51.064  17.585  16.498  0.00  0.00    -0.302 OA
ATOM     19  C   UNL     1      48.109  16.922  19.237  0.00  0.00    -0.061 A 
ATOM     20  C   UNL     1      46.968  16.875  20.225  0.00  0.00    +0.249 C 
ATOM     21  N   UNL     1      45.930  15.973  19.725  0.00  0.00    -0.509 NA
ATOM     32  C   UNL     1      46.490  14.645  19.466  0.00  0.00    +0.205 C 
ATOM     33  C   UNL     1      47.447  14.245  20.585  0.00  0.00    +0.496 C 
ATOM     34  O   UNL     1      47.279  14.422  21.773  0.00  0.00    -0.511 OA
ENDROOT
BRANCH   5   6
ATOM      6  O   UNL     1      49.682  13.379  15.237  0.00  0.00    -0.375 OA
ATOM      7  C   UNL     1      49.518  12.662  14.011  0.00  0.00    +0.207 C 
ENDBRANCH   5   6
BRANCH  21  22
ATOM     22  C   UNL     1      44.777  15.915  20.627  0.00  0.00    +0.195 C 
BRANCH  22  23
ATOM     23  C   UNL     1      44.742  17.178  21.491  0.00  0.00    +0.082 C 
BRANCH  23  24
ATOM     24  C   UNL     1      43.615  18.069  21.033  0.00  0.00    -0.090 A 
ATOM     25  C   UNL     1      43.785  18.882  19.927  0.00  0.00    +0.030 A 
ATOM     26  C   UNL     1      42.754  19.700  19.506  0.00  0.00    -0.016 A 
ATOM     27  C   UNL     1      41.548  19.704  20.193  0.00  0.00    +0.101 A 
ATOM     30  C   UNL     1      41.381  18.886  21.302  0.00  0.00    -0.015 A 
ATOM     31  C   UNL     1      42.413  18.066  21.715  0.00  0.00    +0.028 A 
BRANCH  27  28
ATOM     28  O   UNL     1      40.533  20.508  19.781  0.00  0.00    -0.501 OA
ATOM     29  H   UNL     1      40.311  21.213  20.405  0.00  0.00    +0.391 HD
ENDBRANCH  27  28
ENDBRANCH  23  24
ENDBRANCH  22  23
ENDBRANCH  21  22
TORSDOF 5
ENDMDL
MODEL 7
REMARK VINA RESULT:      -6.3      2.569      4.895
REMARK  Name = ZINC95486235
REMARK  7 active torsions:
REMARK  status: ('A' for Active; 'I' for Inactive)
REMARK    1  A    between atoms: C1_1  and  N1_2
REMARK    2  A    between atoms: C4_6  and  O5_35
REMARK    3  A    between atoms: N2_18  and  C17_23
REMARK    4  A    between atoms: C17_23  and  C18_24
REMARK    5  A    between atoms: C18_24  and  C19_25
REMARK    6  A    between atoms: C22_28  and  O2_31
REMARK    7  A    between atoms: O5_35  and  C26_36
REMARK                            x       y       z     vdW  Elec       q    Type
REMARK                         _______ _______ _______ _____ _____    ______ ____
ROOT
ATOM      1  C   UNL     1      50.009  16.394  20.175  0.00  0.00    +0.302 C 
ATOM      2  N   UNL     1      48.577  16.691  20.155  0.00  0.00    -0.614 N 
ATOM      3  C   UNL     1      47.555  16.036  20.945  0.00  0.00    +0.213 C 
ATOM      4  C   UNL     1      47.765  14.649  21.484  0.00  0.00    +0.056 C 
ATOM      5  C   UNL     1      46.546  14.299  22.354  0.00  0.00    +0.201 C 
ATOM      8  C   UNL     1      45.272  14.898  21.848  0.00  0.00    -0.064 C 
ATOM      9  C   UNL     1      45.134  15.681  20.811  0.00  0.00    +0.034 C 
ATOM     10  C   UNL     1      46.321  16.058  20.005  0.00  0.00    +0.013 C 
ATOM     11  C   UNL     1      46.523  15.120  18.845  0.00  0.00    -0.047 A 
ATOM     12  C   UNL     1      46.494  13.748  19.106  0.00  0.00    +0.065 A 
ATOM     13  C   UNL     1      46.724  12.873  18.059  0.00  0.00    +0.027 A 
ATOM     14  C   UNL     1      46.955  13.347  16.758  0.00  0.00    +0.041 A 
ATOM     15  O   UNL     1      47.184  12.296  15.939  0.00  0.00    -0.305 OA
ATOM     16  C   UNL     1      47.461  11.182  16.815  0.00  0.00    +0.431 C 
ATOM     17  C   UNL     1      46.928  14.705  16.489  0.00  0.00    +0.041 A 
ATOM     18  O   UNL     1      46.768  11.521  18.036  0.00  0.00    -0.302 OA
ATOM     19  C   UNL     1      46.678  15.574  17.552  0.00  0.00    -0.061 A 
ATOM     20  C   UNL     1      46.529  17.037  17.206  0.00  0.00    +0.249 C 
ATOM     21  N   UNL     1      45.789  17.714  18.272  0.00  0.00    -0.509 NA
ATOM     32  C   UNL     1      46.456  17.517  19.561  0.00  0.00    +0.205 C 
ATOM     33  C   UNL     1      47.967  17.656  19.402  0.00  0.00    +0.496 C 
ATOM     34  O   UNL     1      48.548  18.485  18.735  0.00  0.00    -0.511 OA
ENDROOT
BRANCH   5   6
ATOM      6  O   UNL     1      46.406  12.880  22.419  0.00  0.00    -0.375 OA
ATOM      7  C   UNL     1      47.648  12.177  22.505  0.00  0.00    +0.207 C 
ENDBRANCH   5   6
BRANCH  21  22
ATOM     22  C   UNL     1      45.580  19.133  17.975  0.00  0.00    +0.195 C 
BRANCH  22  23
ATOM     23  C   UNL     1      44.367  19.645  18.755  0.00  0.00    +0.082 C 
BRANCH  23  24
ATOM     24  C   UNL     1      44.740  20.904  19.494  0.00  0.00    -0.090 A 
ATOM     25  C   UNL     1      43.815  21.922  19.634  0.00  0.00    +0.030 A 
ATOM     26  C   UNL     1      44.155  23.077  20.311  0.00  0.00    -0.016 A 
ATOM     27  C   UNL     1      45.426  23.215  20.851  0.00  0.00    +0.101 A 
ATOM     30  C   UNL     1      46.352  22.191  20.710  0.00  0.00    -0.015 A 
ATOM     31  C   UNL     1      46.004  21.036  20.037  0.00  0.00    +0.028 A 
BRANCH  27  28
ATOM     28  O   UNL     1      45.762  24.351  21.516  0.00  0.00    -0.501 OA
ATOM     29  H   UNL     1      46.545  24.796  21.164  0.00  0.00    +0.391 HD
ENDBRANCH  27  28
ENDBRANCH  23  24
ENDBRANCH  22  23
ENDBRANCH  21  22
TORSDOF 5
ENDMDL
MODEL 8
REMARK VINA RESULT:      -6.2      2.212      6.911
REMARK  Name = ZINC95486235
REMARK  7 active torsions:
REMARK  status: ('A' for Active; 'I' for Inactive)
REMARK    1  A    between atoms: C1_1  and  N1_2
REMARK    2  A    between atoms: C4_6  and  O5_35
REMARK    3  A    between atoms: N2_18  and  C17_23
REMARK    4  A    between atoms: C17_23  and  C18_24
REMARK    5  A    between atoms: C18_24  and  C19_25
REMARK    6  A    between atoms: C22_28  and  O2_31
REMARK    7  A    between atoms: O5_35  and  C26_36
REMARK                            x       y       z     vdW  Elec       q    Type
REMARK                         _______ _______ _______ _____ _____    ______ ____
ROOT
ATOM      1  C   UNL     1      48.873  17.096  22.312  0.00  0.00    +0.302 C 
ATOM      2  N   UNL     1      48.649  16.495  20.998  0.00  0.00    -0.614 N 
ATOM      3  C   UNL     1      49.236  16.927  19.747  0.00  0.00    +0.213 C 
ATOM      4  C   UNL     1      49.726  18.336  19.568  0.00  0.00    +0.056 C 
ATOM      5  C   UNL     1      50.378  18.428  18.178  0.00  0.00    +0.201 C 
ATOM      8  C   UNL     1      49.715  17.557  17.159  0.00  0.00    -0.064 C 
ATOM      9  C   UNL     1      48.713  16.744  17.360  0.00  0.00    +0.034 C 
ATOM     10  C   UNL     1      48.120  16.618  18.714  0.00  0.00    +0.013 C 
ATOM     11  C   UNL     1      46.956  17.556  18.898  0.00  0.00    -0.047 A 
ATOM     12  C   UNL     1      47.136  18.894  18.536  0.00  0.00    +0.065 A 
ATOM     13  C   UNL     1      46.091  19.778  18.742  0.00  0.00    +0.027 A 
ATOM     14  C   UNL     1      44.869  19.340  19.276  0.00  0.00    +0.041 A 
ATOM     15  O   UNL     1      44.041  20.401  19.406  0.00  0.00    -0.305 OA
ATOM     16  C   UNL     1      44.888  21.564  19.296  0.00  0.00    +0.431 C 
ATOM     17  C   UNL     1      44.673  18.004  19.581  0.00  0.00    +0.041 A 
ATOM     18  O   UNL     1      46.004  21.106  18.502  0.00  0.00    -0.302 OA
ATOM     19  C   UNL     1      45.729  17.122  19.352  0.00  0.00    -0.061 A 
ATOM     20  C   UNL     1      45.443  15.656  19.574  0.00  0.00    +0.249 C 
ATOM     21  N   UNL     1      46.417  14.854  18.832  0.00  0.00    -0.509 NA
ATOM     32  C   UNL     1      47.780  15.215  19.225  0.00  0.00    +0.205 C 
ATOM     33  C   UNL     1      47.864  15.406  20.736  0.00  0.00    +0.496 C 
ATOM     34  O   UNL     1      47.339  14.711  21.580  0.00  0.00    -0.511 OA
ENDROOT
BRANCH   5   6
ATOM      6  O   UNL     1      50.345  19.784  17.732  0.00  0.00    -0.375 OA
ATOM      7  C   UNL     1      50.365  20.744  18.791  0.00  0.00    +0.207 C 
ENDBRANCH   5   6
BRANCH  21  22
ATOM     22  C   UNL     1      46.167  13.418  18.980  0.00  0.00    +0.195 C 
BRANCH  22  23
ATOM     23  C   UNL     1      45.433  12.898  17.741  0.00  0.00    +0.082 C 
BRANCH  23  24
ATOM     24  C   UNL     1      46.423  12.250  16.807  0.00  0.00    -0.090 A 
ATOM     25  C   UNL     1      46.462  10.873  16.690  0.00  0.00    +0.030 A 
ATOM     26  C   UNL     1      47.368  10.277  15.836  0.00  0.00    -0.016 A 
ATOM     27  C   UNL     1      48.239  11.061  15.093  0.00  0.00    +0.101 A 
ATOM     30  C   UNL     1      48.197  12.443  15.211  0.00  0.00    -0.015 A 
ATOM     31  C   UNL     1      47.285  13.034  16.063  0.00  0.00    +0.028 A 
BRANCH  27  28
ATOM     28  O   UNL     1      49.132  10.477  14.251  0.00  0.00    -0.501 OA
ATOM     29  H   UNL     1      49.357  11.015  13.480  0.00  0.00    +0.391 HD
ENDBRANCH  27  28
ENDBRANCH  23  24
ENDBRANCH  22  23
ENDBRANCH  21  22
TORSDOF 5
ENDMDL
MODEL 9
REMARK VINA RESULT:      -6.2      2.795      4.925
REMARK  Name = ZINC95486235
REMARK  7 active torsions:
REMARK  status: ('A' for Active; 'I' for Inactive)
REMARK    1  A    between atoms: C1_1  and  N1_2
REMARK    2  A    between atoms: C4_6  and  O5_35
REMARK    3  A    between atoms: N2_18  and  C17_23
REMARK    4  A    between atoms: C17_23  and  C18_24
REMARK    5  A    between atoms: C18_24  and  C19_25
REMARK    6  A    between atoms: C22_28  and  O2_31
REMARK    7  A    between atoms: O5_35  and  C26_36
REMARK                            x       y       z     vdW  Elec       q    Type
REMARK                         _______ _______ _______ _____ _____    ______ ____
ROOT
ATOM      1  C   UNL     1      51.891  19.271  16.198  0.00  0.00    +0.302 C 
ATOM      2  N   UNL     1      51.546  19.128  17.612  0.00  0.00    -0.614 N 
ATOM      3  C   UNL     1      51.960  18.055  18.491  0.00  0.00    +0.213 C 
ATOM      4  C   UNL     1      52.353  16.713  17.941  0.00  0.00    +0.056 C 
ATOM      5  C   UNL     1      52.833  15.850  19.120  0.00  0.00    +0.201 C 
ATOM      8  C   UNL     1      52.101  16.135  20.393  0.00  0.00    -0.064 C 
ATOM      9  C   UNL     1      51.172  17.035  20.576  0.00  0.00    +0.034 C 
ATOM     10  C   UNL     1      50.749  17.902  19.449  0.00  0.00    +0.013 C 
ATOM     11  C   UNL     1      49.568  17.321  18.717  0.00  0.00    -0.047 A 
ATOM     12  C   UNL     1      49.635  15.978  18.337  0.00  0.00    +0.065 A 
ATOM     13  C   UNL     1      48.577  15.442  17.623  0.00  0.00    +0.027 A 
ATOM     14  C   UNL     1      47.450  16.217  17.310  0.00  0.00    +0.041 A 
ATOM     15  O   UNL     1      46.588  15.469  16.584  0.00  0.00    -0.305 OA
ATOM     16  C   UNL     1      47.356  14.334  16.131  0.00  0.00    +0.431 C 
ATOM     17  C   UNL     1      47.359  17.531  17.736  0.00  0.00    +0.041 A 
ATOM     18  O   UNL     1      48.394  14.198  17.126  0.00  0.00    -0.302 OA
ATOM     19  C   UNL     1      48.425  18.053  18.469  0.00  0.00    -0.061 A 
ATOM     20  C   UNL     1      48.243  19.444  19.027  0.00  0.00    +0.249 C 
ATOM     21  N   UNL     1      49.165  19.642  20.148  0.00  0.00    -0.509 NA
ATOM     32  C   UNL     1      50.544  19.394  19.724  0.00  0.00    +0.205 C 
ATOM     33  C   UNL     1      50.793  20.002  18.347  0.00  0.00    +0.496 C 
ATOM     34  O   UNL     1      50.407  21.083  17.957  0.00  0.00    -0.511 OA
ENDROOT
BRANCH   5   6
ATOM      6  O   UNL     1      52.678  14.470  18.787  0.00  0.00    -0.375 OA
ATOM      7  C   UNL     1      53.315  13.576  19.703  0.00  0.00    +0.207 C 
ENDBRANCH   5   6
BRANCH  21  22
ATOM     22  C   UNL     1      49.008  20.965  20.756  0.00  0.00    +0.195 C 
BRANCH  22  23
ATOM     23  C   UNL     1      47.974  20.890  21.882  0.00  0.00    +0.082 C 
BRANCH  23  24
ATOM     24  C   UNL     1      46.699  21.562  21.438  0.00  0.00    -0.090 A 
ATOM     25  C   UNL     1      46.630  22.942  21.382  0.00  0.00    +0.030 A 
ATOM     26  C   UNL     1      45.463  23.560  20.978  0.00  0.00    -0.016 A 
ATOM     27  C   UNL     1      44.360  22.795  20.626  0.00  0.00    +0.101 A 
ATOM     30  C   UNL     1      44.432  21.411  20.683  0.00  0.00    -0.015 A 
ATOM     31  C   UNL     1      45.604  20.798  21.083  0.00  0.00    +0.028 A 
BRANCH  27  28
ATOM     28  O   UNL     1      43.211  23.401  20.228  0.00  0.00    -0.501 OA
ATOM     29  H   UNL     1      42.527  23.435  20.911  0.00  0.00    +0.391 HD
ENDBRANCH  27  28
ENDBRANCH  23  24
ENDBRANCH  22  23
ENDBRANCH  21  22
TORSDOF 5
ENDMDL
