MODEL 1
REMARK VINA RESULT:      -4.3      0.000      0.000
REMARK  Name = ZINC06018566
REMARK  6 active torsions:
REMARK  status: ('A' for Active; 'I' for Inactive)
REMARK    1  A    between atoms: C1_1  and  O1_2
REMARK    2  A    between atoms: O1_2  and  C2_3
REMARK    3  A    between atoms: C5_6  and  C9_11
REMARK    4  A    between atoms: C7_8  and  O2_9
REMARK    5  A    between atoms: O2_9  and  C8_10
REMARK    6  A    between atoms: C10_12  and  C11_13
REMARK                            x       y       z     vdW  Elec       q    Type
REMARK                         _______ _______ _______ _____ _____    ______ ____
ROOT
ATOM      3  C   UNL     1      44.191  17.478  21.274  0.00  0.00    +0.121 A 
ATOM      4  C   UNL     1      43.038  17.631  22.034  0.00  0.00    -0.038 A 
ATOM      5  C   UNL     1      42.022  18.450  21.594  0.00  0.00    +0.050 A 
ATOM      6  C   UNL     1      42.151  19.132  20.377  0.00  0.00    -0.091 A 
ATOM     11  C   UNL     1      43.312  18.974  19.610  0.00  0.00    -0.003 A 
ATOM     12  C   UNL     1      44.327  18.154  20.062  0.00  0.00    +0.095 A 
ENDROOT
BRANCH   3   2
ATOM      1  C   UNL     1      44.964  15.259  21.631  0.00  0.00    +0.243 C 
ATOM      2  O   UNL     1      45.189  16.668  21.713  0.00  0.00    -0.302 OA
ENDBRANCH   3   2
BRANCH   6   7
ATOM      7  C   UNL     1      41.070  20.006  19.905  0.00  0.00    +0.131 C 
ATOM      8  C   UNL     1      41.291  20.864  18.880  0.00  0.00    -0.130 C 
BRANCH   8   9
ATOM      9  C   UNL     1      40.254  21.703  18.428  0.00  0.00    +0.456 C 
ATOM     10  O   UNL     1      39.118  21.281  18.359  0.00  0.00    -0.468 OA
ENDBRANCH   8   9
ENDBRANCH   6   7
BRANCH  12  13
ATOM     13  O   UNL     1      45.458  18.002  19.322  0.00  0.00    -0.305 OA
ATOM     14  C   UNL     1      45.647  18.906  18.232  0.00  0.00    +0.240 C 
ENDBRANCH  12  13
TORSDOF 4
ENDMDL
MODEL 2
REMARK VINA RESULT:      -4.2      1.331      2.765
REMARK  Name = ZINC06018566
REMARK  6 active torsions:
REMARK  status: ('A' for Active; 'I' for Inactive)
REMARK    1  A    between atoms: C1_1  and  O1_2
REMARK    2  A    between atoms: O1_2  and  C2_3
REMARK    3  A    between atoms: C5_6  and  C9_11
REMARK    4  A    between atoms: C7_8  and  O2_9
REMARK    5  A    between atoms: O2_9  and  C8_10
REMARK    6  A    between atoms: C10_12  and  C11_13
REMARK                            x       y       z     vdW  Elec       q    Type
REMARK                         _______ _______ _______ _____ _____    ______ ____
ROOT
ATOM      3  C   UNL     1      45.441  17.496  19.348  0.00  0.00    +0.121 A 
ATOM      4  C   UNL     1      45.566  18.492  18.387  0.00  0.00    -0.038 A 
ATOM      5  C   UNL     1      44.687  19.551  18.369  0.00  0.00    +0.050 A 
ATOM      6  C   UNL     1      43.663  19.627  19.323  0.00  0.00    -0.091 A 
ATOM     11  C   UNL     1      43.541  18.626  20.294  0.00  0.00    -0.003 A 
ATOM     12  C   UNL     1      44.424  17.564  20.300  0.00  0.00    +0.095 A 
ENDROOT
BRANCH   3   2
ATOM      1  C   UNL     1      46.311  15.595  18.218  0.00  0.00    +0.243 C 
ATOM      2  O   UNL     1      46.311  16.454  19.361  0.00  0.00    -0.302 OA
ENDBRANCH   3   2
BRANCH   6   7
ATOM      7  C   UNL     1      42.725  20.756  19.307  0.00  0.00    +0.131 C 
ATOM      8  C   UNL     1      41.594  20.687  18.563  0.00  0.00    -0.130 C 
BRANCH   8   9
ATOM      9  C   UNL     1      40.694  21.770  18.547  0.00  0.00    +0.456 C 
ATOM     10  O   UNL     1      39.500  21.569  18.644  0.00  0.00    -0.468 OA
ENDBRANCH   8   9
ENDBRANCH   6   7
BRANCH  12  13
ATOM     13  O   UNL     1      44.306  16.587  21.239  0.00  0.00    -0.305 OA
ATOM     14  C   UNL     1      43.361  16.807  22.289  0.00  0.00    +0.240 C 
ENDBRANCH  12  13
TORSDOF 4
ENDMDL
MODEL 3
REMARK VINA RESULT:      -4.1      2.441      5.837
REMARK  Name = ZINC06018566
REMARK  6 active torsions:
REMARK  status: ('A' for Active; 'I' for Inactive)
REMARK    1  A    between atoms: C1_1  and  O1_2
REMARK    2  A    between atoms: O1_2  and  C2_3
REMARK    3  A    between atoms: C5_6  and  C9_11
REMARK    4  A    between atoms: C7_8  and  O2_9
REMARK    5  A    between atoms: O2_9  and  C8_10
REMARK    6  A    between atoms: C10_12  and  C11_13
REMARK                            x       y       z     vdW  Elec       q    Type
REMARK                         _______ _______ _______ _____ _____    ______ ____
ROOT
ATOM      3  C   UNL     1      43.186  22.521  19.469  0.00  0.00    +0.121 A 
ATOM      4  C   UNL     1      44.291  22.040  20.160  0.00  0.00    -0.038 A 
ATOM      5  C   UNL     1      44.370  20.707  20.498  0.00  0.00    +0.050 A 
ATOM      6  C   UNL     1      43.334  19.833  20.144  0.00  0.00    -0.091 A 
ATOM     11  C   UNL     1      42.223  20.318  19.444  0.00  0.00    -0.003 A 
ATOM     12  C   UNL     1      42.150  21.657  19.115  0.00  0.00    +0.095 A 
ENDROOT
BRANCH   3   2
ATOM      1  C   UNL     1      44.343  24.496  18.830  0.00  0.00    +0.243 C 
ATOM      2  O   UNL     1      43.113  23.836  19.139  0.00  0.00    -0.302 OA
ENDBRANCH   3   2
BRANCH   6   7
ATOM      7  C   UNL     1      43.416  18.412  20.503  0.00  0.00    +0.131 C 
ATOM      8  C   UNL     1      44.625  17.807  20.601  0.00  0.00    -0.130 C 
BRANCH   8   9
ATOM      9  C   UNL     1      44.704  16.443  20.945  0.00  0.00    +0.456 C 
ATOM     10  O   UNL     1      44.980  15.618  20.097  0.00  0.00    -0.468 OA
ENDBRANCH   8   9
ENDBRANCH   6   7
BRANCH  12  13
ATOM     13  O   UNL     1      41.069  22.132  18.439  0.00  0.00    -0.305 OA
ATOM     14  C   UNL     1      39.845  21.411  18.583  0.00  0.00    +0.240 C 
ENDBRANCH  12  13
TORSDOF 4
ENDMDL
MODEL 4
REMARK VINA RESULT:      -4.1      3.587      6.529
REMARK  Name = ZINC06018566
REMARK  6 active torsions:
REMARK  status: ('A' for Active; 'I' for Inactive)
REMARK    1  A    between atoms: C1_1  and  O1_2
REMARK    2  A    between atoms: O1_2  and  C2_3
REMARK    3  A    between atoms: C5_6  and  C9_11
REMARK    4  A    between atoms: C7_8  and  O2_9
REMARK    5  A    between atoms: O2_9  and  C8_10
REMARK    6  A    between atoms: C10_12  and  C11_13
REMARK                            x       y       z     vdW  Elec       q    Type
REMARK                         _______ _______ _______ _____ _____    ______ ____
ROOT
ATOM      3  C   UNL     1      43.937  20.782  19.165  0.00  0.00    +0.121 A 
ATOM      4  C   UNL     1      44.353  19.617  18.533  0.00  0.00    -0.038 A 
ATOM      5  C   UNL     1      45.695  19.322  18.440  0.00  0.00    +0.050 A 
ATOM      6  C   UNL     1      46.644  20.198  18.985  0.00  0.00    -0.091 A 
ATOM     11  C   UNL     1      46.222  21.370  19.625  0.00  0.00    -0.003 A 
ATOM     12  C   UNL     1      44.875  21.660  19.708  0.00  0.00    +0.095 A 
ENDROOT
BRANCH   3   2
ATOM      1  C   UNL     1      41.726  20.298  18.437  0.00  0.00    +0.243 C 
ATOM      2  O   UNL     1      42.612  21.068  19.254  0.00  0.00    -0.302 OA
ENDBRANCH   3   2
BRANCH   6   7
ATOM      7  C   UNL     1      48.075  19.886  18.888  0.00  0.00    +0.131 C 
ATOM      8  C   UNL     1      48.996  20.854  19.112  0.00  0.00    -0.130 C 
BRANCH   8   9
ATOM      9  C   UNL     1      50.369  20.554  19.018  0.00  0.00    +0.456 C 
ATOM     10  O   UNL     1      51.088  21.220  18.301  0.00  0.00    -0.468 OA
ENDBRANCH   8   9
ENDBRANCH   6   7
BRANCH  12  13
ATOM     13  O   UNL     1      44.461  22.799  20.326  0.00  0.00    -0.305 OA
ATOM     14  C   UNL     1      44.720  22.908  21.727  0.00  0.00    +0.240 C 
ENDBRANCH  12  13
TORSDOF 4
ENDMDL
MODEL 5
REMARK VINA RESULT:      -4.1      1.747      5.363
REMARK  Name = ZINC06018566
REMARK  6 active torsions:
REMARK  status: ('A' for Active; 'I' for Inactive)
REMARK    1  A    between atoms: C1_1  and  O1_2
REMARK    2  A    between atoms: O1_2  and  C2_3
REMARK    3  A    between atoms: C5_6  and  C9_11
REMARK    4  A    between atoms: C7_8  and  O2_9
REMARK    5  A    between atoms: O2_9  and  C8_10
REMARK    6  A    between atoms: C10_12  and  C11_13
REMARK                            x       y       z     vdW  Elec       q    Type
REMARK                         _______ _______ _______ _____ _____    ______ ____
ROOT
ATOM      3  C   UNL     1      41.826  20.505  19.533  0.00  0.00    +0.121 A 
ATOM      4  C   UNL     1      40.948  19.628  20.157  0.00  0.00    -0.038 A 
ATOM      5  C   UNL     1      41.429  18.651  21.000  0.00  0.00    +0.050 A 
ATOM      6  C   UNL     1      42.807  18.542  21.231  0.00  0.00    -0.091 A 
ATOM     11  C   UNL     1      43.689  19.430  20.605  0.00  0.00    -0.003 A 
ATOM     12  C   UNL     1      43.199  20.402  19.756  0.00  0.00    +0.095 A 
ENDROOT
BRANCH   3   2
ATOM      1  C   UNL     1      39.953  21.414  18.386  0.00  0.00    +0.243 C 
ATOM      2  O   UNL     1      41.346  21.467  18.702  0.00  0.00    -0.302 OA
ENDBRANCH   3   2
BRANCH   6   7
ATOM      7  C   UNL     1      43.322  17.502  22.130  0.00  0.00    +0.131 C 
ATOM      8  C   UNL     1      44.120  16.520  21.643  0.00  0.00    -0.130 C 
BRANCH   8   9
ATOM      9  C   UNL     1      44.614  15.522  22.505  0.00  0.00    +0.456 C 
ATOM     10  O   UNL     1      44.833  14.406  22.080  0.00  0.00    -0.468 OA
ENDBRANCH   8   9
ENDBRANCH   6   7
BRANCH  12  13
ATOM     13  O   UNL     1      44.054  21.264  19.143  0.00  0.00    -0.305 OA
ATOM     14  C   UNL     1      45.118  21.796  19.935  0.00  0.00    +0.240 C 
ENDBRANCH  12  13
TORSDOF 4
ENDMDL
MODEL 6
REMARK VINA RESULT:      -4.0      3.595      6.843
REMARK  Name = ZINC06018566
REMARK  6 active torsions:
REMARK  status: ('A' for Active; 'I' for Inactive)
REMARK    1  A    between atoms: C1_1  and  O1_2
REMARK    2  A    between atoms: O1_2  and  C2_3
REMARK    3  A    between atoms: C5_6  and  C9_11
REMARK    4  A    between atoms: C7_8  and  O2_9
REMARK    5  A    between atoms: O2_9  and  C8_10
REMARK    6  A    between atoms: C10_12  and  C11_13
REMARK                            x       y       z     vdW  Elec       q    Type
REMARK                         _______ _______ _______ _____ _____    ______ ____
ROOT
ATOM      3  C   UNL     1      45.202  19.857  18.533  0.00  0.00    +0.121 A 
ATOM      4  C   UNL     1      45.636  21.123  18.906  0.00  0.00    -0.038 A 
ATOM      5  C   UNL     1      46.963  21.340  19.203  0.00  0.00    +0.050 A 
ATOM      6  C   UNL     1      47.878  20.282  19.128  0.00  0.00    -0.091 A 
ATOM     11  C   UNL     1      47.440  19.008  18.748  0.00  0.00    -0.003 A 
ATOM     12  C   UNL     1      46.107  18.799  18.457  0.00  0.00    +0.095 A 
ENDROOT
BRANCH   3   2
ATOM      1  C   UNL     1      42.930  20.222  19.130  0.00  0.00    +0.243 C 
ATOM      2  O   UNL     1      43.892  19.649  18.241  0.00  0.00    -0.302 OA
ENDBRANCH   3   2
BRANCH   6   7
ATOM      7  C   UNL     1      49.294  20.511  19.444  0.00  0.00    +0.131 C 
ATOM      8  C   UNL     1      50.139  20.957  18.483  0.00  0.00    -0.130 C 
BRANCH   8   9
ATOM      9  C   UNL     1      51.497  21.175  18.786  0.00  0.00    +0.456 C 
ATOM     10  O   UNL     1      52.360  20.736  18.054  0.00  0.00    -0.468 OA
ENDBRANCH   8   9
ENDBRANCH   6   7
BRANCH  12  13
ATOM     13  O   UNL     1      45.677  17.561  18.092  0.00  0.00    -0.305 OA
ATOM     14  C   UNL     1      46.478  16.849  17.147  0.00  0.00    +0.240 C 
ENDBRANCH  12  13
TORSDOF 4
ENDMDL
MODEL 7
REMARK VINA RESULT:      -4.0      2.955      6.027
REMARK  Name = ZINC06018566
REMARK  6 active torsions:
REMARK  status: ('A' for Active; 'I' for Inactive)
REMARK    1  A    between atoms: C1_1  and  O1_2
REMARK    2  A    between atoms: O1_2  and  C2_3
REMARK    3  A    between atoms: C5_6  and  C9_11
REMARK    4  A    between atoms: C7_8  and  O2_9
REMARK    5  A    between atoms: O2_9  and  C8_10
REMARK    6  A    between atoms: C10_12  and  C11_13
REMARK                            x       y       z     vdW  Elec       q    Type
REMARK                         _______ _______ _______ _____ _____    ______ ____
ROOT
ATOM      3  C   UNL     1      44.623  21.824  19.457  0.00  0.00    +0.121 A 
ATOM      4  C   UNL     1      45.987  21.606  19.311  0.00  0.00    -0.038 A 
ATOM      5  C   UNL     1      46.447  20.406  18.816  0.00  0.00    +0.050 A 
ATOM      6  C   UNL     1      45.538  19.402  18.459  0.00  0.00    -0.091 A 
ATOM     11  C   UNL     1      44.164  19.625  18.603  0.00  0.00    -0.003 A 
ATOM     12  C   UNL     1      43.712  20.828  19.105  0.00  0.00    +0.095 A 
ENDROOT
BRANCH   3   2
ATOM      1  C   UNL     1      44.488  24.182  19.190  0.00  0.00    +0.243 C 
ATOM      2  O   UNL     1      44.175  23.009  19.946  0.00  0.00    -0.302 OA
ENDBRANCH   3   2
BRANCH   6   7
ATOM      7  C   UNL     1      46.027  18.122  17.931  0.00  0.00    +0.131 C 
ATOM      8  C   UNL     1      45.814  16.977  18.625  0.00  0.00    -0.130 C 
BRANCH   8   9
ATOM      9  C   UNL     1      46.282  15.749  18.119  0.00  0.00    +0.456 C 
ATOM     10  O   UNL     1      46.608  15.658  16.953  0.00  0.00    -0.468 OA
ENDBRANCH   8   9
ENDBRANCH   6   7
BRANCH  12  13
ATOM     13  O   UNL     1      42.377  21.046  19.250  0.00  0.00    -0.305 OA
ATOM     14  C   UNL     1      41.502  20.302  18.400  0.00  0.00    +0.240 C 
ENDBRANCH  12  13
TORSDOF 4
ENDMDL
MODEL 8
REMARK VINA RESULT:      -3.9     22.330     23.807
REMARK  Name = ZINC06018566
REMARK  6 active torsions:
REMARK  status: ('A' for Active; 'I' for Inactive)
REMARK    1  A    between atoms: C1_1  and  O1_2
REMARK    2  A    between atoms: O1_2  and  C2_3
REMARK    3  A    between atoms: C5_6  and  C9_11
REMARK    4  A    between atoms: C7_8  and  O2_9
REMARK    5  A    between atoms: O2_9  and  C8_10
REMARK    6  A    between atoms: C10_12  and  C11_13
REMARK                            x       y       z     vdW  Elec       q    Type
REMARK                         _______ _______ _______ _____ _____    ______ ____
ROOT
ATOM      3  C   UNL     1      42.556  30.600   0.052  0.00  0.00    +0.121 A 
ATOM      4  C   UNL     1      42.576  30.394   1.426  0.00  0.00    -0.038 A 
ATOM      5  C   UNL     1      42.992  31.399   2.270  0.00  0.00    +0.050 A 
ATOM      6  C   UNL     1      43.396  32.633   1.744  0.00  0.00    -0.091 A 
ATOM     11  C   UNL     1      43.371  32.840   0.359  0.00  0.00    -0.003 A 
ATOM     12  C   UNL     1      42.957  31.825  -0.480  0.00  0.00    +0.095 A 
ENDROOT
BRANCH   3   2
ATOM      1  C   UNL     1      43.145  28.706  -1.258  0.00  0.00    +0.243 C 
ATOM      2  O   UNL     1      42.144  29.605  -0.775  0.00  0.00    -0.302 OA
ENDBRANCH   3   2
BRANCH   6   7
ATOM      7  C   UNL     1      43.840  33.706   2.642  0.00  0.00    +0.131 C 
ATOM      8  C   UNL     1      45.133  34.113   2.624  0.00  0.00    -0.130 C 
BRANCH   8   9
ATOM      9  C   UNL     1      45.559  35.142   3.486  0.00  0.00    +0.456 C 
ATOM     10  O   UNL     1      46.621  35.047   4.066  0.00  0.00    -0.468 OA
ENDBRANCH   8   9
ENDBRANCH   6   7
BRANCH  12  13
ATOM     13  O   UNL     1      42.936  32.021  -1.825  0.00  0.00    -0.305 OA
ATOM     14  C   UNL     1      44.198  32.069  -2.494  0.00  0.00    +0.240 C 
ENDBRANCH  12  13
TORSDOF 4
ENDMDL
MODEL 9
REMARK VINA RESULT:      -3.9      4.886      6.889
REMARK  Name = ZINC06018566
REMARK  6 active torsions:
REMARK  status: ('A' for Active; 'I' for Inactive)
REMARK    1  A    between atoms: C1_1  and  O1_2
REMARK    2  A    between atoms: O1_2  and  C2_3
REMARK    3  A    between atoms: C5_6  and  C9_11
REMARK    4  A    between atoms: C7_8  and  O2_9
REMARK    5  A    between atoms: O2_9  and  C8_10
REMARK    6  A    between atoms: C10_12  and  C11_13
REMARK                            x       y       z     vdW  Elec       q    Type
REMARK                         _______ _______ _______ _____ _____    ______ ____
ROOT
ATOM      3  C   UNL     1      50.624  19.195  17.914  0.00  0.00    +0.121 A 
ATOM      4  C   UNL     1      49.547  18.316  17.920  0.00  0.00    -0.038 A 
ATOM      5  C   UNL     1      48.347  18.696  18.477  0.00  0.00    +0.050 A 
ATOM      6  C   UNL     1      48.209  19.972  19.039  0.00  0.00    -0.091 A 
ATOM     11  C   UNL     1      49.294  20.858  19.028  0.00  0.00    -0.003 A 
ATOM     12  C   UNL     1      50.495  20.466  18.472  0.00  0.00    +0.095 A 
ENDROOT
BRANCH   3   2
ATOM      1  C   UNL     1      51.913  18.896  15.939  0.00  0.00    +0.243 C 
ATOM      2  O   UNL     1      51.805  18.814  17.362  0.00  0.00    -0.302 OA
ENDBRANCH   3   2
BRANCH   6   7
ATOM      7  C   UNL     1      46.930  20.380  19.634  0.00  0.00    +0.131 C 
ATOM      8  C   UNL     1      46.059  21.131  18.917  0.00  0.00    -0.130 C 
BRANCH   8   9
ATOM      9  C   UNL     1      44.832  21.523  19.488  0.00  0.00    +0.456 C 
ATOM     10  O   UNL     1      44.490  22.687  19.450  0.00  0.00    -0.468 OA
ENDBRANCH   8   9
ENDBRANCH   6   7
BRANCH  12  13
ATOM     13  O   UNL     1      51.552  21.322  18.463  0.00  0.00    -0.305 OA
ATOM     14  C   UNL     1      52.306  21.434  19.672  0.00  0.00    +0.240 C 
ENDBRANCH  12  13
TORSDOF 4
ENDMDL
