MODEL 1
REMARK VINA RESULT:      -6.1      0.000      0.000
REMARK  Name = ZINC03830747
REMARK  12 active torsions:
REMARK  status: ('A' for Active; 'I' for Inactive)
REMARK    1  A    between atoms: C1_1  and  C2_2
REMARK    2  A    between atoms: C2_2  and  C3_3
REMARK    3  A    between atoms: C9_11  and  O4_38
REMARK    4  A    between atoms: C10_12  and  O3_36
REMARK    5  A    between atoms: C15_18  and  C16_20
REMARK    6  A    between atoms: C16_20  and  C17_21
REMARK    7  A    between atoms: C20_25  and  O2_34
REMARK    8  A    between atoms: C21_26  and  O1_32
REMARK    9  A    between atoms: O1_32  and  C26_33
REMARK   10  A    between atoms: O2_34  and  C27_35
REMARK   11  A    between atoms: O3_36  and  C28_37
REMARK   12  A    between atoms: O4_38  and  C29_39
REMARK                            x       y       z     vdW  Elec       q    Type
REMARK                         _______ _______ _______ _____ _____    ______ ____
ROOT
ATOM      3  C   UNL     1      50.832  17.512  17.077  0.00  0.00    +0.003 C 
ATOM      4  C   UNL     1      51.483  16.141  16.873  0.00  0.00    +0.268 C 
ATOM      5  N   UNL     1      50.454  15.167  16.487  0.00  0.00    -0.380 N 
ATOM      6  H   UNL     1      49.978  15.494  15.660  0.00  0.00    +0.425 HD
ATOM      7  C   UNL     1      51.075  13.867  16.204  0.00  0.00    +0.273 C 
ATOM      8  C   UNL     1      50.044  12.975  15.510  0.00  0.00    +0.128 C 
ATOM      9  C   UNL     1      48.758  12.968  16.297  0.00  0.00    -0.075 A 
ATOM     10  C   UNL     1      47.828  11.973  16.039  0.00  0.00    -0.016 A 
ATOM     11  C   UNL     1      46.634  11.932  16.737  0.00  0.00    +0.141 A 
ATOM     14  C   UNL     1      46.369  12.898  17.703  0.00  0.00    +0.118 A 
ATOM     17  C   UNL     1      47.301  13.889  17.958  0.00  0.00    -0.019 A 
ATOM     18  C   UNL     1      48.497  13.923  17.258  0.00  0.00    -0.139 A 
ATOM     19  C   UNL     1      49.485  15.012  17.575  0.00  0.00    +0.234 C 
ATOM     20  C   UNL     1      48.752  16.335  17.802  0.00  0.00    +0.067 C 
ATOM     21  C   UNL     1      49.773  17.414  18.177  0.00  0.00    -0.024 C 
ENDROOT
BRANCH   3   2
ATOM      1  C   UNL     1      52.170  19.483  16.322  0.00  0.00    +0.028 C 
ATOM      2  C   UNL     1      51.901  18.527  17.487  0.00  0.00    +0.039 C 
ENDBRANCH   3   2
BRANCH  11  12
ATOM     12  O   UNL     1      45.725  10.955  16.480  0.00  0.00    -0.293 OA
ATOM     13  C   UNL     1      45.552  10.573  15.114  0.00  0.00    +0.260 C 
ENDBRANCH  11  12
BRANCH  14  15
ATOM     15  O   UNL     1      45.197  12.869  18.394  0.00  0.00    -0.292 OA
ATOM     16  C   UNL     1      45.209  13.414  19.715  0.00  0.00    +0.246 C 
ENDBRANCH  14  15
BRANCH  21  22
ATOM     22  C   UNL     1      49.063  18.761  18.324  0.00  0.00    +0.085 C 
BRANCH  22  23
ATOM     23  C   UNL     1      48.886  19.085  19.809  0.00  0.00    +0.233 C 
ATOM     24  C   UNL     1      47.729  20.035  19.975  0.00  0.00    -0.140 A 
ATOM     25  C   UNL     1      46.587  19.827  19.215  0.00  0.00    -0.014 A 
ATOM     26  C   UNL     1      45.499  20.671  19.339  0.00  0.00    +0.119 A 
ATOM     29  C   UNL     1      45.552  21.738  20.231  0.00  0.00    +0.142 A 
ATOM     32  C   UNL     1      46.692  21.944  20.987  0.00  0.00    -0.018 A 
ATOM     33  C   UNL     1      47.780  21.093  20.859  0.00  0.00    -0.077 A 
ATOM     34  C   UNL     1      49.005  21.358  21.696  0.00  0.00    +0.128 C 
ATOM     35  C   UNL     1      49.902  20.119  21.710  0.00  0.00    +0.277 C 
ATOM     36  N   UNL     1      50.122  19.685  20.323  0.00  0.00    -0.506 N 
ATOM     37  H   UNL     1      50.373  20.480  19.754  0.00  0.00    +0.432 HD
ATOM     38  H   UNL     1      50.863  19.002  20.297  0.00  0.00    +0.425 HD
BRANCH  26  27
ATOM     27  O   UNL     1      44.384  20.462  18.590  0.00  0.00    -0.292 OA
ATOM     28  C   UNL     1      43.328  19.713  19.195  0.00  0.00    +0.249 C 
ENDBRANCH  26  27
BRANCH  29  30
ATOM     30  O   UNL     1      44.487  22.574  20.361  0.00  0.00    -0.293 OA
ATOM     31  C   UNL     1      44.518  23.787  19.604  0.00  0.00    +0.260 C 
ENDBRANCH  29  30
ENDBRANCH  22  23
ENDBRANCH  21  22
TORSDOF 7
ENDMDL
MODEL 2
REMARK VINA RESULT:      -6.1      3.170      5.537
REMARK  Name = ZINC03830747
REMARK  12 active torsions:
REMARK  status: ('A' for Active; 'I' for Inactive)
REMARK    1  A    between atoms: C1_1  and  C2_2
REMARK    2  A    between atoms: C2_2  and  C3_3
REMARK    3  A    between atoms: C9_11  and  O4_38
REMARK    4  A    between atoms: C10_12  and  O3_36
REMARK    5  A    between atoms: C15_18  and  C16_20
REMARK    6  A    between atoms: C16_20  and  C17_21
REMARK    7  A    between atoms: C20_25  and  O2_34
REMARK    8  A    between atoms: C21_26  and  O1_32
REMARK    9  A    between atoms: O1_32  and  C26_33
REMARK   10  A    between atoms: O2_34  and  C27_35
REMARK   11  A    between atoms: O3_36  and  C28_37
REMARK   12  A    between atoms: O4_38  and  C29_39
REMARK                            x       y       z     vdW  Elec       q    Type
REMARK                         _______ _______ _______ _____ _____    ______ ____
ROOT
ATOM      3  C   UNL     1      46.167  14.400  19.258  0.00  0.00    +0.003 C 
ATOM      4  C   UNL     1      45.516  13.251  18.482  0.00  0.00    +0.268 C 
ATOM      5  N   UNL     1      46.552  12.506  17.756  0.00  0.00    -0.380 N 
ATOM      6  H   UNL     1      47.250  12.182  18.408  0.00  0.00    +0.425 HD
ATOM      7  C   UNL     1      45.955  11.349  17.076  0.00  0.00    +0.273 C 
ATOM      8  C   UNL     1      47.080  10.429  16.601  0.00  0.00    +0.128 C 
ATOM      9  C   UNL     1      48.106  11.225  15.835  0.00  0.00    -0.075 A 
ATOM     10  C   UNL     1      49.012  10.544  15.036  0.00  0.00    -0.016 A 
ATOM     11  C   UNL     1      49.972  11.237  14.319  0.00  0.00    +0.141 A 
ATOM     14  C   UNL     1      50.025  12.625  14.404  0.00  0.00    +0.118 A 
ATOM     17  C   UNL     1      49.118  13.300  15.201  0.00  0.00    -0.019 A 
ATOM     18  C   UNL     1      48.157  12.601  15.915  0.00  0.00    -0.139 A 
ATOM     19  C   UNL     1      47.184  13.376  16.761  0.00  0.00    +0.234 C 
ATOM     20  C   UNL     1      47.905  14.525  17.470  0.00  0.00    +0.067 C 
ATOM     21  C   UNL     1      46.886  15.331  18.280  0.00  0.00    -0.024 C 
ENDROOT
BRANCH   3   2
ATOM      1  C   UNL     1      45.353  15.101  21.514  0.00  0.00    +0.028 C 
ATOM      2  C   UNL     1      45.087  15.182  20.009  0.00  0.00    +0.039 C 
ENDBRANCH   3   2
BRANCH  11  12
ATOM     12  O   UNL     1      50.858  10.565  13.538  0.00  0.00    -0.293 OA
ATOM     13  C   UNL     1      52.137  10.277  14.107  0.00  0.00    +0.260 C 
ENDBRANCH  11  12
BRANCH  14  15
ATOM     15  O   UNL     1      50.965  13.316  13.705  0.00  0.00    -0.292 OA
ATOM     16  C   UNL     1      51.999  13.950  14.460  0.00  0.00    +0.246 C 
ENDBRANCH  14  15
BRANCH  21  22
ATOM     22  C   UNL     1      47.608  16.432  19.060  0.00  0.00    +0.085 C 
BRANCH  22  23
ATOM     23  C   UNL     1      47.286  17.792  18.439  0.00  0.00    +0.233 C 
ATOM     24  C   UNL     1      48.513  18.665  18.492  0.00  0.00    -0.140 A 
ATOM     25  C   UNL     1      49.744  18.093  18.204  0.00  0.00    -0.014 A 
ATOM     26  C   UNL     1      50.896  18.857  18.236  0.00  0.00    +0.119 A 
ATOM     29  C   UNL     1      50.819  20.209  18.561  0.00  0.00    +0.142 A 
ATOM     32  C   UNL     1      49.590  20.775  18.848  0.00  0.00    -0.018 A 
ATOM     33  C   UNL     1      48.438  20.004  18.814  0.00  0.00    -0.077 A 
ATOM     34  C   UNL     1      47.121  20.660  19.141  0.00  0.00    +0.128 C 
ATOM     35  C   UNL     1      45.968  19.774  18.666  0.00  0.00    +0.277 C 
ATOM     36  N   UNL     1      46.182  18.412  19.178  0.00  0.00    -0.506 N 
ATOM     37  H   UNL     1      46.413  18.452  20.159  0.00  0.00    +0.432 HD
ATOM     38  H   UNL     1      45.343  17.868  19.049  0.00  0.00    +0.425 HD
BRANCH  26  27
ATOM     27  O   UNL     1      52.100  18.291  17.954  0.00  0.00    -0.292 OA
ATOM     28  C   UNL     1      52.530  17.224  18.802  0.00  0.00    +0.249 C 
ENDBRANCH  26  27
BRANCH  29  30
ATOM     30  O   UNL     1      51.946  20.969  18.595  0.00  0.00    -0.293 OA
ATOM     31  C   UNL     1      52.492  21.263  19.882  0.00  0.00    +0.260 C 
ENDBRANCH  29  30
ENDBRANCH  22  23
ENDBRANCH  21  22
TORSDOF 7
ENDMDL
MODEL 3
REMARK VINA RESULT:      -6.1      2.682      4.459
REMARK  Name = ZINC03830747
REMARK  12 active torsions:
REMARK  status: ('A' for Active; 'I' for Inactive)
REMARK    1  A    between atoms: C1_1  and  C2_2
REMARK    2  A    between atoms: C2_2  and  C3_3
REMARK    3  A    between atoms: C9_11  and  O4_38
REMARK    4  A    between atoms: C10_12  and  O3_36
REMARK    5  A    between atoms: C15_18  and  C16_20
REMARK    6  A    between atoms: C16_20  and  C17_21
REMARK    7  A    between atoms: C20_25  and  O2_34
REMARK    8  A    between atoms: C21_26  and  O1_32
REMARK    9  A    between atoms: O1_32  and  C26_33
REMARK   10  A    between atoms: O2_34  and  C27_35
REMARK   11  A    between atoms: O3_36  and  C28_37
REMARK   12  A    between atoms: O4_38  and  C29_39
REMARK                            x       y       z     vdW  Elec       q    Type
REMARK                         _______ _______ _______ _____ _____    ______ ____
ROOT
ATOM      3  C   UNL     1      46.718  15.012  18.843  0.00  0.00    +0.003 C 
ATOM      4  C   UNL     1      46.863  13.503  19.060  0.00  0.00    +0.268 C 
ATOM      5  N   UNL     1      48.148  13.054  18.510  0.00  0.00    -0.380 N 
ATOM      6  H   UNL     1      48.896  13.577  18.939  0.00  0.00    +0.425 HD
ATOM      7  C   UNL     1      48.340  11.625  18.787  0.00  0.00    +0.273 C 
ATOM      8  C   UNL     1      49.796  11.262  18.491  0.00  0.00    +0.128 C 
ATOM      9  C   UNL     1      50.181  11.757  17.119  0.00  0.00    -0.075 A 
ATOM     10  C   UNL     1      51.324  11.243  16.526  0.00  0.00    -0.016 A 
ATOM     11  C   UNL     1      51.713  11.674  15.270  0.00  0.00    +0.141 A 
ATOM     14  C   UNL     1      50.951  12.628  14.602  0.00  0.00    +0.118 A 
ATOM     17  C   UNL     1      49.811  13.136  15.198  0.00  0.00    -0.019 A 
ATOM     18  C   UNL     1      49.424  12.700  16.456  0.00  0.00    -0.139 A 
ATOM     19  C   UNL     1      48.171  13.272  17.061  0.00  0.00    +0.234 C 
ATOM     20  C   UNL     1      48.085  14.771  16.767  0.00  0.00    +0.067 C 
ATOM     21  C   UNL     1      46.776  15.319  17.345  0.00  0.00    -0.024 C 
ENDROOT
BRANCH   3   2
ATOM      1  C   UNL     1      45.404  15.385  20.936  0.00  0.00    +0.028 C 
ATOM      2  C   UNL     1      45.375  15.481  19.409  0.00  0.00    +0.039 C 
ENDBRANCH   3   2
BRANCH  11  12
ATOM     12  O   UNL     1      52.835  11.167  14.692  0.00  0.00    -0.293 OA
ATOM     13  C   UNL     1      53.626  10.277  15.481  0.00  0.00    +0.260 C 
ENDBRANCH  11  12
BRANCH  14  15
ATOM     15  O   UNL     1      51.326  13.059  13.367  0.00  0.00    -0.292 OA
ATOM     16  C   UNL     1      50.326  13.054  12.347  0.00  0.00    +0.246 C 
ENDBRANCH  14  15
BRANCH  21  22
ATOM     22  C   UNL     1      46.717  16.833  17.132  0.00  0.00    +0.085 C 
BRANCH  22  23
ATOM     23  C   UNL     1      47.383  17.541  18.314  0.00  0.00    +0.233 C 
ATOM     24  C   UNL     1      46.663  18.836  18.586  0.00  0.00    -0.140 A 
ATOM     25  C   UNL     1      45.277  18.850  18.516  0.00  0.00    -0.014 A 
ATOM     26  C   UNL     1      44.575  20.016  18.763  0.00  0.00    +0.119 A 
ATOM     29  C   UNL     1      45.265  21.182  19.082  0.00  0.00    +0.142 A 
ATOM     32  C   UNL     1      46.647  21.164  19.150  0.00  0.00    -0.018 A 
ATOM     33  C   UNL     1      47.345  19.993  18.902  0.00  0.00    -0.077 A 
ATOM     34  C   UNL     1      48.850  20.020  18.980  0.00  0.00    +0.128 C 
ATOM     35  C   UNL     1      49.391  18.592  19.074  0.00  0.00    +0.277 C 
ATOM     36  N   UNL     1      48.792  17.792  17.996  0.00  0.00    -0.506 N 
ATOM     37  H   UNL     1      48.856  18.297  17.125  0.00  0.00    +0.432 HD
ATOM     38  H   UNL     1      49.281  16.914  17.916  0.00  0.00    +0.425 HD
BRANCH  26  27
ATOM     27  O   UNL     1      43.217  20.024  18.691  0.00  0.00    -0.292 OA
ATOM     28  C   UNL     1      42.505  19.536  19.830  0.00  0.00    +0.249 C 
ENDBRANCH  26  27
BRANCH  29  30
ATOM     30  O   UNL     1      44.584  22.334  19.327  0.00  0.00    -0.293 OA
ATOM     31  C   UNL     1      44.675  22.873  20.647  0.00  0.00    +0.260 C 
ENDBRANCH  29  30
ENDBRANCH  22  23
ENDBRANCH  21  22
TORSDOF 7
ENDMDL
MODEL 4
REMARK VINA RESULT:      -5.9      2.114      3.055
REMARK  Name = ZINC03830747
REMARK  12 active torsions:
REMARK  status: ('A' for Active; 'I' for Inactive)
REMARK    1  A    between atoms: C1_1  and  C2_2
REMARK    2  A    between atoms: C2_2  and  C3_3
REMARK    3  A    between atoms: C9_11  and  O4_38
REMARK    4  A    between atoms: C10_12  and  O3_36
REMARK    5  A    between atoms: C15_18  and  C16_20
REMARK    6  A    between atoms: C16_20  and  C17_21
REMARK    7  A    between atoms: C20_25  and  O2_34
REMARK    8  A    between atoms: C21_26  and  O1_32
REMARK    9  A    between atoms: O1_32  and  C26_33
REMARK   10  A    between atoms: O2_34  and  C27_35
REMARK   11  A    between atoms: O3_36  and  C28_37
REMARK   12  A    between atoms: O4_38  and  C29_39
REMARK                            x       y       z     vdW  Elec       q    Type
REMARK                         _______ _______ _______ _____ _____    ______ ____
ROOT
ATOM      3  C   UNL     1      50.215  19.680  18.871  0.00  0.00    +0.003 C 
ATOM      4  C   UNL     1      51.281  18.585  18.781  0.00  0.00    +0.268 C 
ATOM      5  N   UNL     1      50.791  17.498  17.925  0.00  0.00    -0.380 N 
ATOM      6  H   UNL     1      50.546  17.870  17.020  0.00  0.00    +0.425 HD
ATOM      7  C   UNL     1      51.835  16.479  17.760  0.00  0.00    +0.273 C 
ATOM      8  C   UNL     1      51.422  15.536  16.628  0.00  0.00    +0.128 C 
ATOM      9  C   UNL     1      50.012  15.048  16.855  0.00  0.00    -0.075 A 
ATOM     10  C   UNL     1      49.574  13.938  16.150  0.00  0.00    -0.016 A 
ATOM     11  C   UNL     1      48.287  13.461  16.326  0.00  0.00    +0.141 A 
ATOM     14  C   UNL     1      47.431  14.103  17.217  0.00  0.00    +0.118 A 
ATOM     17  C   UNL     1      47.874  15.210  17.918  0.00  0.00    -0.019 A 
ATOM     18  C   UNL     1      49.165  15.682  17.740  0.00  0.00    -0.139 A 
ATOM     19  C   UNL     1      49.608  16.882  18.532  0.00  0.00    +0.234 C 
ATOM     20  C   UNL     1      48.476  17.908  18.605  0.00  0.00    +0.067 C 
ATOM     21  C   UNL     1      48.931  19.094  19.461  0.00  0.00    -0.024 C 
ENDROOT
BRANCH   3   2
ATOM      1  C   UNL     1      52.016  21.384  19.189  0.00  0.00    +0.028 C 
ATOM      2  C   UNL     1      50.721  20.811  19.770  0.00  0.00    +0.039 C 
ENDBRANCH   3   2
BRANCH  11  12
ATOM     12  O   UNL     1      47.861  12.373  15.633  0.00  0.00    -0.293 OA
ATOM     13  C   UNL     1      47.986  12.419  14.210  0.00  0.00    +0.260 C 
ENDBRANCH  11  12
BRANCH  14  15
ATOM     15  O   UNL     1      46.163  13.644  17.396  0.00  0.00    -0.292 OA
ATOM     16  C   UNL     1      45.907  12.893  18.584  0.00  0.00    +0.246 C 
ENDBRANCH  14  15
BRANCH  21  22
ATOM     22  C   UNL     1      47.839  20.166  19.472  0.00  0.00    +0.085 C 
BRANCH  22  23
ATOM     23  C   UNL     1      47.454  20.487  20.918  0.00  0.00    +0.233 C 
ATOM     24  C   UNL     1      46.068  19.967  21.190  0.00  0.00    -0.140 A 
ATOM     25  C   UNL     1      45.717  18.723  20.685  0.00  0.00    -0.014 A 
ATOM     26  C   UNL     1      44.455  18.204  20.914  0.00  0.00    +0.119 A 
ATOM     29  C   UNL     1      43.533  18.936  21.656  0.00  0.00    +0.142 A 
ATOM     32  C   UNL     1      43.885  20.176  22.157  0.00  0.00    -0.018 A 
ATOM     33  C   UNL     1      45.151  20.691  21.924  0.00  0.00    -0.077 A 
ATOM     34  C   UNL     1      45.491  22.050  22.482  0.00  0.00    +0.128 C 
ATOM     35  C   UNL     1      47.007  22.253  22.466  0.00  0.00    +0.277 C 
ATOM     36  N   UNL     1      47.508  21.939  21.120  0.00  0.00    -0.506 N 
ATOM     37  H   UNL     1      46.934  22.397  20.430  0.00  0.00    +0.432 HD
ATOM     38  H   UNL     1      48.461  22.256  21.033  0.00  0.00    +0.425 HD
BRANCH  26  27
ATOM     27  O   UNL     1      44.118  16.984  20.416  0.00  0.00    -0.292 OA
ATOM     28  C   UNL     1      45.187  16.077  20.143  0.00  0.00    +0.249 C 
ENDBRANCH  26  27
BRANCH  29  30
ATOM     30  O   UNL     1      42.290  18.434  21.887  0.00  0.00    -0.293 OA
ATOM     31  C   UNL     1      41.228  18.926  21.066  0.00  0.00    +0.260 C 
ENDBRANCH  29  30
ENDBRANCH  22  23
ENDBRANCH  21  22
TORSDOF 7
ENDMDL
MODEL 5
REMARK VINA RESULT:      -5.9      2.382      5.280
REMARK  Name = ZINC03830747
REMARK  12 active torsions:
REMARK  status: ('A' for Active; 'I' for Inactive)
REMARK    1  A    between atoms: C1_1  and  C2_2
REMARK    2  A    between atoms: C2_2  and  C3_3
REMARK    3  A    between atoms: C9_11  and  O4_38
REMARK    4  A    between atoms: C10_12  and  O3_36
REMARK    5  A    between atoms: C15_18  and  C16_20
REMARK    6  A    between atoms: C16_20  and  C17_21
REMARK    7  A    between atoms: C20_25  and  O2_34
REMARK    8  A    between atoms: C21_26  and  O1_32
REMARK    9  A    between atoms: O1_32  and  C26_33
REMARK   10  A    between atoms: O2_34  and  C27_35
REMARK   11  A    between atoms: O3_36  and  C28_37
REMARK   12  A    between atoms: O4_38  and  C29_39
REMARK                            x       y       z     vdW  Elec       q    Type
REMARK                         _______ _______ _______ _____ _____    ______ ____
ROOT
ATOM      3  C   UNL     1      47.630  21.183  21.328  0.00  0.00    +0.003 C 
ATOM      4  C   UNL     1      49.059  21.000  20.812  0.00  0.00    +0.268 C 
ATOM      5  N   UNL     1      49.070  19.977  19.759  0.00  0.00    -0.380 N 
ATOM      6  H   UNL     1      48.429  20.244  19.027  0.00  0.00    +0.425 HD
ATOM      7  C   UNL     1      50.419  19.851  19.195  0.00  0.00    +0.273 C 
ATOM      8  C   UNL     1      50.335  19.026  17.910  0.00  0.00    +0.128 C 
ATOM      9  C   UNL     1      49.574  17.749  18.167  0.00  0.00    -0.075 A 
ATOM     10  C   UNL     1      49.678  16.719  17.246  0.00  0.00    -0.016 A 
ATOM     11  C   UNL     1      48.993  15.533  17.444  0.00  0.00    +0.141 A 
ATOM     14  C   UNL     1      48.195  15.378  18.574  0.00  0.00    +0.118 A 
ATOM     17  C   UNL     1      48.096  16.410  19.490  0.00  0.00    -0.019 A 
ATOM     18  C   UNL     1      48.787  17.595  19.289  0.00  0.00    -0.139 A 
ATOM     19  C   UNL     1      48.658  18.686  20.317  0.00  0.00    +0.234 C 
ATOM     20  C   UNL     1      47.212  18.777  20.806  0.00  0.00    +0.067 C 
ATOM     21  C   UNL     1      47.117  19.855  21.890  0.00  0.00    -0.024 C 
ENDROOT
BRANCH   3   2
ATOM      1  C   UNL     1      46.971  23.524  21.900  0.00  0.00    +0.028 C 
ATOM      2  C   UNL     1      47.618  22.243  22.431  0.00  0.00    +0.039 C 
ENDBRANCH   3   2
BRANCH  11  12
ATOM     12  O   UNL     1      49.097  14.524  16.538  0.00  0.00    -0.293 OA
ATOM     13  C   UNL     1      50.359  13.860  16.449  0.00  0.00    +0.260 C 
ENDBRANCH  11  12
BRANCH  14  15
ATOM     15  O   UNL     1      47.516  14.217  18.777  0.00  0.00    -0.292 OA
ATOM     16  C   UNL     1      47.538  13.675  20.098  0.00  0.00    +0.246 C 
ENDBRANCH  14  15
BRANCH  21  22
ATOM     22  C   UNL     1      45.660  20.014  22.328  0.00  0.00    +0.085 C 
BRANCH  22  23
ATOM     23  C   UNL     1      44.785  19.023  21.558  0.00  0.00    +0.233 C 
ATOM     24  C   UNL     1      43.737  19.780  20.786  0.00  0.00    -0.140 A 
ATOM     25  C   UNL     1      44.107  20.955  20.146  0.00  0.00    -0.014 A 
ATOM     26  C   UNL     1      43.178  21.680  19.421  0.00  0.00    +0.119 A 
ATOM     29  C   UNL     1      41.864  21.229  19.337  0.00  0.00    +0.142 A 
ATOM     32  C   UNL     1      41.499  20.059  19.978  0.00  0.00    -0.018 A 
ATOM     33  C   UNL     1      42.434  19.336  20.702  0.00  0.00    -0.077 A 
ATOM     34  C   UNL     1      41.991  18.070  21.391  0.00  0.00    +0.128 C 
ATOM     35  C   UNL     1      43.213  17.235  21.778  0.00  0.00    +0.277 C 
ATOM     36  N   UNL     1      44.157  18.097  22.505  0.00  0.00    -0.506 N 
ATOM     37  H   UNL     1      43.662  18.621  23.211  0.00  0.00    +0.432 HD
ATOM     38  H   UNL     1      44.866  17.527  22.940  0.00  0.00    +0.425 HD
BRANCH  26  27
ATOM     27  O   UNL     1      43.547  22.830  18.797  0.00  0.00    -0.292 OA
ATOM     28  C   UNL     1      44.316  23.764  19.557  0.00  0.00    +0.249 C 
ENDBRANCH  26  27
BRANCH  29  30
ATOM     30  O   UNL     1      40.944  21.936  18.627  0.00  0.00    -0.293 OA
ATOM     31  C   UNL     1      39.663  21.328  18.440  0.00  0.00    +0.260 C 
ENDBRANCH  29  30
ENDBRANCH  22  23
ENDBRANCH  21  22
TORSDOF 7
ENDMDL
MODEL 6
REMARK VINA RESULT:      -5.8      3.228      6.020
REMARK  Name = ZINC03830747
REMARK  12 active torsions:
REMARK  status: ('A' for Active; 'I' for Inactive)
REMARK    1  A    between atoms: C1_1  and  C2_2
REMARK    2  A    between atoms: C2_2  and  C3_3
REMARK    3  A    between atoms: C9_11  and  O4_38
REMARK    4  A    between atoms: C10_12  and  O3_36
REMARK    5  A    between atoms: C15_18  and  C16_20
REMARK    6  A    between atoms: C16_20  and  C17_21
REMARK    7  A    between atoms: C20_25  and  O2_34
REMARK    8  A    between atoms: C21_26  and  O1_32
REMARK    9  A    between atoms: O1_32  and  C26_33
REMARK   10  A    between atoms: O2_34  and  C27_35
REMARK   11  A    between atoms: O3_36  and  C28_37
REMARK   12  A    between atoms: O4_38  and  C29_39
REMARK                            x       y       z     vdW  Elec       q    Type
REMARK                         _______ _______ _______ _____ _____    ______ ____
ROOT
ATOM      3  C   UNL     1      45.984  16.189  21.182  0.00  0.00    +0.003 C 
ATOM      4  C   UNL     1      46.242  15.601  19.792  0.00  0.00    +0.268 C 
ATOM      5  N   UNL     1      47.558  16.042  19.314  0.00  0.00    -0.380 N 
ATOM      6  H   UNL     1      48.264  15.773  19.982  0.00  0.00    +0.425 HD
ATOM      7  C   UNL     1      47.857  15.417  18.019  0.00  0.00    +0.273 C 
ATOM      8  C   UNL     1      49.337  15.637  17.702  0.00  0.00    +0.128 C 
ATOM      9  C   UNL     1      49.686  17.096  17.860  0.00  0.00    -0.075 A 
ATOM     10  C   UNL     1      50.865  17.560  17.299  0.00  0.00    -0.016 A 
ATOM     11  C   UNL     1      51.223  18.891  17.424  0.00  0.00    +0.141 A 
ATOM     14  C   UNL     1      50.393  19.765  18.120  0.00  0.00    +0.118 A 
ATOM     17  C   UNL     1      49.216  19.296  18.677  0.00  0.00    -0.019 A 
ATOM     18  C   UNL     1      48.861  17.962  18.546  0.00  0.00    -0.139 A 
ATOM     19  C   UNL     1      47.567  17.499  19.159  0.00  0.00    +0.234 C 
ATOM     20  C   UNL     1      47.369  18.160  20.525  0.00  0.00    +0.067 C 
ATOM     21  C   UNL     1      46.022  17.717  21.104  0.00  0.00    -0.024 C 
ENDROOT
BRANCH   3   2
ATOM      1  C   UNL     1      44.674  14.264  22.089  0.00  0.00    +0.028 C 
ATOM      2  C   UNL     1      44.609  15.737  21.678  0.00  0.00    +0.039 C 
ENDBRANCH   3   2
BRANCH  11  12
ATOM     12  O   UNL     1      52.381  19.342  16.872  0.00  0.00    -0.293 OA
ATOM     13  C   UNL     1      52.336  19.729  15.497  0.00  0.00    +0.260 C 
ENDBRANCH  11  12
BRANCH  14  15
ATOM     15  O   UNL     1      50.736  21.074  18.251  0.00  0.00    -0.292 OA
ATOM     16  C   UNL     1      51.721  21.391  19.235  0.00  0.00    +0.246 C 
ENDBRANCH  14  15
BRANCH  21  22
ATOM     22  C   UNL     1      45.849  18.304  22.505  0.00  0.00    +0.085 C 
BRANCH  22  23
ATOM     23  C   UNL     1      45.682  19.822  22.406  0.00  0.00    +0.233 C 
ATOM     24  C   UNL     1      44.645  20.140  21.361  0.00  0.00    -0.140 A 
ATOM     25  C   UNL     1      43.502  19.354  21.303  0.00  0.00    -0.014 A 
ATOM     26  C   UNL     1      42.521  19.613  20.362  0.00  0.00    +0.119 A 
ATOM     29  C   UNL     1      42.684  20.667  19.468  0.00  0.00    +0.142 A 
ATOM     32  C   UNL     1      43.824  21.447  19.528  0.00  0.00    -0.018 A 
ATOM     33  C   UNL     1      44.804  21.183  20.473  0.00  0.00    -0.077 A 
ATOM     34  C   UNL     1      46.035  22.054  20.499  0.00  0.00    +0.128 C 
ATOM     35  C   UNL     1      46.775  21.866  21.824  0.00  0.00    +0.277 C 
ATOM     36  N   UNL     1      46.970  20.427  22.053  0.00  0.00    -0.506 N 
ATOM     37  H   UNL     1      47.326  19.996  21.213  0.00  0.00    +0.432 HD
ATOM     38  H   UNL     1      47.624  20.292  22.808  0.00  0.00    +0.425 HD
BRANCH  26  27
ATOM     27  O   UNL     1      41.404  18.839  20.310  0.00  0.00    -0.292 OA
ATOM     28  C   UNL     1      40.579  18.811  21.476  0.00  0.00    +0.249 C 
ENDBRANCH  26  27
BRANCH  29  30
ATOM     30  O   UNL     1      41.725  20.930  18.540  0.00  0.00    -0.293 OA
ATOM     31  C   UNL     1      41.185  22.253  18.521  0.00  0.00    +0.260 C 
ENDBRANCH  29  30
ENDBRANCH  22  23
ENDBRANCH  21  22
TORSDOF 7
ENDMDL
MODEL 7
REMARK VINA RESULT:      -5.7      2.187      4.387
REMARK  Name = ZINC03830747
REMARK  12 active torsions:
REMARK  status: ('A' for Active; 'I' for Inactive)
REMARK    1  A    between atoms: C1_1  and  C2_2
REMARK    2  A    between atoms: C2_2  and  C3_3
REMARK    3  A    between atoms: C9_11  and  O4_38
REMARK    4  A    between atoms: C10_12  and  O3_36
REMARK    5  A    between atoms: C15_18  and  C16_20
REMARK    6  A    between atoms: C16_20  and  C17_21
REMARK    7  A    between atoms: C20_25  and  O2_34
REMARK    8  A    between atoms: C21_26  and  O1_32
REMARK    9  A    between atoms: O1_32  and  C26_33
REMARK   10  A    between atoms: O2_34  and  C27_35
REMARK   11  A    between atoms: O3_36  and  C28_37
REMARK   12  A    between atoms: O4_38  and  C29_39
REMARK                            x       y       z     vdW  Elec       q    Type
REMARK                         _______ _______ _______ _____ _____    ______ ____
ROOT
ATOM      3  C   UNL     1      48.468  20.272  20.936  0.00  0.00    +0.003 C 
ATOM      4  C   UNL     1      49.822  19.954  20.294  0.00  0.00    +0.268 C 
ATOM      5  N   UNL     1      49.657  18.863  19.326  0.00  0.00    -0.380 N 
ATOM      6  H   UNL     1      48.961  19.123  18.644  0.00  0.00    +0.425 HD
ATOM      7  C   UNL     1      50.929  18.603  18.641  0.00  0.00    +0.273 C 
ATOM      8  C   UNL     1      50.659  17.699  17.437  0.00  0.00    +0.128 C 
ATOM      9  C   UNL     1      49.850  16.501  17.865  0.00  0.00    -0.075 A 
ATOM     10  C   UNL     1      49.791  15.404  17.020  0.00  0.00    -0.016 A 
ATOM     11  C   UNL     1      49.057  14.285  17.375  0.00  0.00    +0.141 A 
ATOM     14  C   UNL     1      48.375  14.266  18.588  0.00  0.00    +0.118 A 
ATOM     17  C   UNL     1      48.438  15.363  19.428  0.00  0.00    -0.019 A 
ATOM     18  C   UNL     1      49.177  16.480  19.069  0.00  0.00    -0.139 A 
ATOM     19  C   UNL     1      49.226  17.646  20.019  0.00  0.00    +0.234 C 
ATOM     20  C   UNL     1      47.847  17.871  20.642  0.00  0.00    +0.067 C 
ATOM     21  C   UNL     1      47.935  19.026  21.645  0.00  0.00    -0.024 C 
ENDROOT
BRANCH   3   2
ATOM      1  C   UNL     1      50.100  21.469  22.402  0.00  0.00    +0.028 C 
ATOM      2  C   UNL     1      48.640  21.405  21.950  0.00  0.00    +0.039 C 
ENDBRANCH   3   2
BRANCH  11  12
ATOM     12  O   UNL     1      49.002  13.212  16.542  0.00  0.00    -0.293 OA
ATOM     13  C   UNL     1      48.001  13.232  15.522  0.00  0.00    +0.260 C 
ENDBRANCH  11  12
BRANCH  14  15
ATOM     15  O   UNL     1      47.649  13.173  18.945  0.00  0.00    -0.292 OA
ATOM     16  C   UNL     1      46.259  13.374  19.207  0.00  0.00    +0.246 C 
ENDBRANCH  14  15
BRANCH  21  22
ATOM     22  C   UNL     1      46.545  19.317  22.213  0.00  0.00    +0.085 C 
BRANCH  22  23
ATOM     23  C   UNL     1      45.512  18.431  21.515  0.00  0.00    +0.233 C 
ATOM     24  C   UNL     1      44.484  19.302  20.842  0.00  0.00    -0.140 A 
ATOM     25  C   UNL     1      44.914  20.444  20.182  0.00  0.00    -0.014 A 
ATOM     26  C   UNL     1      44.005  21.270  19.546  0.00  0.00    +0.119 A 
ATOM     29  C   UNL     1      42.650  20.954  19.572  0.00  0.00    +0.142 A 
ATOM     32  C   UNL     1      42.224  19.815  20.233  0.00  0.00    -0.018 A 
ATOM     33  C   UNL     1      43.140  18.990  20.868  0.00  0.00    -0.077 A 
ATOM     34  C   UNL     1      42.633  17.764  21.582  0.00  0.00    +0.128 C 
ATOM     35  C   UNL     1      43.793  16.805  21.856  0.00  0.00    +0.277 C 
ATOM     36  N   UNL     1      44.877  17.556  22.505  0.00  0.00    -0.506 N 
ATOM     37  H   UNL     1      44.500  18.115  23.256  0.00  0.00    +0.432 HD
ATOM     38  H   UNL     1      45.560  16.912  22.873  0.00  0.00    +0.425 HD
BRANCH  26  27
ATOM     27  O   UNL     1      44.433  22.388  18.901  0.00  0.00    -0.292 OA
ATOM     28  C   UNL     1      44.739  23.526  19.709  0.00  0.00    +0.249 C 
ENDBRANCH  26  27
BRANCH  29  30
ATOM     30  O   UNL     1      41.747  21.760  18.950  0.00  0.00    -0.293 OA
ATOM     31  C   UNL     1      40.505  21.167  18.565  0.00  0.00    +0.260 C 
ENDBRANCH  29  30
ENDBRANCH  22  23
ENDBRANCH  21  22
TORSDOF 7
ENDMDL
MODEL 8
REMARK VINA RESULT:      -5.5      3.140      7.911
REMARK  Name = ZINC03830747
REMARK  12 active torsions:
REMARK  status: ('A' for Active; 'I' for Inactive)
REMARK    1  A    between atoms: C1_1  and  C2_2
REMARK    2  A    between atoms: C2_2  and  C3_3
REMARK    3  A    between atoms: C9_11  and  O4_38
REMARK    4  A    between atoms: C10_12  and  O3_36
REMARK    5  A    between atoms: C15_18  and  C16_20
REMARK    6  A    between atoms: C16_20  and  C17_21
REMARK    7  A    between atoms: C20_25  and  O2_34
REMARK    8  A    between atoms: C21_26  and  O1_32
REMARK    9  A    between atoms: O1_32  and  C26_33
REMARK   10  A    between atoms: O2_34  and  C27_35
REMARK   11  A    between atoms: O3_36  and  C28_37
REMARK   12  A    between atoms: O4_38  and  C29_39
REMARK                            x       y       z     vdW  Elec       q    Type
REMARK                         _______ _______ _______ _____ _____    ______ ____
ROOT
ATOM      3  C   UNL     1      47.195  18.994  18.337  0.00  0.00    +0.003 C 
ATOM      4  C   UNL     1      48.240  19.919  18.967  0.00  0.00    +0.268 C 
ATOM      5  N   UNL     1      49.573  19.326  18.810  0.00  0.00    -0.380 N 
ATOM      6  H   UNL     1      49.751  19.156  17.832  0.00  0.00    +0.425 HD
ATOM      7  C   UNL     1      50.595  20.241  19.334  0.00  0.00    +0.273 C 
ATOM      8  C   UNL     1      51.970  19.749  18.878  0.00  0.00    +0.128 C 
ATOM      9  C   UNL     1      52.125  18.285  19.202  0.00  0.00    -0.075 A 
ATOM     10  C   UNL     1      53.398  17.734  19.189  0.00  0.00    -0.016 A 
ATOM     11  C   UNL     1      53.583  16.394  19.477  0.00  0.00    +0.141 A 
ATOM     14  C   UNL     1      52.483  15.596  19.781  0.00  0.00    +0.118 A 
ATOM     17  C   UNL     1      51.216  16.151  19.794  0.00  0.00    -0.019 A 
ATOM     18  C   UNL     1      51.036  17.495  19.507  0.00  0.00    -0.139 A 
ATOM     19  C   UNL     1      49.641  18.058  19.543  0.00  0.00    +0.234 C 
ATOM     20  C   UNL     1      48.657  17.059  18.930  0.00  0.00    +0.067 C 
ATOM     21  C   UNL     1      47.239  17.630  19.028  0.00  0.00    -0.024 C 
ENDROOT
BRANCH   3   2
ATOM      1  C   UNL     1      45.939  21.085  18.881  0.00  0.00    +0.028 C 
ATOM      2  C   UNL     1      45.803  19.608  18.505  0.00  0.00    +0.039 C 
ENDBRANCH   3   2
BRANCH  11  12
ATOM     12  O   UNL     1      54.832  15.858  19.463  0.00  0.00    -0.293 OA
ATOM     13  C   UNL     1      55.590  15.946  20.672  0.00  0.00    +0.260 C 
ENDBRANCH  11  12
BRANCH  14  15
ATOM     15  O   UNL     1      52.654  14.277  20.064  0.00  0.00    -0.292 OA
ATOM     16  C   UNL     1      52.364  13.346  19.020  0.00  0.00    +0.246 C 
ENDBRANCH  14  15
BRANCH  21  22
ATOM     22  C   UNL     1      46.256  16.679  18.343  0.00  0.00    +0.085 C 
BRANCH  22  23
ATOM     23  C   UNL     1      46.236  15.343  19.089  0.00  0.00    +0.233 C 
ATOM     24  C   UNL     1      46.341  14.217  18.094  0.00  0.00    -0.140 A 
ATOM     25  C   UNL     1      47.221  14.354  17.030  0.00  0.00    -0.014 A 
ATOM     26  C   UNL     1      47.353  13.344  16.095  0.00  0.00    +0.119 A 
ATOM     29  C   UNL     1      46.597  12.183  16.223  0.00  0.00    +0.142 A 
ATOM     32  C   UNL     1      45.720  12.049  17.284  0.00  0.00    -0.018 A 
ATOM     33  C   UNL     1      45.592  13.066  18.219  0.00  0.00    -0.077 A 
ATOM     34  C   UNL     1      44.619  12.882  19.355  0.00  0.00    +0.128 C 
ATOM     35  C   UNL     1      44.913  13.898  20.460  0.00  0.00    +0.277 C 
ATOM     36  N   UNL     1      44.991  15.237  19.856  0.00  0.00    -0.506 N 
ATOM     37  H   UNL     1      44.203  15.377  19.242  0.00  0.00    +0.432 HD
ATOM     38  H   UNL     1      44.983  15.935  20.584  0.00  0.00    +0.425 HD
BRANCH  26  27
ATOM     27  O   UNL     1      48.217  13.485  15.054  0.00  0.00    -0.292 OA
ATOM     28  C   UNL     1      49.574  13.099  15.280  0.00  0.00    +0.249 C 
ENDBRANCH  26  27
BRANCH  29  30
ATOM     30  O   UNL     1      46.720  11.183  15.309  0.00  0.00    -0.293 OA
ATOM     31  C   UNL     1      45.549  10.411  15.030  0.00  0.00    +0.260 C 
ENDBRANCH  29  30
ENDBRANCH  22  23
ENDBRANCH  21  22
TORSDOF 7
ENDMDL
MODEL 9
REMARK VINA RESULT:      -5.5      3.227      8.397
REMARK  Name = ZINC03830747
REMARK  12 active torsions:
REMARK  status: ('A' for Active; 'I' for Inactive)
REMARK    1  A    between atoms: C1_1  and  C2_2
REMARK    2  A    between atoms: C2_2  and  C3_3
REMARK    3  A    between atoms: C9_11  and  O4_38
REMARK    4  A    between atoms: C10_12  and  O3_36
REMARK    5  A    between atoms: C15_18  and  C16_20
REMARK    6  A    between atoms: C16_20  and  C17_21
REMARK    7  A    between atoms: C20_25  and  O2_34
REMARK    8  A    between atoms: C21_26  and  O1_32
REMARK    9  A    between atoms: O1_32  and  C26_33
REMARK   10  A    between atoms: O2_34  and  C27_35
REMARK   11  A    between atoms: O3_36  and  C28_37
REMARK   12  A    between atoms: O4_38  and  C29_39
REMARK                            x       y       z     vdW  Elec       q    Type
REMARK                         _______ _______ _______ _____ _____    ______ ____
ROOT
ATOM      3  C   UNL     1      45.099  17.127  21.170  0.00  0.00    +0.003 C 
ATOM      4  C   UNL     1      45.282  18.626  21.419  0.00  0.00    +0.268 C 
ATOM      5  N   UNL     1      46.355  19.135  20.555  0.00  0.00    -0.380 N 
ATOM      6  H   UNL     1      46.134  18.930  19.592  0.00  0.00    +0.425 HD
ATOM      7  C   UNL     1      46.485  20.589  20.720  0.00  0.00    +0.273 C 
ATOM      8  C   UNL     1      47.373  21.129  19.598  0.00  0.00    +0.128 C 
ATOM      9  C   UNL     1      48.648  20.327  19.519  0.00  0.00    -0.075 A 
ATOM     10  C   UNL     1      49.720  20.854  18.816  0.00  0.00    -0.016 A 
ATOM     11  C   UNL     1      50.907  20.148  18.718  0.00  0.00    +0.141 A 
ATOM     14  C   UNL     1      51.020  18.902  19.329  0.00  0.00    +0.118 A 
ATOM     17  C   UNL     1      49.946  18.382  20.030  0.00  0.00    -0.019 A 
ATOM     18  C   UNL     1      48.761  19.094  20.128  0.00  0.00    -0.139 A 
ATOM     19  C   UNL     1      47.624  18.494  20.909  0.00  0.00    +0.234 C 
ATOM     20  C   UNL     1      47.534  16.992  20.633  0.00  0.00    +0.067 C 
ATOM     21  C   UNL     1      46.406  16.395  21.480  0.00  0.00    -0.024 C 
ENDROOT
BRANCH   3   2
ATOM      1  C   UNL     1      42.826  17.590  22.100  0.00  0.00    +0.028 C 
ATOM      2  C   UNL     1      43.986  16.593  22.075  0.00  0.00    +0.039 C 
ENDBRANCH   3   2
BRANCH  11  12
ATOM     12  O   UNL     1      51.956  20.668  18.028  0.00  0.00    -0.293 OA
ATOM     13  C   UNL     1      51.899  20.587  16.602  0.00  0.00    +0.260 C 
ENDBRANCH  11  12
BRANCH  14  15
ATOM     15  O   UNL     1      52.180  18.199  19.237  0.00  0.00    -0.292 OA
ATOM     16  C   UNL     1      52.201  17.096  18.330  0.00  0.00    +0.246 C 
ENDBRANCH  14  15
BRANCH  21  22
ATOM     22  C   UNL     1      46.250  14.909  21.151  0.00  0.00    +0.085 C 
BRANCH  22  23
ATOM     23  C   UNL     1      47.631  14.285  20.944  0.00  0.00    +0.233 C 
ATOM     24  C   UNL     1      47.718  13.723  19.550  0.00  0.00    -0.140 A 
ATOM     25  C   UNL     1      47.173  14.456  18.505  0.00  0.00    -0.014 A 
ATOM     26  C   UNL     1      47.234  13.980  17.208  0.00  0.00    +0.119 A 
ATOM     29  C   UNL     1      47.846  12.757  16.950  0.00  0.00    +0.142 A 
ATOM     32  C   UNL     1      48.387  12.027  17.994  0.00  0.00    -0.018 A 
ATOM     33  C   UNL     1      48.323  12.510  19.292  0.00  0.00    -0.077 A 
ATOM     34  C   UNL     1      48.919  11.680  20.400  0.00  0.00    +0.128 C 
ATOM     35  C   UNL     1      49.105  12.540  21.651  0.00  0.00    +0.277 C 
ATOM     36  N   UNL     1      47.837  13.228  21.939  0.00  0.00    -0.506 N 
ATOM     37  H   UNL     1      47.076  12.568  21.892  0.00  0.00    +0.432 HD
ATOM     38  H   UNL     1      47.877  13.635  22.860  0.00  0.00    +0.425 HD
BRANCH  26  27
ATOM     27  O   UNL     1      46.697  14.703  16.189  0.00  0.00    -0.292 OA
ATOM     28  C   UNL     1      46.600  16.116  16.378  0.00  0.00    +0.249 C 
ENDBRANCH  26  27
BRANCH  29  30
ATOM     30  O   UNL     1      47.911  12.280  15.678  0.00  0.00    -0.293 OA
ATOM     31  C   UNL     1      47.023  11.213  15.338  0.00  0.00    +0.260 C 
ENDBRANCH  29  30
ENDBRANCH  22  23
ENDBRANCH  21  22
TORSDOF 7
ENDMDL
