MODEL 1
REMARK VINA RESULT:      -5.6      0.000      0.000
REMARK  Name = ZINC01663631
REMARK  9 active torsions:
REMARK  status: ('A' for Active; 'I' for Inactive)
REMARK    1  A    between atoms: C1_1  and  O1_2
REMARK    2  A    between atoms: O1_2  and  C2_3
REMARK    3  A    between atoms: C4_5  and  O6_25
REMARK    4  A    between atoms: C5_6  and  O5_23
REMARK    5  A    between atoms: C9_11  and  C11_15
REMARK    6  A    between atoms: C11_15  and  C12_16
REMARK    7  A    between atoms: C15_19  and  O4_22
REMARK    8  A    between atoms: O5_23  and  C18_24
REMARK    9  A    between atoms: O6_25  and  C19_26
REMARK                            x       y       z     vdW  Elec       q    Type
REMARK                         _______ _______ _______ _____ _____    ______ ____
ROOT
ATOM      3  C   UNL     1      45.900  17.126  18.958  0.00  0.00    +0.254 A 
ATOM      4  C   UNL     1      45.061  16.796  20.008  0.00  0.00    -0.188 A 
ATOM      5  C   UNL     1      45.499  15.937  21.006  0.00  0.00    +0.218 A 
ATOM      8  C   UNL     1      46.783  15.400  20.966  0.00  0.00    -0.017 A 
ATOM     11  C   UNL     1      47.639  15.719  19.924  0.00  0.00    +0.234 A 
ATOM     12  O   UNL     1      48.890  15.201  19.893  0.00  0.00    -0.286 OA
ATOM     13  C   UNL     1      49.570  15.127  18.640  0.00  0.00    +0.276 C 
ATOM     14  C   UNL     1      49.552  16.510  17.971  0.00  0.00    -0.050 C 
ATOM     24  C   UNL     1      48.097  16.907  17.799  0.00  0.00    +0.407 C 
ATOM     25  O   UNL     1      47.702  17.461  16.794  0.00  0.00    -0.419 OA
ATOM     26  C   UNL     1      47.193  16.585  18.908  0.00  0.00    -0.309 A 
ENDROOT
BRANCH   3   2
ATOM      1  C   UNL     1      45.047  19.270  18.389  0.00  0.00    +0.248 C 
ATOM      2  O   UNL     1      45.474  17.968  17.982  0.00  0.00    -0.280 OA
ENDBRANCH   3   2
BRANCH   5   6
ATOM      6  O   UNL     1      44.668  15.616  22.030  0.00  0.00    -0.292 OA
ATOM      7  C   UNL     1      43.635  16.553  22.345  0.00  0.00    +0.251 C 
ENDBRANCH   5   6
BRANCH   8   9
ATOM      9  O   UNL     1      47.198  14.558  21.954  0.00  0.00    -0.305 OA
ATOM     10  C   UNL     1      46.973  13.162  21.752  0.00  0.00    +0.215 C 
ENDBRANCH   8   9
BRANCH  14  15
ATOM     15  C   UNL     1      50.268  17.528  18.860  0.00  0.00    +0.109 C 
BRANCH  15  16
ATOM     16  C   UNL     1      50.744  18.684  18.018  0.00  0.00    -0.100 A 
ATOM     17  C   UNL     1      51.424  18.444  16.839  0.00  0.00    +0.032 A 
ATOM     18  C   UNL     1      51.857  19.501  16.061  0.00  0.00    -0.012 A 
ATOM     19  C   UNL     1      51.614  20.805  16.470  0.00  0.00    +0.105 A 
ATOM     22  C   UNL     1      50.937  21.044  17.656  0.00  0.00    -0.014 A 
ATOM     23  C   UNL     1      50.506  19.983  18.430  0.00  0.00    +0.033 A 
BRANCH  19  20
ATOM     20  O   UNL     1      52.038  21.846  15.707  0.00  0.00    -0.500 OA
ATOM     21  H   UNL     1      52.397  22.586  16.215  0.00  0.00    +0.390 HD
ENDBRANCH  19  20
ENDBRANCH  15  16
ENDBRANCH  14  15
TORSDOF 6
ENDMDL
MODEL 2
REMARK VINA RESULT:      -5.4      2.611      4.051
REMARK  Name = ZINC01663631
REMARK  9 active torsions:
REMARK  status: ('A' for Active; 'I' for Inactive)
REMARK    1  A    between atoms: C1_1  and  O1_2
REMARK    2  A    between atoms: O1_2  and  C2_3
REMARK    3  A    between atoms: C4_5  and  O6_25
REMARK    4  A    between atoms: C5_6  and  O5_23
REMARK    5  A    between atoms: C9_11  and  C11_15
REMARK    6  A    between atoms: C11_15  and  C12_16
REMARK    7  A    between atoms: C15_19  and  O4_22
REMARK    8  A    between atoms: O5_23  and  C18_24
REMARK    9  A    between atoms: O6_25  and  C19_26
REMARK                            x       y       z     vdW  Elec       q    Type
REMARK                         _______ _______ _______ _____ _____    ______ ____
ROOT
ATOM      3  C   UNL     1      45.539  14.249  19.162  0.00  0.00    +0.254 A 
ATOM      4  C   UNL     1      45.522  12.987  18.595  0.00  0.00    -0.188 A 
ATOM      5  C   UNL     1      46.148  12.762  17.377  0.00  0.00    +0.218 A 
ATOM      8  C   UNL     1      46.802  13.797  16.714  0.00  0.00    -0.017 A 
ATOM     11  C   UNL     1      46.832  15.068  17.266  0.00  0.00    +0.234 A 
ATOM     12  O   UNL     1      47.475  16.071  16.622  0.00  0.00    -0.286 OA
ATOM     13  C   UNL     1      47.108  17.419  16.915  0.00  0.00    +0.276 C 
ATOM     14  C   UNL     1      47.166  17.642  18.434  0.00  0.00    -0.050 C 
ATOM     24  C   UNL     1      46.210  16.649  19.070  0.00  0.00    +0.407 C 
ATOM     25  O   UNL     1      45.498  16.957  20.004  0.00  0.00    -0.419 OA
ATOM     26  C   UNL     1      46.191  15.298  18.498  0.00  0.00    -0.309 A 
ENDROOT
BRANCH   3   2
ATOM      1  C   UNL     1      45.362  13.678  21.462  0.00  0.00    +0.248 C 
ATOM      2  O   UNL     1      44.928  14.470  20.354  0.00  0.00    -0.280 OA
ENDBRANCH   3   2
BRANCH   5   6
ATOM      6  O   UNL     1      46.124  11.521  16.827  0.00  0.00    -0.292 OA
ATOM      7  C   UNL     1      47.031  10.556  17.362  0.00  0.00    +0.251 C 
ENDBRANCH   5   6
BRANCH   8   9
ATOM      9  O   UNL     1      47.413  13.561  15.519  0.00  0.00    -0.305 OA
ATOM     10  C   UNL     1      48.801  13.225  15.556  0.00  0.00    +0.215 C 
ENDBRANCH   8   9
BRANCH  14  15
ATOM     15  C   UNL     1      48.587  17.396  18.943  0.00  0.00    +0.109 C 
BRANCH  15  16
ATOM     16  C   UNL     1      49.504  18.466  18.410  0.00  0.00    -0.100 A 
ATOM     17  C   UNL     1      50.467  18.145  17.471  0.00  0.00    +0.032 A 
ATOM     18  C   UNL     1      51.305  19.125  16.976  0.00  0.00    -0.012 A 
ATOM     19  C   UNL     1      51.184  20.432  17.426  0.00  0.00    +0.105 A 
ATOM     22  C   UNL     1      50.221  20.751  18.373  0.00  0.00    -0.014 A 
ATOM     23  C   UNL     1      49.386  19.767  18.865  0.00  0.00    +0.033 A 
BRANCH  19  20
ATOM     20  O   UNL     1      52.008  21.398  16.940  0.00  0.00    -0.500 OA
ATOM     21  H   UNL     1      51.554  22.216  16.697  0.00  0.00    +0.390 HD
ENDBRANCH  19  20
ENDBRANCH  15  16
ENDBRANCH  14  15
TORSDOF 6
ENDMDL
MODEL 3
REMARK VINA RESULT:      -5.4      2.716      3.772
REMARK  Name = ZINC01663631
REMARK  9 active torsions:
REMARK  status: ('A' for Active; 'I' for Inactive)
REMARK    1  A    between atoms: C1_1  and  O1_2
REMARK    2  A    between atoms: O1_2  and  C2_3
REMARK    3  A    between atoms: C4_5  and  O6_25
REMARK    4  A    between atoms: C5_6  and  O5_23
REMARK    5  A    between atoms: C9_11  and  C11_15
REMARK    6  A    between atoms: C11_15  and  C12_16
REMARK    7  A    between atoms: C15_19  and  O4_22
REMARK    8  A    between atoms: O5_23  and  C18_24
REMARK    9  A    between atoms: O6_25  and  C19_26
REMARK                            x       y       z     vdW  Elec       q    Type
REMARK                         _______ _______ _______ _____ _____    ______ ____
ROOT
ATOM      3  C   UNL     1      44.257  20.650  19.868  0.00  0.00    +0.254 A 
ATOM      4  C   UNL     1      43.156  20.103  20.502  0.00  0.00    -0.188 A 
ATOM      5  C   UNL     1      43.166  18.770  20.892  0.00  0.00    +0.218 A 
ATOM      8  C   UNL     1      44.281  17.971  20.654  0.00  0.00    -0.017 A 
ATOM     11  C   UNL     1      45.395  18.500  20.021  0.00  0.00    +0.234 A 
ATOM     12  O   UNL     1      46.480  17.721  19.799  0.00  0.00    -0.286 OA
ATOM     13  C   UNL     1      47.389  18.093  18.762  0.00  0.00    +0.276 C 
ATOM     14  C   UNL     1      47.817  19.555  18.964  0.00  0.00    -0.050 C 
ATOM     24  C   UNL     1      46.557  20.400  18.936  0.00  0.00    +0.407 C 
ATOM     25  O   UNL     1      46.523  21.477  18.377  0.00  0.00    -0.419 OA
ATOM     26  C   UNL     1      45.382  19.849  19.620  0.00  0.00    -0.309 A 
ENDROOT
BRANCH   3   2
ATOM      1  C   UNL     1      44.328  22.932  20.527  0.00  0.00    +0.248 C 
ATOM      2  O   UNL     1      44.249  21.952  19.488  0.00  0.00    -0.280 OA
ENDBRANCH   3   2
BRANCH   5   6
ATOM      6  O   UNL     1      42.079  18.242  21.510  0.00  0.00    -0.292 OA
ATOM      7  C   UNL     1      40.824  18.884  21.277  0.00  0.00    +0.251 C 
ENDBRANCH   5   6
BRANCH   8   9
ATOM      9  O   UNL     1      44.276  16.665  21.042  0.00  0.00    -0.305 OA
ATOM     10  C   UNL     1      44.687  16.386  22.382  0.00  0.00    +0.215 C 
ENDBRANCH   8   9
BRANCH  14  15
ATOM     15  C   UNL     1      48.520  19.711  20.314  0.00  0.00    +0.109 C 
BRANCH  15  16
ATOM     16  C   UNL     1      49.873  20.340  20.107  0.00  0.00    -0.100 A 
ATOM     17  C   UNL     1      50.685  20.603  21.194  0.00  0.00    +0.032 A 
ATOM     18  C   UNL     1      51.929  21.175  21.008  0.00  0.00    -0.012 A 
ATOM     19  C   UNL     1      52.360  21.490  19.727  0.00  0.00    +0.105 A 
ATOM     22  C   UNL     1      51.541  21.231  18.638  0.00  0.00    -0.014 A 
ATOM     23  C   UNL     1      50.298  20.659  18.830  0.00  0.00    +0.033 A 
BRANCH  19  20
ATOM     20  O   UNL     1      53.583  22.052  19.541  0.00  0.00    -0.500 OA
ATOM     21  H   UNL     1      53.773  22.288  18.623  0.00  0.00    +0.390 HD
ENDBRANCH  19  20
ENDBRANCH  15  16
ENDBRANCH  14  15
TORSDOF 6
ENDMDL
MODEL 4
REMARK VINA RESULT:      -5.4      2.765      5.947
REMARK  Name = ZINC01663631
REMARK  9 active torsions:
REMARK  status: ('A' for Active; 'I' for Inactive)
REMARK    1  A    between atoms: C1_1  and  O1_2
REMARK    2  A    between atoms: O1_2  and  C2_3
REMARK    3  A    between atoms: C4_5  and  O6_25
REMARK    4  A    between atoms: C5_6  and  O5_23
REMARK    5  A    between atoms: C9_11  and  C11_15
REMARK    6  A    between atoms: C11_15  and  C12_16
REMARK    7  A    between atoms: C15_19  and  O4_22
REMARK    8  A    between atoms: O5_23  and  C18_24
REMARK    9  A    between atoms: O6_25  and  C19_26
REMARK                            x       y       z     vdW  Elec       q    Type
REMARK                         _______ _______ _______ _____ _____    ______ ____
ROOT
ATOM      3  C   UNL     1      49.418  16.243  17.694  0.00  0.00    +0.254 A 
ATOM      4  C   UNL     1      49.650  15.151  16.876  0.00  0.00    -0.188 A 
ATOM      5  C   UNL     1      48.615  14.277  16.570  0.00  0.00    +0.218 A 
ATOM      8  C   UNL     1      47.336  14.489  17.077  0.00  0.00    -0.017 A 
ATOM     11  C   UNL     1      47.083  15.578  17.897  0.00  0.00    +0.234 A 
ATOM     12  O   UNL     1      45.835  15.784  18.382  0.00  0.00    -0.286 OA
ATOM     13  C   UNL     1      45.681  16.572  19.563  0.00  0.00    +0.276 C 
ATOM     14  C   UNL     1      46.406  17.913  19.375  0.00  0.00    -0.050 C 
ATOM     24  C   UNL     1      47.864  17.600  19.095  0.00  0.00    +0.407 C 
ATOM     25  O   UNL     1      48.762  18.260  19.576  0.00  0.00    -0.419 OA
ATOM     26  C   UNL     1      48.133  16.459  18.213  0.00  0.00    -0.309 A 
ENDROOT
BRANCH   3   2
ATOM      1  C   UNL     1      51.051  17.775  16.898  0.00  0.00    +0.248 C 
ATOM      2  O   UNL     1      50.428  17.098  17.993  0.00  0.00    -0.280 OA
ENDBRANCH   3   2
BRANCH   5   6
ATOM      6  O   UNL     1      48.853  13.208  15.769  0.00  0.00    -0.292 OA
ATOM      7  C   UNL     1      50.197  13.017  15.324  0.00  0.00    +0.251 C 
ENDBRANCH   5   6
BRANCH   8   9
ATOM      9  O   UNL     1      46.330  13.623  16.767  0.00  0.00    -0.305 OA
ATOM     10  C   UNL     1      46.124  12.525  17.658  0.00  0.00    +0.215 C 
ENDBRANCH   8   9
BRANCH  14  15
ATOM     15  C   UNL     1      45.800  18.673  18.194  0.00  0.00    +0.109 C 
BRANCH  15  16
ATOM     16  C   UNL     1      45.088  19.901  18.698  0.00  0.00    -0.100 A 
ATOM     17  C   UNL     1      45.800  21.062  18.938  0.00  0.00    +0.032 A 
ATOM     18  C   UNL     1      45.149  22.192  19.394  0.00  0.00    -0.012 A 
ATOM     19  C   UNL     1      43.780  22.159  19.618  0.00  0.00    +0.105 A 
ATOM     22  C   UNL     1      43.068  20.992  19.382  0.00  0.00    -0.014 A 
ATOM     23  C   UNL     1      43.724  19.864  18.926  0.00  0.00    +0.033 A 
BRANCH  19  20
ATOM     20  O   UNL     1      43.137  23.269  20.067  0.00  0.00    -0.500 OA
ATOM     21  H   UNL     1      42.578  23.115  20.840  0.00  0.00    +0.390 HD
ENDBRANCH  19  20
ENDBRANCH  15  16
ENDBRANCH  14  15
TORSDOF 6
ENDMDL
MODEL 5
REMARK VINA RESULT:      -5.4      3.126      6.183
REMARK  Name = ZINC01663631
REMARK  9 active torsions:
REMARK  status: ('A' for Active; 'I' for Inactive)
REMARK    1  A    between atoms: C1_1  and  O1_2
REMARK    2  A    between atoms: O1_2  and  C2_3
REMARK    3  A    between atoms: C4_5  and  O6_25
REMARK    4  A    between atoms: C5_6  and  O5_23
REMARK    5  A    between atoms: C9_11  and  C11_15
REMARK    6  A    between atoms: C11_15  and  C12_16
REMARK    7  A    between atoms: C15_19  and  O4_22
REMARK    8  A    between atoms: O5_23  and  C18_24
REMARK    9  A    between atoms: O6_25  and  C19_26
REMARK                            x       y       z     vdW  Elec       q    Type
REMARK                         _______ _______ _______ _____ _____    ______ ____
ROOT
ATOM      3  C   UNL     1      46.107  16.304  18.196  0.00  0.00    +0.254 A 
ATOM      4  C   UNL     1      46.291  14.954  17.956  0.00  0.00    -0.188 A 
ATOM      5  C   UNL     1      45.961  14.021  18.930  0.00  0.00    +0.218 A 
ATOM      8  C   UNL     1      45.440  14.430  20.155  0.00  0.00    -0.017 A 
ATOM     11  C   UNL     1      45.247  15.777  20.414  0.00  0.00    +0.234 A 
ATOM     12  O   UNL     1      44.733  16.170  21.605  0.00  0.00    -0.286 OA
ATOM     13  C   UNL     1      44.981  17.504  22.051  0.00  0.00    +0.276 C 
ATOM     14  C   UNL     1      44.578  18.492  20.946  0.00  0.00    -0.050 C 
ATOM     24  C   UNL     1      45.397  18.150  19.716  0.00  0.00    +0.407 C 
ATOM     25  O   UNL     1      45.872  19.012  19.005  0.00  0.00    -0.419 OA
ATOM     26  C   UNL     1      45.588  16.723  19.430  0.00  0.00    -0.309 A 
ENDROOT
BRANCH   3   2
ATOM      1  C   UNL     1      47.799  17.281  16.843  0.00  0.00    +0.248 C 
ATOM      2  O   UNL     1      46.428  17.217  17.245  0.00  0.00    -0.280 OA
ENDBRANCH   3   2
BRANCH   5   6
ATOM      6  O   UNL     1      46.148  12.699  18.686  0.00  0.00    -0.292 OA
ATOM      7  C   UNL     1      47.487  12.207  18.768  0.00  0.00    +0.251 C 
ENDBRANCH   5   6
BRANCH   8   9
ATOM      9  O   UNL     1      45.121  13.503  21.101  0.00  0.00    -0.305 OA
ATOM     10  C   UNL     1      46.072  13.288  22.145  0.00  0.00    +0.215 C 
ENDBRANCH   8   9
BRANCH  14  15
ATOM     15  C   UNL     1      43.087  18.346  20.636  0.00  0.00    +0.109 C 
BRANCH  15  16
ATOM     16  C   UNL     1      42.591  19.595  19.953  0.00  0.00    -0.100 A 
ATOM     17  C   UNL     1      41.422  19.561  19.217  0.00  0.00    +0.032 A 
ATOM     18  C   UNL     1      40.961  20.705  18.594  0.00  0.00    -0.012 A 
ATOM     19  C   UNL     1      41.678  21.888  18.704  0.00  0.00    +0.105 A 
ATOM     22  C   UNL     1      42.854  21.919  19.439  0.00  0.00    -0.014 A 
ATOM     23  C   UNL     1      43.310  20.772  20.059  0.00  0.00    +0.033 A 
BRANCH  19  20
ATOM     20  O   UNL     1      41.227  23.015  18.093  0.00  0.00    -0.500 OA
ATOM     21  H   UNL     1      41.546  23.127  17.187  0.00  0.00    +0.390 HD
ENDBRANCH  19  20
ENDBRANCH  15  16
ENDBRANCH  14  15
TORSDOF 6
ENDMDL
MODEL 6
REMARK VINA RESULT:      -5.3      3.196      5.166
REMARK  Name = ZINC01663631
REMARK  9 active torsions:
REMARK  status: ('A' for Active; 'I' for Inactive)
REMARK    1  A    between atoms: C1_1  and  O1_2
REMARK    2  A    between atoms: O1_2  and  C2_3
REMARK    3  A    between atoms: C4_5  and  O6_25
REMARK    4  A    between atoms: C5_6  and  O5_23
REMARK    5  A    between atoms: C9_11  and  C11_15
REMARK    6  A    between atoms: C11_15  and  C12_16
REMARK    7  A    between atoms: C15_19  and  O4_22
REMARK    8  A    between atoms: O5_23  and  C18_24
REMARK    9  A    between atoms: O6_25  and  C19_26
REMARK                            x       y       z     vdW  Elec       q    Type
REMARK                         _______ _______ _______ _____ _____    ______ ____
ROOT
ATOM      3  C   UNL     1      44.229  18.602  20.770  0.00  0.00    +0.254 A 
ATOM      4  C   UNL     1      43.134  19.169  20.141  0.00  0.00    -0.188 A 
ATOM      5  C   UNL     1      43.229  20.438  19.586  0.00  0.00    +0.218 A 
ATOM      8  C   UNL     1      44.422  21.152  19.651  0.00  0.00    -0.017 A 
ATOM     11  C   UNL     1      45.531  20.601  20.275  0.00  0.00    +0.234 A 
ATOM     12  O   UNL     1      46.692  21.296  20.329  0.00  0.00    -0.286 OA
ATOM     13  C   UNL     1      47.640  20.968  21.346  0.00  0.00    +0.276 C 
ATOM     14  C   UNL     1      47.926  19.459  21.305  0.00  0.00    -0.050 C 
ATOM     24  C   UNL     1      46.603  18.745  21.518  0.00  0.00    +0.407 C 
ATOM     25  O   UNL     1      46.519  17.752  22.211  0.00  0.00    -0.419 OA
ATOM     26  C   UNL     1      45.433  19.318  20.844  0.00  0.00    -0.309 A 
ENDROOT
BRANCH   3   2
ATOM      1  C   UNL     1      43.001  17.095  22.138  0.00  0.00    +0.248 C 
ATOM      2  O   UNL     1      44.138  17.361  21.312  0.00  0.00    -0.280 OA
ENDBRANCH   3   2
BRANCH   5   6
ATOM      6  O   UNL     1      42.149  20.987  18.975  0.00  0.00    -0.292 OA
ATOM      7  C   UNL     1      41.238  20.089  18.338  0.00  0.00    +0.251 C 
ENDBRANCH   5   6
BRANCH   8   9
ATOM      9  O   UNL     1      44.501  22.396  19.101  0.00  0.00    -0.305 OA
ATOM     10  C   UNL     1      44.286  23.506  19.976  0.00  0.00    +0.215 C 
ENDBRANCH   8   9
BRANCH  14  15
ATOM     15  C   UNL     1      48.511  19.077  19.945  0.00  0.00    +0.109 C 
BRANCH  15  16
ATOM     16  C   UNL     1      49.831  19.777  19.751  0.00  0.00    -0.100 A 
ATOM     17  C   UNL     1      50.016  20.614  18.667  0.00  0.00    +0.032 A 
ATOM     18  C   UNL     1      51.223  21.262  18.489  0.00  0.00    -0.012 A 
ATOM     19  C   UNL     1      52.253  21.066  19.398  0.00  0.00    +0.105 A 
ATOM     22  C   UNL     1      52.069  20.221  20.482  0.00  0.00    -0.014 A 
ATOM     23  C   UNL     1      50.859  19.575  20.655  0.00  0.00    +0.033 A 
BRANCH  19  20
ATOM     20  O   UNL     1      53.442  21.703  19.226  0.00  0.00    -0.500 OA
ATOM     21  H   UNL     1      53.869  21.968  20.051  0.00  0.00    +0.390 HD
ENDBRANCH  19  20
ENDBRANCH  15  16
ENDBRANCH  14  15
TORSDOF 6
ENDMDL
MODEL 7
REMARK VINA RESULT:      -5.2      2.971      6.218
REMARK  Name = ZINC01663631
REMARK  9 active torsions:
REMARK  status: ('A' for Active; 'I' for Inactive)
REMARK    1  A    between atoms: C1_1  and  O1_2
REMARK    2  A    between atoms: O1_2  and  C2_3
REMARK    3  A    between atoms: C4_5  and  O6_25
REMARK    4  A    between atoms: C5_6  and  O5_23
REMARK    5  A    between atoms: C9_11  and  C11_15
REMARK    6  A    between atoms: C11_15  and  C12_16
REMARK    7  A    between atoms: C15_19  and  O4_22
REMARK    8  A    between atoms: O5_23  and  C18_24
REMARK    9  A    between atoms: O6_25  and  C19_26
REMARK                            x       y       z     vdW  Elec       q    Type
REMARK                         _______ _______ _______ _____ _____    ______ ____
ROOT
ATOM      3  C   UNL     1      51.347  18.496  17.489  0.00  0.00    +0.254 A 
ATOM      4  C   UNL     1      51.453  17.268  16.860  0.00  0.00    -0.188 A 
ATOM      5  C   UNL     1      50.592  16.234  17.201  0.00  0.00    +0.218 A 
ATOM      8  C   UNL     1      49.612  16.419  18.172  0.00  0.00    -0.017 A 
ATOM     11  C   UNL     1      49.488  17.642  18.812  0.00  0.00    +0.234 A 
ATOM     12  O   UNL     1      48.528  17.819  19.752  0.00  0.00    -0.286 OA
ATOM     13  C   UNL     1      48.701  18.855  20.720  0.00  0.00    +0.276 C 
ATOM     14  C   UNL     1      48.990  20.180  19.998  0.00  0.00    -0.050 C 
ATOM     24  C   UNL     1      50.242  19.975  19.165  0.00  0.00    +0.407 C 
ATOM     25  O   UNL     1      51.097  20.832  19.077  0.00  0.00    -0.419 OA
ATOM     26  C   UNL     1      50.365  18.688  18.473  0.00  0.00    -0.309 A 
ENDROOT
BRANCH   3   2
ATOM      1  C   UNL     1      52.090  20.022  15.825  0.00  0.00    +0.248 C 
ATOM      2  O   UNL     1      52.187  19.508  17.156  0.00  0.00    -0.280 OA
ENDBRANCH   3   2
BRANCH   5   6
ATOM      6  O   UNL     1      50.706  15.032  16.580  0.00  0.00    -0.292 OA
ATOM      7  C   UNL     1      51.515  14.045  17.223  0.00  0.00    +0.251 C 
ENDBRANCH   5   6
BRANCH   8   9
ATOM      9  O   UNL     1      48.774  15.394  18.495  0.00  0.00    -0.305 OA
ATOM     10  C   UNL     1      47.576  15.270  17.726  0.00  0.00    +0.215 C 
ENDBRANCH   8   9
BRANCH  14  15
ATOM     15  C   UNL     1      47.814  20.546  19.090  0.00  0.00    +0.109 C 
BRANCH  15  16
ATOM     16  C   UNL     1      46.800  21.337  19.875  0.00  0.00    -0.100 A 
ATOM     17  C   UNL     1      45.514  21.486  19.389  0.00  0.00    +0.032 A 
ATOM     18  C   UNL     1      44.580  22.205  20.109  0.00  0.00    -0.012 A 
ATOM     19  C   UNL     1      44.936  22.785  21.318  0.00  0.00    +0.105 A 
ATOM     22  C   UNL     1      46.228  22.640  21.802  0.00  0.00    -0.014 A 
ATOM     23  C   UNL     1      47.158  21.919  21.077  0.00  0.00    +0.033 A 
BRANCH  19  20
ATOM     20  O   UNL     1      44.019  23.494  22.028  0.00  0.00    -0.500 OA
ATOM     21  H   UNL     1      44.343  24.345  22.351  0.00  0.00    +0.390 HD
ENDBRANCH  19  20
ENDBRANCH  15  16
ENDBRANCH  14  15
TORSDOF 6
ENDMDL
MODEL 8
REMARK VINA RESULT:      -5.1      3.306      5.505
REMARK  Name = ZINC01663631
REMARK  9 active torsions:
REMARK  status: ('A' for Active; 'I' for Inactive)
REMARK    1  A    between atoms: C1_1  and  O1_2
REMARK    2  A    between atoms: O1_2  and  C2_3
REMARK    3  A    between atoms: C4_5  and  O6_25
REMARK    4  A    between atoms: C5_6  and  O5_23
REMARK    5  A    between atoms: C9_11  and  C11_15
REMARK    6  A    between atoms: C11_15  and  C12_16
REMARK    7  A    between atoms: C15_19  and  O4_22
REMARK    8  A    between atoms: O5_23  and  C18_24
REMARK    9  A    between atoms: O6_25  and  C19_26
REMARK                            x       y       z     vdW  Elec       q    Type
REMARK                         _______ _______ _______ _____ _____    ______ ____
ROOT
ATOM      3  C   UNL     1      44.471  19.336  19.691  0.00  0.00    +0.254 A 
ATOM      4  C   UNL     1      43.263  19.916  19.348  0.00  0.00    -0.188 A 
ATOM      5  C   UNL     1      43.102  21.293  19.431  0.00  0.00    +0.218 A 
ATOM      8  C   UNL     1      44.151  22.104  19.854  0.00  0.00    -0.017 A 
ATOM     11  C   UNL     1      45.370  21.543  20.199  0.00  0.00    +0.234 A 
ATOM     12  O   UNL     1      46.390  22.338  20.603  0.00  0.00    -0.286 OA
ATOM     13  C   UNL     1      47.432  21.765  21.394  0.00  0.00    +0.276 C 
ATOM     14  C   UNL     1      47.980  20.516  20.686  0.00  0.00    -0.050 C 
ATOM     24  C   UNL     1      46.818  19.556  20.506  0.00  0.00    +0.407 C 
ATOM     25  O   UNL     1      46.947  18.361  20.671  0.00  0.00    -0.419 OA
ATOM     26  C   UNL     1      45.531  20.147  20.123  0.00  0.00    -0.309 A 
ENDROOT
BRANCH   3   2
ATOM      1  C   UNL     1      43.960  17.197  20.591  0.00  0.00    +0.248 C 
ATOM      2  O   UNL     1      44.630  17.991  19.609  0.00  0.00    -0.280 OA
ENDBRANCH   3   2
BRANCH   5   6
ATOM      6  O   UNL     1      41.911  21.852  19.097  0.00  0.00    -0.292 OA
ATOM      7  C   UNL     1      40.783  20.979  19.020  0.00  0.00    +0.251 C 
ENDBRANCH   5   6
BRANCH   8   9
ATOM      9  O   UNL     1      43.978  23.454  19.929  0.00  0.00    -0.305 OA
ATOM     10  C   UNL     1      44.475  24.233  18.840  0.00  0.00    +0.215 C 
ENDBRANCH   8   9
BRANCH  14  15
ATOM     15  C   UNL     1      48.553  20.902  19.320  0.00  0.00    +0.109 C 
BRANCH  15  16
ATOM     16  C   UNL     1      49.836  20.149  19.084  0.00  0.00    -0.100 A 
ATOM     17  C   UNL     1      50.171  19.083  19.898  0.00  0.00    +0.032 A 
ATOM     18  C   UNL     1      51.345  18.387  19.680  0.00  0.00    -0.012 A 
ATOM     19  C   UNL     1      52.190  18.762  18.646  0.00  0.00    +0.105 A 
ATOM     22  C   UNL     1      51.855  19.836  17.834  0.00  0.00    -0.014 A 
ATOM     23  C   UNL     1      50.681  20.529  18.056  0.00  0.00    +0.033 A 
BRANCH  19  20
ATOM     20  O   UNL     1      53.345  18.079  18.429  0.00  0.00    -0.500 OA
ATOM     21  H   UNL     1      53.930  18.490  17.779  0.00  0.00    +0.390 HD
ENDBRANCH  19  20
ENDBRANCH  15  16
ENDBRANCH  14  15
TORSDOF 6
ENDMDL
MODEL 9
REMARK VINA RESULT:      -5.0      2.597      3.533
REMARK  Name = ZINC01663631
REMARK  9 active torsions:
REMARK  status: ('A' for Active; 'I' for Inactive)
REMARK    1  A    between atoms: C1_1  and  O1_2
REMARK    2  A    between atoms: O1_2  and  C2_3
REMARK    3  A    between atoms: C4_5  and  O6_25
REMARK    4  A    between atoms: C5_6  and  O5_23
REMARK    5  A    between atoms: C9_11  and  C11_15
REMARK    6  A    between atoms: C11_15  and  C12_16
REMARK    7  A    between atoms: C15_19  and  O4_22
REMARK    8  A    between atoms: O5_23  and  C18_24
REMARK    9  A    between atoms: O6_25  and  C19_26
REMARK                            x       y       z     vdW  Elec       q    Type
REMARK                         _______ _______ _______ _____ _____    ______ ____
ROOT
ATOM      3  C   UNL     1      46.620  18.258  18.587  0.00  0.00    +0.254 A 
ATOM      4  C   UNL     1      45.274  18.574  18.641  0.00  0.00    -0.188 A 
ATOM      5  C   UNL     1      44.721  19.068  19.815  0.00  0.00    +0.218 A 
ATOM      8  C   UNL     1      45.509  19.253  20.947  0.00  0.00    -0.017 A 
ATOM     11  C   UNL     1      46.860  18.944  20.913  0.00  0.00    +0.234 A 
ATOM     12  O   UNL     1      47.626  19.133  22.015  0.00  0.00    -0.286 OA
ATOM     13  C   UNL     1      48.840  18.393  22.140  0.00  0.00    +0.276 C 
ATOM     14  C   UNL     1      49.683  18.581  20.869  0.00  0.00    -0.050 C 
ATOM     24  C   UNL     1      48.846  18.095  19.700  0.00  0.00    +0.407 C 
ATOM     25  O   UNL     1      49.333  17.456  18.790  0.00  0.00    -0.419 OA
ATOM     26  C   UNL     1      47.420  18.437  19.726  0.00  0.00    -0.309 A 
ENDROOT
BRANCH   3   2
ATOM      1  C   UNL     1      46.542  16.627  16.860  0.00  0.00    +0.248 C 
ATOM      2  O   UNL     1      47.163  17.776  17.440  0.00  0.00    -0.280 OA
ENDBRANCH   3   2
BRANCH   5   6
ATOM      6  O   UNL     1      43.399  19.372  19.859  0.00  0.00    -0.292 OA
ATOM      7  C   UNL     1      42.897  20.233  18.835  0.00  0.00    +0.251 C 
ENDBRANCH   5   6
BRANCH   8   9
ATOM      9  O   UNL     1      44.952  19.739  22.091  0.00  0.00    -0.305 OA
ATOM     10  C   UNL     1      44.879  21.160  22.224  0.00  0.00    +0.215 C 
ENDBRANCH   8   9
BRANCH  14  15
ATOM     15  C   UNL     1      50.025  20.061  20.686  0.00  0.00    +0.109 C 
BRANCH  15  16
ATOM     16  C   UNL     1      50.725  20.255  19.366  0.00  0.00    -0.100 A 
ATOM     17  C   UNL     1      51.938  19.636  19.130  0.00  0.00    +0.032 A 
ATOM     18  C   UNL     1      52.580  19.807  17.918  0.00  0.00    -0.012 A 
ATOM     19  C   UNL     1      52.008  20.607  16.940  0.00  0.00    +0.105 A 
ATOM     22  C   UNL     1      50.793  21.232  17.180  0.00  0.00    -0.014 A 
ATOM     23  C   UNL     1      50.156  21.058  18.394  0.00  0.00    +0.033 A 
BRANCH  19  20
ATOM     20  O   UNL     1      52.637  20.776  15.747  0.00  0.00    -0.500 OA
ATOM     21  H   UNL     1      53.597  20.671  15.789  0.00  0.00    +0.390 HD
ENDBRANCH  19  20
ENDBRANCH  15  16
ENDBRANCH  14  15
TORSDOF 6
ENDMDL
