MODEL 1
REMARK VINA RESULT:      -6.6      0.000      0.000
REMARK  Name = ZINC95486355
REMARK  10 active torsions:
REMARK  status: ('A' for Active; 'I' for Inactive)
REMARK    1  A    between atoms: C3_3  and  O9_35
REMARK    2  A    between atoms: C4_4  and  O8_34
REMARK    3  A    between atoms: C6_6  and  C7_7
REMARK    4  A    between atoms: C8_8  and  O4_20
REMARK    5  A    between atoms: C13_14  and  O3_18
REMARK    6  A    between atoms: C15_16  and  O2_17
REMARK    7  A    between atoms: O4_20  and  C17_21
REMARK    8  A    between atoms: C20_25  and  O7_33
REMARK    9  A    between atoms: C21_27  and  O6_32
REMARK   10  A    between atoms: C22_29  and  O5_31
REMARK                            x       y       z     vdW  Elec       q    Type
REMARK                         _______ _______ _______ _____ _____    ______ ____
ROOT
ATOM     11  C   UNL     1      48.381  19.410  19.503  0.00  0.00    -0.029 C 
ATOM     12  C   UNL     1      47.392  18.868  18.765  0.00  0.00    +0.012 C 
ATOM     26  C   UNL     1      46.015  19.360  18.917  0.00  0.00    +0.414 C 
ATOM     27  C   UNL     1      45.820  20.662  19.584  0.00  0.00    -0.201 A 
ATOM     28  C   UNL     1      46.861  21.210  20.338  0.00  0.00    -0.001 A 
ATOM     29  C   UNL     1      46.682  22.426  20.944  0.00  0.00    -0.023 A 
ATOM     30  C   UNL     1      45.476  23.108  20.820  0.00  0.00    +0.165 A 
ATOM     33  C   UNL     1      44.434  22.567  20.081  0.00  0.00    -0.045 A 
ATOM     34  C   UNL     1      44.599  21.341  19.459  0.00  0.00    +0.192 A 
ATOM     37  O   UNL     1      45.067  18.715  18.506  0.00  0.00    -0.425 OA
ATOM     38  C   UNL     1      48.166  20.489  20.513  0.00  0.00    +0.182 C 
ENDROOT
BRANCH  11  10
ATOM      1  C   UNL     1      50.348  18.103  20.278  0.00  0.00    +0.058 A 
ATOM      2  C   UNL     1      51.629  17.632  20.088  0.00  0.00    +0.003 A 
ATOM      3  C   UNL     1      52.326  17.953  18.931  0.00  0.00    +0.088 A 
ATOM      6  C   UNL     1      51.734  18.754  17.956  0.00  0.00    +0.078 A 
ATOM      9  C   UNL     1      50.451  19.230  18.137  0.00  0.00    +0.036 A 
ATOM     10  C   UNL     1      49.747  18.907  19.304  0.00  0.00    -0.039 A 
BRANCH   3   4
ATOM      4  O   UNL     1      53.589  17.486  18.749  0.00  0.00    -0.489 OA
ATOM      5  H   UNL     1      53.831  17.359  17.822  0.00  0.00    +0.387 HD
ENDBRANCH   3   4
BRANCH   6   7
ATOM      7  O   UNL     1      52.421  19.066  16.824  0.00  0.00    -0.487 OA
ATOM      8  H   UNL     1      52.031  18.709  16.016  0.00  0.00    +0.385 HD
ENDBRANCH   6   7
ENDBRANCH  11  10
BRANCH  30  31
ATOM     31  O   UNL     1      45.317  24.312  21.427  0.00  0.00    -0.494 OA
ATOM     32  H   UNL     1      46.067  24.912  21.312  0.00  0.00    +0.401 HD
ENDBRANCH  30  31
BRANCH  34  35
ATOM     35  O   UNL     1      43.588  20.800  18.735  0.00  0.00    -0.482 OA
ATOM     36  H   UNL     1      43.881  20.320  17.947  0.00  0.00    +0.403 HD
ENDBRANCH  34  35
BRANCH  12  13
ATOM     13  O   UNL     1      47.666  17.869  17.884  0.00  0.00    -0.288 OA
BRANCH  13  14
ATOM     14  C   UNL     1      47.076  16.594  18.146  0.00  0.00    +0.181 C 
ATOM     15  C   UNL     1      47.844  15.900  19.273  0.00  0.00    +0.040 C 
ATOM     16  C   UNL     1      47.213  14.534  19.553  0.00  0.00    +0.006 C 
ATOM     17  C   UNL     1      47.275  13.674  18.290  0.00  0.00    +0.139 C 
ATOM     20  C   UNL     1      46.507  14.369  17.162  0.00  0.00    +0.157 C 
ATOM     23  C   UNL     1      47.138  15.734  16.882  0.00  0.00    +0.187 C 
BRANCH  17  18
ATOM     18  O   UNL     1      46.685  12.399  18.552  0.00  0.00    -0.567 OA
ATOM     19  H   UNL     1      45.850  12.445  19.039  0.00  0.00    +0.386 HD
ENDBRANCH  17  18
BRANCH  20  21
ATOM     21  O   UNL     1      46.564  13.565  15.983  0.00  0.00    -0.561 OA
ATOM     22  H   UNL     1      46.020  12.767  16.023  0.00  0.00    +0.392 HD
ENDBRANCH  20  21
BRANCH  23  24
ATOM     24  O   UNL     1      46.421  16.383  15.829  0.00  0.00    -0.543 OA
ATOM     25  H   UNL     1      45.530  16.035  15.688  0.00  0.00    +0.385 HD
ENDBRANCH  23  24
ENDBRANCH  13  14
ENDBRANCH  12  13
TORSDOF 10
ENDMDL
MODEL 2
REMARK VINA RESULT:      -6.5      2.047      2.812
REMARK  Name = ZINC95486355
REMARK  10 active torsions:
REMARK  status: ('A' for Active; 'I' for Inactive)
REMARK    1  A    between atoms: C3_3  and  O9_35
REMARK    2  A    between atoms: C4_4  and  O8_34
REMARK    3  A    between atoms: C6_6  and  C7_7
REMARK    4  A    between atoms: C8_8  and  O4_20
REMARK    5  A    between atoms: C13_14  and  O3_18
REMARK    6  A    between atoms: C15_16  and  O2_17
REMARK    7  A    between atoms: O4_20  and  C17_21
REMARK    8  A    between atoms: C20_25  and  O7_33
REMARK    9  A    between atoms: C21_27  and  O6_32
REMARK   10  A    between atoms: C22_29  and  O5_31
REMARK                            x       y       z     vdW  Elec       q    Type
REMARK                         _______ _______ _______ _____ _____    ______ ____
ROOT
ATOM     11  C   UNL     1      47.944  20.407  20.157  0.00  0.00    -0.029 C 
ATOM     12  C   UNL     1      47.598  19.123  20.375  0.00  0.00    +0.012 C 
ATOM     26  C   UNL     1      46.189  18.778  20.612  0.00  0.00    +0.414 C 
ATOM     27  C   UNL     1      45.164  19.774  20.241  0.00  0.00    -0.201 A 
ATOM     28  C   UNL     1      45.546  21.098  20.012  0.00  0.00    -0.001 A 
ATOM     29  C   UNL     1      44.595  22.017  19.653  0.00  0.00    -0.023 A 
ATOM     30  C   UNL     1      43.261  21.643  19.524  0.00  0.00    +0.165 A 
ATOM     33  C   UNL     1      42.873  20.331  19.758  0.00  0.00    -0.045 A 
ATOM     34  C   UNL     1      43.822  19.389  20.119  0.00  0.00    +0.192 A 
ATOM     37  O   UNL     1      45.877  17.706  21.100  0.00  0.00    -0.425 OA
ATOM     38  C   UNL     1      46.972  21.542  20.168  0.00  0.00    +0.182 C 
ENDROOT
BRANCH  11  10
ATOM      1  C   UNL     1      50.260  20.814  20.964  0.00  0.00    +0.058 A 
ATOM      2  C   UNL     1      51.586  21.095  20.718  0.00  0.00    +0.003 A 
ATOM      3  C   UNL     1      52.032  21.273  19.417  0.00  0.00    +0.088 A 
ATOM      6  C   UNL     1      51.141  21.169  18.350  0.00  0.00    +0.078 A 
ATOM      9  C   UNL     1      49.810  20.888  18.586  0.00  0.00    +0.036 A 
ATOM     10  C   UNL     1      49.359  20.708  19.899  0.00  0.00    -0.039 A 
BRANCH   3   4
ATOM      4  O   UNL     1      53.342  21.550  19.181  0.00  0.00    -0.489 OA
ATOM      5  H   UNL     1      53.909  21.454  19.958  0.00  0.00    +0.387 HD
ENDBRANCH   3   4
BRANCH   6   7
ATOM      7  O   UNL     1      51.583  21.344  17.075  0.00  0.00    -0.487 OA
ATOM      8  H   UNL     1      50.898  21.635  16.458  0.00  0.00    +0.385 HD
ENDBRANCH   6   7
ENDBRANCH  11  10
BRANCH  30  31
ATOM     31  O   UNL     1      42.333  22.567  19.167  0.00  0.00    -0.494 OA
ATOM     32  H   UNL     1      41.428  22.332  19.415  0.00  0.00    +0.401 HD
ENDBRANCH  30  31
BRANCH  34  35
ATOM     35  O   UNL     1      43.455  18.105  20.352  0.00  0.00    -0.482 OA
ATOM     36  H   UNL     1      43.062  17.662  19.586  0.00  0.00    +0.403 HD
ENDBRANCH  34  35
BRANCH  12  13
ATOM     13  O   UNL     1      48.548  18.151  20.375  0.00  0.00    -0.288 OA
BRANCH  13  14
ATOM     14  C   UNL     1      48.652  17.347  19.198  0.00  0.00    +0.181 C 
ATOM     15  C   UNL     1      47.711  17.894  18.122  0.00  0.00    +0.040 C 
ATOM     16  C   UNL     1      47.823  17.033  16.862  0.00  0.00    +0.006 C 
ATOM     17  C   UNL     1      47.435  15.591  17.193  0.00  0.00    +0.139 C 
ATOM     20  C   UNL     1      48.376  15.044  18.269  0.00  0.00    +0.157 C 
ATOM     23  C   UNL     1      48.264  15.905  19.529  0.00  0.00    +0.187 C 
BRANCH  17  18
ATOM     18  O   UNL     1      47.540  14.788  16.016  0.00  0.00    -0.567 OA
ATOM     19  H   UNL     1      47.132  13.914  16.098  0.00  0.00    +0.386 HD
ENDBRANCH  17  18
BRANCH  20  21
ATOM     21  O   UNL     1      48.014  13.697  18.578  0.00  0.00    -0.561 OA
ATOM     22  H   UNL     1      47.256  13.368  18.076  0.00  0.00    +0.392 HD
ENDBRANCH  20  21
BRANCH  23  24
ATOM     24  O   UNL     1      49.143  15.394  20.534  0.00  0.00    -0.543 OA
ATOM     25  H   UNL     1      48.773  14.660  21.044  0.00  0.00    +0.385 HD
ENDBRANCH  23  24
ENDBRANCH  13  14
ENDBRANCH  12  13
TORSDOF 10
ENDMDL
MODEL 3
REMARK VINA RESULT:      -6.5      2.048      6.521
REMARK  Name = ZINC95486355
REMARK  10 active torsions:
REMARK  status: ('A' for Active; 'I' for Inactive)
REMARK    1  A    between atoms: C3_3  and  O9_35
REMARK    2  A    between atoms: C4_4  and  O8_34
REMARK    3  A    between atoms: C6_6  and  C7_7
REMARK    4  A    between atoms: C8_8  and  O4_20
REMARK    5  A    between atoms: C13_14  and  O3_18
REMARK    6  A    between atoms: C15_16  and  O2_17
REMARK    7  A    between atoms: O4_20  and  C17_21
REMARK    8  A    between atoms: C20_25  and  O7_33
REMARK    9  A    between atoms: C21_27  and  O6_32
REMARK   10  A    between atoms: C22_29  and  O5_31
REMARK                            x       y       z     vdW  Elec       q    Type
REMARK                         _______ _______ _______ _____ _____    ______ ____
ROOT
ATOM     11  C   UNL     1      48.835  17.997  18.499  0.00  0.00    -0.029 C 
ATOM     12  C   UNL     1      47.687  18.007  19.205  0.00  0.00    +0.012 C 
ATOM     26  C   UNL     1      46.676  16.966  18.969  0.00  0.00    +0.414 C 
ATOM     27  C   UNL     1      47.097  15.749  18.247  0.00  0.00    -0.201 A 
ATOM     28  C   UNL     1      48.294  15.757  17.527  0.00  0.00    -0.001 A 
ATOM     29  C   UNL     1      48.690  14.621  16.871  0.00  0.00    -0.023 A 
ATOM     30  C   UNL     1      47.908  13.472  16.911  0.00  0.00    +0.165 A 
ATOM     33  C   UNL     1      46.713  13.457  17.616  0.00  0.00    -0.045 A 
ATOM     34  C   UNL     1      46.300  14.596  18.288  0.00  0.00    +0.192 A 
ATOM     37  O   UNL     1      45.529  17.104  19.355  0.00  0.00    -0.425 OA
ATOM     38  C   UNL     1      49.149  16.989  17.442  0.00  0.00    +0.182 C 
ENDROOT
BRANCH  11  10
ATOM      1  C   UNL     1      49.879  20.196  17.997  0.00  0.00    +0.058 A 
ATOM      2  C   UNL     1      50.813  21.172  18.267  0.00  0.00    +0.003 A 
ATOM      3  C   UNL     1      51.707  21.012  19.316  0.00  0.00    +0.088 A 
ATOM      6  C   UNL     1      51.665  19.862  20.103  0.00  0.00    +0.078 A 
ATOM      9  C   UNL     1      50.733  18.879  19.841  0.00  0.00    +0.036 A 
ATOM     10  C   UNL     1      49.830  19.039  18.782  0.00  0.00    -0.039 A 
BRANCH   3   4
ATOM      4  O   UNL     1      52.626  21.978  19.577  0.00  0.00    -0.489 OA
ATOM      5  H   UNL     1      53.542  21.680  19.498  0.00  0.00    +0.387 HD
ENDBRANCH   3   4
BRANCH   6   7
ATOM      7  O   UNL     1      52.544  19.710  21.130  0.00  0.00    -0.487 OA
ATOM      8  H   UNL     1      52.294  20.183  21.935  0.00  0.00    +0.385 HD
ENDBRANCH   6   7
ENDBRANCH  11  10
BRANCH  30  31
ATOM     31  O   UNL     1      48.317  12.356  16.255  0.00  0.00    -0.494 OA
ATOM     32  H   UNL     1      48.648  11.657  16.836  0.00  0.00    +0.401 HD
ENDBRANCH  30  31
BRANCH  34  35
ATOM     35  O   UNL     1      45.134  14.596  18.979  0.00  0.00    -0.482 OA
ATOM     36  H   UNL     1      44.941  13.759  19.425  0.00  0.00    +0.403 HD
ENDBRANCH  34  35
BRANCH  12  13
ATOM     13  O   UNL     1      47.465  18.975  20.133  0.00  0.00    -0.288 OA
BRANCH  13  14
ATOM     14  C   UNL     1      46.271  19.747  19.991  0.00  0.00    +0.181 C 
ATOM     15  C   UNL     1      46.607  21.089  19.336  0.00  0.00    +0.040 C 
ATOM     16  C   UNL     1      45.328  21.916  19.184  0.00  0.00    +0.006 C 
ATOM     17  C   UNL     1      44.712  22.161  20.563  0.00  0.00    +0.139 C 
ATOM     20  C   UNL     1      44.376  20.819  21.217  0.00  0.00    +0.157 C 
ATOM     23  C   UNL     1      45.655  19.993  21.369  0.00  0.00    +0.187 C 
BRANCH  17  18
ATOM     18  O   UNL     1      43.518  22.934  20.420  0.00  0.00    -0.567 OA
ATOM     19  H   UNL     1      42.782  22.450  20.019  0.00  0.00    +0.386 HD
ENDBRANCH  17  18
BRANCH  20  21
ATOM     21  O   UNL     1      43.800  21.048  22.504  0.00  0.00    -0.561 OA
ATOM     22  H   UNL     1      43.402  20.263  22.903  0.00  0.00    +0.392 HD
ENDBRANCH  20  21
BRANCH  23  24
ATOM     24  O   UNL     1      45.341  18.739  21.981  0.00  0.00    -0.543 OA
ATOM     25  H   UNL     1      44.392  18.560  22.046  0.00  0.00    +0.385 HD
ENDBRANCH  23  24
ENDBRANCH  13  14
ENDBRANCH  12  13
TORSDOF 10
ENDMDL
MODEL 4
REMARK VINA RESULT:      -6.4      2.344      7.558
REMARK  Name = ZINC95486355
REMARK  10 active torsions:
REMARK  status: ('A' for Active; 'I' for Inactive)
REMARK    1  A    between atoms: C3_3  and  O9_35
REMARK    2  A    between atoms: C4_4  and  O8_34
REMARK    3  A    between atoms: C6_6  and  C7_7
REMARK    4  A    between atoms: C8_8  and  O4_20
REMARK    5  A    between atoms: C13_14  and  O3_18
REMARK    6  A    between atoms: C15_16  and  O2_17
REMARK    7  A    between atoms: O4_20  and  C17_21
REMARK    8  A    between atoms: C20_25  and  O7_33
REMARK    9  A    between atoms: C21_27  and  O6_32
REMARK   10  A    between atoms: C22_29  and  O5_31
REMARK                            x       y       z     vdW  Elec       q    Type
REMARK                         _______ _______ _______ _____ _____    ______ ____
ROOT
ATOM     11  C   UNL     1      46.931  18.785  19.457  0.00  0.00    -0.029 C 
ATOM     12  C   UNL     1      48.215  18.973  19.092  0.00  0.00    +0.012 C 
ATOM     26  C   UNL     1      48.992  17.847  18.554  0.00  0.00    +0.414 C 
ATOM     27  C   UNL     1      48.250  16.659  18.087  0.00  0.00    -0.201 A 
ATOM     28  C   UNL     1      46.917  16.488  18.470  0.00  0.00    -0.001 A 
ATOM     29  C   UNL     1      46.227  15.392  18.023  0.00  0.00    -0.023 A 
ATOM     30  C   UNL     1      46.843  14.453  17.202  0.00  0.00    +0.165 A 
ATOM     33  C   UNL     1      48.169  14.612  16.824  0.00  0.00    -0.045 A 
ATOM     34  C   UNL     1      48.880  15.715  17.264  0.00  0.00    +0.192 A 
ATOM     37  O   UNL     1      50.208  17.893  18.496  0.00  0.00    -0.425 OA
ATOM     38  C   UNL     1      46.230  17.468  19.377  0.00  0.00    +0.182 C 
ENDROOT
BRANCH  11  10
ATOM      1  C   UNL     1      45.858  20.025  21.325  0.00  0.00    +0.058 A 
ATOM      2  C   UNL     1      45.155  21.110  21.800  0.00  0.00    +0.003 A 
ATOM      3  C   UNL     1      44.766  22.123  20.935  0.00  0.00    +0.088 A 
ATOM      6  C   UNL     1      45.082  22.046  19.579  0.00  0.00    +0.078 A 
ATOM      9  C   UNL     1      45.786  20.962  19.094  0.00  0.00    +0.036 A 
ATOM     10  C   UNL     1      46.180  19.940  19.967  0.00  0.00    -0.039 A 
BRANCH   3   4
ATOM      4  O   UNL     1      44.073  23.191  21.409  0.00  0.00    -0.489 OA
ATOM      5  H   UNL     1      43.182  22.975  21.717  0.00  0.00    +0.387 HD
ENDBRANCH   3   4
BRANCH   6   7
ATOM      7  O   UNL     1      44.698  23.040  18.734  0.00  0.00    -0.487 OA
ATOM      8  H   UNL     1      45.009  23.918  18.992  0.00  0.00    +0.385 HD
ENDBRANCH   6   7
ENDBRANCH  11  10
BRANCH  30  31
ATOM     31  O   UNL     1      46.143  13.375  16.768  0.00  0.00    -0.494 OA
ATOM     32  H   UNL     1      45.730  13.497  15.902  0.00  0.00    +0.401 HD
ENDBRANCH  30  31
BRANCH  34  35
ATOM     35  O   UNL     1      50.177  15.881  16.903  0.00  0.00    -0.482 OA
ATOM     36  H   UNL     1      50.623  15.060  16.651  0.00  0.00    +0.403 HD
ENDBRANCH  34  35
BRANCH  12  13
ATOM     13  O   UNL     1      48.788  20.198  19.221  0.00  0.00    -0.288 OA
BRANCH  13  14
ATOM     14  C   UNL     1      49.930  20.293  20.076  0.00  0.00    +0.181 C 
ATOM     15  C   UNL     1      49.519  20.929  21.406  0.00  0.00    +0.040 C 
ATOM     16  C   UNL     1      50.742  21.030  22.320  0.00  0.00    +0.006 C 
ATOM     17  C   UNL     1      51.810  21.895  21.650  0.00  0.00    +0.139 C 
ATOM     20  C   UNL     1      52.221  21.259  20.320  0.00  0.00    +0.157 C 
ATOM     23  C   UNL     1      50.999  21.157  19.405  0.00  0.00    +0.187 C 
BRANCH  17  18
ATOM     18  O   UNL     1      52.952  21.989  22.505  0.00  0.00    -0.567 OA
ATOM     19  H   UNL     1      53.429  22.828  22.434  0.00  0.00    +0.386 HD
ENDBRANCH  17  18
BRANCH  20  21
ATOM     21  O   UNL     1      53.220  22.066  19.695  0.00  0.00    -0.561 OA
ATOM     22  H   UNL     1      53.893  21.561  19.218  0.00  0.00    +0.392 HD
ENDBRANCH  20  21
BRANCH  23  24
ATOM     24  O   UNL     1      51.383  20.563  18.163  0.00  0.00    -0.543 OA
ATOM     25  H   UNL     1      50.887  19.763  17.941  0.00  0.00    +0.385 HD
ENDBRANCH  23  24
ENDBRANCH  13  14
ENDBRANCH  12  13
TORSDOF 10
ENDMDL
MODEL 5
REMARK VINA RESULT:      -6.2      2.624      5.954
REMARK  Name = ZINC95486355
REMARK  10 active torsions:
REMARK  status: ('A' for Active; 'I' for Inactive)
REMARK    1  A    between atoms: C3_3  and  O9_35
REMARK    2  A    between atoms: C4_4  and  O8_34
REMARK    3  A    between atoms: C6_6  and  C7_7
REMARK    4  A    between atoms: C8_8  and  O4_20
REMARK    5  A    between atoms: C13_14  and  O3_18
REMARK    6  A    between atoms: C15_16  and  O2_17
REMARK    7  A    between atoms: O4_20  and  C17_21
REMARK    8  A    between atoms: C20_25  and  O7_33
REMARK    9  A    between atoms: C21_27  and  O6_32
REMARK   10  A    between atoms: C22_29  and  O5_31
REMARK                            x       y       z     vdW  Elec       q    Type
REMARK                         _______ _______ _______ _____ _____    ______ ____
ROOT
ATOM     11  C   UNL     1      44.564  18.641  19.990  0.00  0.00    -0.029 C 
ATOM     12  C   UNL     1      45.432  19.593  20.385  0.00  0.00    +0.012 C 
ATOM     26  C   UNL     1      45.197  20.995  20.009  0.00  0.00    +0.414 C 
ATOM     27  C   UNL     1      43.847  21.364  19.539  0.00  0.00    -0.201 A 
ATOM     28  C   UNL     1      42.960  20.361  19.142  0.00  0.00    -0.001 A 
ATOM     29  C   UNL     1      41.703  20.706  18.721  0.00  0.00    -0.023 A 
ATOM     30  C   UNL     1      41.311  22.040  18.680  0.00  0.00    +0.165 A 
ATOM     33  C   UNL     1      42.189  23.043  19.064  0.00  0.00    -0.045 A 
ATOM     34  C   UNL     1      43.463  22.712  19.495  0.00  0.00    +0.192 A 
ATOM     37  O   UNL     1      46.087  21.823  20.082  0.00  0.00    -0.425 OA
ATOM     38  C   UNL     1      43.359  18.913  19.150  0.00  0.00    +0.182 C 
ENDROOT
BRANCH  11  10
ATOM      1  C   UNL     1      44.462  16.831  21.692  0.00  0.00    +0.058 A 
ATOM      2  C   UNL     1      44.703  15.531  22.079  0.00  0.00    +0.003 A 
ATOM      3  C   UNL     1      45.299  14.640  21.199  0.00  0.00    +0.088 A 
ATOM      6  C   UNL     1      45.659  15.054  19.918  0.00  0.00    +0.078 A 
ATOM      9  C   UNL     1      45.422  16.355  19.521  0.00  0.00    +0.036 A 
ATOM     10  C   UNL     1      44.820  17.256  20.408  0.00  0.00    -0.039 A 
BRANCH   3   4
ATOM      4  O   UNL     1      45.534  13.359  21.588  0.00  0.00    -0.489 OA
ATOM      5  H   UNL     1      45.449  13.215  22.540  0.00  0.00    +0.387 HD
ENDBRANCH   3   4
BRANCH   6   7
ATOM      7  O   UNL     1      46.244  14.177  19.059  0.00  0.00    -0.487 OA
ATOM      8  H   UNL     1      45.624  13.744  18.456  0.00  0.00    +0.385 HD
ENDBRANCH   6   7
ENDBRANCH  11  10
BRANCH  30  31
ATOM     31  O   UNL     1      40.061  22.363  18.260  0.00  0.00    -0.494 OA
ATOM     32  H   UNL     1      39.365  21.805  18.634  0.00  0.00    +0.401 HD
ENDBRANCH  30  31
BRANCH  34  35
ATOM     35  O   UNL     1      44.331  23.683  19.872  0.00  0.00    -0.482 OA
ATOM     36  H   UNL     1      44.023  24.581  19.683  0.00  0.00    +0.403 HD
ENDBRANCH  34  35
BRANCH  12  13
ATOM     13  O   UNL     1      46.521  19.259  21.127  0.00  0.00    -0.288 OA
BRANCH  13  14
ATOM     14  C   UNL     1      47.802  19.472  20.531  0.00  0.00    +0.181 C 
ATOM     15  C   UNL     1      48.389  18.127  20.093  0.00  0.00    +0.040 C 
ATOM     16  C   UNL     1      49.760  18.355  19.454  0.00  0.00    +0.006 C 
ATOM     17  C   UNL     1      50.695  19.011  20.472  0.00  0.00    +0.139 C 
ATOM     20  C   UNL     1      50.108  20.355  20.910  0.00  0.00    +0.157 C 
ATOM     23  C   UNL     1      48.736  20.128  21.549  0.00  0.00    +0.187 C 
BRANCH  17  18
ATOM     18  O   UNL     1      51.976  19.223  19.875  0.00  0.00    -0.567 OA
ATOM     19  H   UNL     1      52.275  18.493  19.315  0.00  0.00    +0.386 HD
ENDBRANCH  17  18
BRANCH  20  21
ATOM     21  O   UNL     1      50.981  20.968  21.860  0.00  0.00    -0.561 OA
ATOM     22  H   UNL     1      50.630  20.989  22.762  0.00  0.00    +0.392 HD
ENDBRANCH  20  21
BRANCH  23  24
ATOM     24  O   UNL     1      48.188  21.383  21.958  0.00  0.00    -0.543 OA
ATOM     25  H   UNL     1      48.598  22.149  21.532  0.00  0.00    +0.385 HD
ENDBRANCH  23  24
ENDBRANCH  13  14
ENDBRANCH  12  13
TORSDOF 10
ENDMDL
MODEL 6
REMARK VINA RESULT:      -6.2      2.592      7.905
REMARK  Name = ZINC95486355
REMARK  10 active torsions:
REMARK  status: ('A' for Active; 'I' for Inactive)
REMARK    1  A    between atoms: C3_3  and  O9_35
REMARK    2  A    between atoms: C4_4  and  O8_34
REMARK    3  A    between atoms: C6_6  and  C7_7
REMARK    4  A    between atoms: C8_8  and  O4_20
REMARK    5  A    between atoms: C13_14  and  O3_18
REMARK    6  A    between atoms: C15_16  and  O2_17
REMARK    7  A    between atoms: O4_20  and  C17_21
REMARK    8  A    between atoms: C20_25  and  O7_33
REMARK    9  A    between atoms: C21_27  and  O6_32
REMARK   10  A    between atoms: C22_29  and  O5_31
REMARK                            x       y       z     vdW  Elec       q    Type
REMARK                         _______ _______ _______ _____ _____    ______ ____
ROOT
ATOM     11  C   UNL     1      48.406  15.945  18.192  0.00  0.00    -0.029 C 
ATOM     12  C   UNL     1      49.738  15.958  17.991  0.00  0.00    +0.012 C 
ATOM     26  C   UNL     1      50.369  14.882  17.212  0.00  0.00    +0.414 C 
ATOM     27  C   UNL     1      49.495  14.039  16.372  0.00  0.00    -0.201 A 
ATOM     28  C   UNL     1      48.116  14.046  16.592  0.00  0.00    -0.001 A 
ATOM     29  C   UNL     1      47.307  13.273  15.801  0.00  0.00    -0.023 A 
ATOM     30  C   UNL     1      47.848  12.482  14.793  0.00  0.00    +0.165 A 
ATOM     33  C   UNL     1      49.218  12.462  14.574  0.00  0.00    -0.045 A 
ATOM     34  C   UNL     1      50.050  13.240  15.362  0.00  0.00    +0.192 A 
ATOM     37  O   UNL     1      51.571  14.693  17.258  0.00  0.00    -0.425 OA
ATOM     38  C   UNL     1      47.501  14.869  17.688  0.00  0.00    +0.182 C 
ENDROOT
BRANCH  11  10
ATOM      1  C   UNL     1      47.838  17.035  20.353  0.00  0.00    +0.058 A 
ATOM      2  C   UNL     1      47.281  18.074  21.065  0.00  0.00    +0.003 A 
ATOM      3  C   UNL     1      46.691  19.139  20.399  0.00  0.00    +0.088 A 
ATOM      6  C   UNL     1      46.659  19.163  19.005  0.00  0.00    +0.078 A 
ATOM      9  C   UNL     1      47.215  18.126  18.283  0.00  0.00    +0.036 A 
ATOM     10  C   UNL     1      47.811  17.051  18.954  0.00  0.00    -0.039 A 
BRANCH   3   4
ATOM      4  O   UNL     1      46.143  20.161  21.107  0.00  0.00    -0.489 OA
ATOM      5  H   UNL     1      45.761  19.892  21.953  0.00  0.00    +0.387 HD
ENDBRANCH   3   4
BRANCH   6   7
ATOM      7  O   UNL     1      46.080  20.209  18.357  0.00  0.00    -0.487 OA
ATOM      8  H   UNL     1      46.409  21.074  18.634  0.00  0.00    +0.385 HD
ENDBRANCH   6   7
ENDBRANCH  11  10
BRANCH  30  31
ATOM     31  O   UNL     1      47.031  11.724  14.019  0.00  0.00    -0.494 OA
ATOM     32  H   UNL     1      46.182  11.511  14.433  0.00  0.00    +0.401 HD
ENDBRANCH  30  31
BRANCH  34  35
ATOM     35  O   UNL     1      51.391  13.228  15.159  0.00  0.00    -0.482 OA
ATOM     36  H   UNL     1      51.665  12.736  14.372  0.00  0.00    +0.403 HD
ENDBRANCH  34  35
BRANCH  12  13
ATOM     13  O   UNL     1      50.497  16.961  18.506  0.00  0.00    -0.288 OA
BRANCH  13  14
ATOM     14  C   UNL     1      50.602  18.158  17.731  0.00  0.00    +0.181 C 
ATOM     15  C   UNL     1      51.558  17.922  16.559  0.00  0.00    +0.040 C 
ATOM     16  C   UNL     1      51.671  19.203  15.730  0.00  0.00    +0.006 C 
ATOM     17  C   UNL     1      52.211  20.333  16.607  0.00  0.00    +0.139 C 
ATOM     20  C   UNL     1      51.255  20.569  17.779  0.00  0.00    +0.157 C 
ATOM     23  C   UNL     1      51.141  19.288  18.609  0.00  0.00    +0.187 C 
BRANCH  17  18
ATOM     18  O   UNL     1      52.316  21.529  15.832  0.00  0.00    -0.567 OA
ATOM     19  H   UNL     1      53.216  21.877  15.765  0.00  0.00    +0.386 HD
ENDBRANCH  17  18
BRANCH  20  21
ATOM     21  O   UNL     1      51.758  21.625  18.599  0.00  0.00    -0.561 OA
ATOM     22  H   UNL     1      52.715  21.751  18.536  0.00  0.00    +0.392 HD
ENDBRANCH  20  21
BRANCH  23  24
ATOM     24  O   UNL     1      50.249  19.508  19.704  0.00  0.00    -0.543 OA
ATOM     25  H   UNL     1      50.186  20.433  19.980  0.00  0.00    +0.385 HD
ENDBRANCH  23  24
ENDBRANCH  13  14
ENDBRANCH  12  13
TORSDOF 10
ENDMDL
MODEL 7
REMARK VINA RESULT:      -6.1      2.242      5.089
REMARK  Name = ZINC95486355
REMARK  10 active torsions:
REMARK  status: ('A' for Active; 'I' for Inactive)
REMARK    1  A    between atoms: C3_3  and  O9_35
REMARK    2  A    between atoms: C4_4  and  O8_34
REMARK    3  A    between atoms: C6_6  and  C7_7
REMARK    4  A    between atoms: C8_8  and  O4_20
REMARK    5  A    between atoms: C13_14  and  O3_18
REMARK    6  A    between atoms: C15_16  and  O2_17
REMARK    7  A    between atoms: O4_20  and  C17_21
REMARK    8  A    between atoms: C20_25  and  O7_33
REMARK    9  A    between atoms: C21_27  and  O6_32
REMARK   10  A    between atoms: C22_29  and  O5_31
REMARK                            x       y       z     vdW  Elec       q    Type
REMARK                         _______ _______ _______ _____ _____    ______ ____
ROOT
ATOM     11  C   UNL     1      46.485  17.559  19.797  0.00  0.00    -0.029 C 
ATOM     12  C   UNL     1      47.194  18.668  19.508  0.00  0.00    +0.012 C 
ATOM     26  C   UNL     1      46.496  19.887  19.074  0.00  0.00    +0.414 C 
ATOM     27  C   UNL     1      45.044  19.975  19.325  0.00  0.00    -0.201 A 
ATOM     28  C   UNL     1      44.329  18.814  19.632  0.00  0.00    -0.001 A 
ATOM     29  C   UNL     1      42.984  18.901  19.879  0.00  0.00    -0.023 A 
ATOM     30  C   UNL     1      42.331  20.127  19.818  0.00  0.00    +0.165 A 
ATOM     33  C   UNL     1      43.031  21.283  19.505  0.00  0.00    -0.045 A 
ATOM     34  C   UNL     1      44.392  21.214  19.256  0.00  0.00    +0.192 A 
ATOM     37  O   UNL     1      47.096  20.794  18.526  0.00  0.00    -0.425 OA
ATOM     38  C   UNL     1      44.998  17.470  19.680  0.00  0.00    +0.182 C 
ENDROOT
BRANCH  11  10
ATOM      1  C   UNL     1      47.586  16.241  21.594  0.00  0.00    +0.058 A 
ATOM      2  C   UNL     1      48.272  15.123  22.017  0.00  0.00    +0.003 A 
ATOM      3  C   UNL     1      48.596  14.121  21.114  0.00  0.00    +0.088 A 
ATOM      6  C   UNL     1      48.232  14.240  19.773  0.00  0.00    +0.078 A 
ATOM      9  C   UNL     1      47.545  15.357  19.341  0.00  0.00    +0.036 A 
ATOM     10  C   UNL     1      47.217  16.369  20.251  0.00  0.00    -0.039 A 
BRANCH   3   4
ATOM      4  O   UNL     1      49.273  13.021  21.537  0.00  0.00    -0.489 OA
ATOM      5  H   UNL     1      49.012  12.713  22.416  0.00  0.00    +0.387 HD
ENDBRANCH   3   4
BRANCH   6   7
ATOM      7  O   UNL     1      48.553  13.256  18.892  0.00  0.00    -0.487 OA
ATOM      8  H   UNL     1      48.268  12.374  19.166  0.00  0.00    +0.385 HD
ENDBRANCH   6   7
ENDBRANCH  11  10
BRANCH  30  31
ATOM     31  O   UNL     1      40.998  20.194  20.066  0.00  0.00    -0.494 OA
ATOM     32  H   UNL     1      40.589  19.337  20.251  0.00  0.00    +0.401 HD
ENDBRANCH  30  31
BRANCH  34  35
ATOM     35  O   UNL     1      45.089  22.336  18.948  0.00  0.00    -0.482 OA
ATOM     36  H   UNL     1      45.862  22.178  18.388  0.00  0.00    +0.403 HD
ENDBRANCH  34  35
BRANCH  12  13
ATOM     13  O   UNL     1      48.549  18.659  19.615  0.00  0.00    -0.288 OA
BRANCH  13  14
ATOM     14  C   UNL     1      49.295  18.902  18.421  0.00  0.00    +0.181 C 
ATOM     15  C   UNL     1      49.934  17.594  17.945  0.00  0.00    +0.040 C 
ATOM     16  C   UNL     1      50.734  17.854  16.667  0.00  0.00    +0.006 C 
ATOM     17  C   UNL     1      51.829  18.883  16.950  0.00  0.00    +0.139 C 
ATOM     20  C   UNL     1      51.190  20.190  17.426  0.00  0.00    +0.157 C 
ATOM     23  C   UNL     1      50.391  19.930  18.704  0.00  0.00    +0.187 C 
BRANCH  17  18
ATOM     18  O   UNL     1      52.576  19.125  15.755  0.00  0.00    -0.567 OA
ATOM     19  H   UNL     1      52.556  18.393  15.124  0.00  0.00    +0.386 HD
ENDBRANCH  17  18
BRANCH  20  21
ATOM     21  O   UNL     1      52.214  21.152  17.690  0.00  0.00    -0.561 OA
ATOM     22  H   UNL     1      52.063  21.679  18.486  0.00  0.00    +0.392 HD
ENDBRANCH  20  21
BRANCH  23  24
ATOM     24  O   UNL     1      49.794  21.151  19.148  0.00  0.00    -0.543 OA
ATOM     25  H   UNL     1      49.444  21.113  20.048  0.00  0.00    +0.385 HD
ENDBRANCH  23  24
ENDBRANCH  13  14
ENDBRANCH  12  13
TORSDOF 10
ENDMDL
MODEL 8
REMARK VINA RESULT:      -6.1      1.729      5.173
REMARK  Name = ZINC95486355
REMARK  10 active torsions:
REMARK  status: ('A' for Active; 'I' for Inactive)
REMARK    1  A    between atoms: C3_3  and  O9_35
REMARK    2  A    between atoms: C4_4  and  O8_34
REMARK    3  A    between atoms: C6_6  and  C7_7
REMARK    4  A    between atoms: C8_8  and  O4_20
REMARK    5  A    between atoms: C13_14  and  O3_18
REMARK    6  A    between atoms: C15_16  and  O2_17
REMARK    7  A    between atoms: O4_20  and  C17_21
REMARK    8  A    between atoms: C20_25  and  O7_33
REMARK    9  A    between atoms: C21_27  and  O6_32
REMARK   10  A    between atoms: C22_29  and  O5_31
REMARK                            x       y       z     vdW  Elec       q    Type
REMARK                         _______ _______ _______ _____ _____    ______ ____
ROOT
ATOM     11  C   UNL     1      46.389  18.109  18.948  0.00  0.00    -0.029 C 
ATOM     12  C   UNL     1      47.433  18.461  19.724  0.00  0.00    +0.012 C 
ATOM     26  C   UNL     1      47.567  19.852  20.180  0.00  0.00    +0.414 C 
ATOM     27  C   UNL     1      46.378  20.723  20.089  0.00  0.00    -0.201 A 
ATOM     28  C   UNL     1      45.303  20.336  19.285  0.00  0.00    -0.001 A 
ATOM     29  C   UNL     1      44.195  21.139  19.215  0.00  0.00    -0.023 A 
ATOM     30  C   UNL     1      44.139  22.332  19.928  0.00  0.00    +0.165 A 
ATOM     33  C   UNL     1      45.206  22.729  20.721  0.00  0.00    -0.045 A 
ATOM     34  C   UNL     1      46.332  21.927  20.806  0.00  0.00    +0.192 A 
ATOM     37  O   UNL     1      48.623  20.272  20.617  0.00  0.00    -0.425 OA
ATOM     38  C   UNL     1      45.341  19.067  18.483  0.00  0.00    +0.182 C 
ENDROOT
BRANCH  11  10
ATOM      1  C   UNL     1      45.762  15.750  19.418  0.00  0.00    +0.058 A 
ATOM      2  C   UNL     1      45.657  14.433  19.027  0.00  0.00    +0.003 A 
ATOM      3  C   UNL     1      46.062  14.049  17.756  0.00  0.00    +0.088 A 
ATOM      6  C   UNL     1      46.577  14.993  16.869  0.00  0.00    +0.078 A 
ATOM      9  C   UNL     1      46.686  16.315  17.253  0.00  0.00    +0.036 A 
ATOM     10  C   UNL     1      46.278  16.704  18.534  0.00  0.00    -0.039 A 
BRANCH   3   4
ATOM      4  O   UNL     1      45.956  12.749  17.376  0.00  0.00    -0.489 OA
ATOM      5  H   UNL     1      45.616  12.629  16.479  0.00  0.00    +0.387 HD
ENDBRANCH   3   4
BRANCH   6   7
ATOM      7  O   UNL     1      46.973  14.612  15.625  0.00  0.00    -0.487 OA
ATOM      8  H   UNL     1      46.639  13.746  15.354  0.00  0.00    +0.385 HD
ENDBRANCH   6   7
ENDBRANCH  11  10
BRANCH  30  31
ATOM     31  O   UNL     1      43.033  23.114  19.846  0.00  0.00    -0.494 OA
ATOM     32  H   UNL     1      42.301  22.821  20.407  0.00  0.00    +0.401 HD
ENDBRANCH  30  31
BRANCH  34  35
ATOM     35  O   UNL     1      47.382  22.304  21.577  0.00  0.00    -0.482 OA
ATOM     36  H   UNL     1      47.997  22.907  21.135  0.00  0.00    +0.403 HD
ENDBRANCH  34  35
BRANCH  12  13
ATOM     13  O   UNL     1      48.360  17.534  20.083  0.00  0.00    -0.288 OA
BRANCH  13  14
ATOM     14  C   UNL     1      49.696  17.739  19.619  0.00  0.00    +0.181 C 
ATOM     15  C   UNL     1      49.990  16.771  18.470  0.00  0.00    +0.040 C 
ATOM     16  C   UNL     1      51.420  16.990  17.973  0.00  0.00    +0.006 C 
ATOM     17  C   UNL     1      52.403  16.736  19.118  0.00  0.00    +0.139 C 
ATOM     20  C   UNL     1      52.109  17.704  20.266  0.00  0.00    +0.157 C 
ATOM     23  C   UNL     1      50.678  17.485  20.763  0.00  0.00    +0.187 C 
BRANCH  17  18
ATOM     18  O   UNL     1      53.739  16.941  18.653  0.00  0.00    -0.567 OA
ATOM     19  H   UNL     1      53.802  17.120  17.704  0.00  0.00    +0.386 HD
ENDBRANCH  17  18
BRANCH  20  21
ATOM     21  O   UNL     1      53.027  17.467  21.335  0.00  0.00    -0.561 OA
ATOM     22  H   UNL     1      53.033  16.555  21.654  0.00  0.00    +0.392 HD
ENDBRANCH  20  21
BRANCH  23  24
ATOM     24  O   UNL     1      50.404  18.389  21.836  0.00  0.00    -0.543 OA
ATOM     25  H   UNL     1      50.100  17.957  22.646  0.00  0.00    +0.385 HD
ENDBRANCH  23  24
ENDBRANCH  13  14
ENDBRANCH  12  13
TORSDOF 10
ENDMDL
MODEL 9
REMARK VINA RESULT:      -6.0      2.293      7.604
REMARK  Name = ZINC95486355
REMARK  10 active torsions:
REMARK  status: ('A' for Active; 'I' for Inactive)
REMARK    1  A    between atoms: C3_3  and  O9_35
REMARK    2  A    between atoms: C4_4  and  O8_34
REMARK    3  A    between atoms: C6_6  and  C7_7
REMARK    4  A    between atoms: C8_8  and  O4_20
REMARK    5  A    between atoms: C13_14  and  O3_18
REMARK    6  A    between atoms: C15_16  and  O2_17
REMARK    7  A    between atoms: O4_20  and  C17_21
REMARK    8  A    between atoms: C20_25  and  O7_33
REMARK    9  A    between atoms: C21_27  and  O6_32
REMARK   10  A    between atoms: C22_29  and  O5_31
REMARK                            x       y       z     vdW  Elec       q    Type
REMARK                         _______ _______ _______ _____ _____    ______ ____
ROOT
ATOM     11  C   UNL     1      46.533  18.330  19.498  0.00  0.00    -0.029 C 
ATOM     12  C   UNL     1      47.745  18.146  20.058  0.00  0.00    +0.012 C 
ATOM     26  C   UNL     1      48.510  16.928  19.756  0.00  0.00    +0.414 C 
ATOM     27  C   UNL     1      48.104  16.134  18.580  0.00  0.00    -0.201 A 
ATOM     28  C   UNL     1      46.846  16.346  18.009  0.00  0.00    -0.001 A 
ATOM     29  C   UNL     1      46.479  15.618  16.909  0.00  0.00    -0.023 A 
ATOM     30  C   UNL     1      47.340  14.671  16.365  0.00  0.00    +0.165 A 
ATOM     33  C   UNL     1      48.588  14.448  16.931  0.00  0.00    -0.045 A 
ATOM     34  C   UNL     1      48.976  15.178  18.042  0.00  0.00    +0.192 A 
ATOM     37  O   UNL     1      49.448  16.586  20.454  0.00  0.00    -0.425 OA
ATOM     38  C   UNL     1      45.881  17.342  18.586  0.00  0.00    +0.182 C 
ENDROOT
BRANCH  11  10
ATOM      1  C   UNL     1      45.859  20.651  18.915  0.00  0.00    +0.058 A 
ATOM      2  C   UNL     1      45.179  21.814  19.206  0.00  0.00    +0.003 A 
ATOM      3  C   UNL     1      44.444  21.918  20.378  0.00  0.00    +0.088 A 
ATOM      6  C   UNL     1      44.390  20.848  21.269  0.00  0.00    +0.078 A 
ATOM      9  C   UNL     1      45.068  19.679  20.987  0.00  0.00    +0.036 A 
ATOM     10  C   UNL     1      45.810  19.572  19.805  0.00  0.00    -0.039 A 
BRANCH   3   4
ATOM      4  O   UNL     1      43.775  23.068  20.658  0.00  0.00    -0.489 OA
ATOM      5  H   UNL     1      43.888  23.760  19.992  0.00  0.00    +0.387 HD
ENDBRANCH   3   4
BRANCH   6   7
ATOM      7  O   UNL     1      43.669  20.955  22.417  0.00  0.00    -0.487 OA
ATOM      8  H   UNL     1      43.427  21.862  22.647  0.00  0.00    +0.385 HD
ENDBRANCH   6   7
ENDBRANCH  11  10
BRANCH  30  31
ATOM     31  O   UNL     1      46.959  13.960  15.274  0.00  0.00    -0.494 OA
ATOM     32  H   UNL     1      46.380  13.210  15.475  0.00  0.00    +0.401 HD
ENDBRANCH  30  31
BRANCH  34  35
ATOM     35  O   UNL     1      50.192  14.968  18.606  0.00  0.00    -0.482 OA
ATOM     36  H   UNL     1      50.688  14.237  18.211  0.00  0.00    +0.403 HD
ENDBRANCH  34  35
BRANCH  12  13
ATOM     13  O   UNL     1      48.257  19.083  20.899  0.00  0.00    -0.288 OA
BRANCH  13  14
ATOM     14  C   UNL     1      49.216  19.990  20.352  0.00  0.00    +0.181 C 
ATOM     15  C   UNL     1      49.467  19.641  18.883  0.00  0.00    +0.040 C 
ATOM     16  C   UNL     1      50.495  20.612  18.297  0.00  0.00    +0.006 C 
ATOM     17  C   UNL     1      51.805  20.500  19.078  0.00  0.00    +0.139 C 
ATOM     20  C   UNL     1      51.554  20.849  20.547  0.00  0.00    +0.157 C 
ATOM     23  C   UNL     1      50.527  19.879  21.133  0.00  0.00    +0.187 C 
BRANCH  17  18
ATOM     18  O   UNL     1      52.764  21.408  18.531  0.00  0.00    -0.567 OA
ATOM     19  H   UNL     1      52.606  22.334  18.761  0.00  0.00    +0.386 HD
ENDBRANCH  17  18
BRANCH  20  21
ATOM     21  O   UNL     1      52.778  20.746  21.277  0.00  0.00    -0.561 OA
ATOM     22  H   UNL     1      52.740  21.124  22.166  0.00  0.00    +0.392 HD
ENDBRANCH  20  21
BRANCH  23  24
ATOM     24  O   UNL     1      50.293  20.205  22.505  0.00  0.00    -0.543 OA
ATOM     25  H   UNL     1      50.537  21.110  22.741  0.00  0.00    +0.385 HD
ENDBRANCH  23  24
ENDBRANCH  13  14
ENDBRANCH  12  13
TORSDOF 10
ENDMDL
