MODEL 1
REMARK VINA RESULT:      -7.7      0.000      0.000
REMARK  Name = ZINC95486223
REMARK  0 active torsions:
REMARK  status: ('A' for Active; 'I' for Inactive)
REMARK                            x       y       z     vdW  Elec       q    Type
REMARK                         _______ _______ _______ _____ _____    ______ ____
ROOT
ATOM      1  C   UNL     1      47.099  16.018  21.313  0.00  0.00    +0.005 C 
ATOM      2  C   UNL     1      46.039  16.610  22.244  0.00  0.00    +0.010 C 
ATOM      3  C   UNL     1      44.645  16.327  21.683  0.00  0.00    +0.011 C 
ATOM      4  C   UNL     1      43.636  17.300  22.297  0.00  0.00    +0.059 C 
ATOM      5  C   UNL     1      42.802  17.940  21.185  0.00  0.00    +0.154 C 
ATOM      6  C   UNL     1      41.457  18.396  21.754  0.00  0.00    +0.048 C 
ATOM      7  C   UNL     1      40.696  19.180  20.685  0.00  0.00    +0.256 C 
ATOM      8  N   UNL     1      41.520  20.299  20.208  0.00  0.00    -0.405 N 
ATOM      9  H   UNL     1      41.730  20.916  20.980  0.00  0.00    +0.425 HD
ATOM     10  C   UNL     1      40.780  21.034  19.176  0.00  0.00    +0.262 C 
ATOM     11  C   UNL     1      41.565  22.277  18.755  0.00  0.00    +0.059 C 
ATOM     12  C   UNL     1      42.930  22.276  19.446  0.00  0.00    +0.044 C 
ATOM     13  C   UNL     1      43.638  20.950  19.159  0.00  0.00    +0.016 C 
ATOM     14  C   UNL     1      44.990  20.929  19.874  0.00  0.00    +0.051 C 
ATOM     15  C   UNL     1      46.084  21.413  18.921  0.00  0.00    +0.008 C 
ATOM     16  C   UNL     1      47.147  20.327  18.755  0.00  0.00    +0.008 C 
ATOM     17  C   UNL     1      48.444  20.772  19.433  0.00  0.00    +0.030 C 
ATOM     18  C   UNL     1      49.589  20.777  18.418  0.00  0.00    +0.042 C 
ATOM     19  C   UNL     1      50.429  19.513  18.592  0.00  0.00    +0.161 C 
ATOM     20  C   UNL     1      51.918  19.868  18.575  0.00  0.00    +0.052 C 
ATOM     21  C   UNL     1      52.727  18.578  18.666  0.00  0.00    +0.258 C 
ATOM     22  N   UNL     1      52.026  17.572  19.487  0.00  0.00    -0.404 N 
ATOM     23  H   UNL     1      51.433  17.018  18.880  0.00  0.00    +0.423 HD
ATOM     24  C   UNL     1      53.065  16.710  20.065  0.00  0.00    +0.262 C 
ATOM     25  C   UNL     1      52.435  15.649  20.965  0.00  0.00    +0.063 C 
ATOM     26  C   UNL     1      51.743  16.385  22.119  0.00  0.00    +0.055 C 
ATOM     27  C   UNL     1      50.639  17.262  21.548  0.00  0.00    +0.024 C 
ATOM     28  C   UNL     1      49.540  16.398  20.930  0.00  0.00    +0.022 C 
ATOM     29  C   UNL     1      51.207  18.223  20.505  0.00  0.00    +0.339 C 
ATOM     30  O   UNL     1      50.119  18.901  19.852  0.00  0.00    -0.352 OA
ATOM     31  C   UNL     1      42.776  19.785  19.647  0.00  0.00    +0.337 C 
ATOM     32  O   UNL     1      43.494  19.072  20.658  0.00  0.00    -0.341 OA
ATOM     33  C   UNL     1      48.472  16.096  21.985  0.00  0.00    +0.017 C 
ENDROOT
TORSDOF 0
ENDMDL
MODEL 2
REMARK VINA RESULT:      -6.6      4.046      8.303
REMARK  Name = ZINC95486223
REMARK  0 active torsions:
REMARK  status: ('A' for Active; 'I' for Inactive)
REMARK                            x       y       z     vdW  Elec       q    Type
REMARK                         _______ _______ _______ _____ _____    ______ ____
ROOT
ATOM      1  C   UNL     1      49.387  19.003  18.639  0.00  0.00    +0.005 C 
ATOM      2  C   UNL     1      50.307  17.780  18.667  0.00  0.00    +0.010 C 
ATOM      3  C   UNL     1      50.448  17.210  17.255  0.00  0.00    +0.011 C 
ATOM      4  C   UNL     1      50.928  15.758  17.332  0.00  0.00    +0.059 C 
ATOM      5  C   UNL     1      50.030  14.877  16.462  0.00  0.00    +0.154 C 
ATOM      6  C   UNL     1      50.804  13.627  16.034  0.00  0.00    +0.048 C 
ATOM      7  C   UNL     1      49.857  12.673  15.305  0.00  0.00    +0.256 C 
ATOM      8  N   UNL     1      48.706  12.363  16.165  0.00  0.00    -0.405 N 
ATOM      9  H   UNL     1      49.029  11.920  17.013  0.00  0.00    +0.425 HD
ATOM     10  C   UNL     1      47.804  11.455  15.447  0.00  0.00    +0.262 C 
ATOM     11  C   UNL     1      46.663  11.018  16.366  0.00  0.00    +0.059 C 
ATOM     12  C   UNL     1      46.756  11.776  17.691  0.00  0.00    +0.044 C 
ATOM     13  C   UNL     1      46.803  13.279  17.408  0.00  0.00    +0.016 C 
ATOM     14  C   UNL     1      46.929  14.044  18.727  0.00  0.00    +0.051 C 
ATOM     15  C   UNL     1      45.540  14.450  19.222  0.00  0.00    +0.008 C 
ATOM     16  C   UNL     1      45.464  15.970  19.366  0.00  0.00    +0.008 C 
ATOM     17  C   UNL     1      45.389  16.341  20.848  0.00  0.00    +0.030 C 
ATOM     18  C   UNL     1      44.125  17.160  21.118  0.00  0.00    +0.042 C 
ATOM     19  C   UNL     1      44.486  18.642  21.200  0.00  0.00    +0.161 C 
ATOM     20  C   UNL     1      43.795  19.283  22.406  0.00  0.00    +0.052 C 
ATOM     21  C   UNL     1      44.109  20.776  22.411  0.00  0.00    +0.258 C 
ATOM     22  N   UNL     1      45.459  21.033  21.874  0.00  0.00    -0.404 N 
ATOM     23  H   UNL     1      45.386  21.171  20.874  0.00  0.00    +0.423 HD
ATOM     24  C   UNL     1      45.924  22.277  22.502  0.00  0.00    +0.262 C 
ATOM     25  C   UNL     1      47.339  22.612  22.031  0.00  0.00    +0.063 C 
ATOM     26  C   UNL     1      48.256  21.478  22.505  0.00  0.00    +0.055 C 
ATOM     27  C   UNL     1      47.813  20.182  21.843  0.00  0.00    +0.024 C 
ATOM     28  C   UNL     1      48.038  20.252  20.333  0.00  0.00    +0.022 C 
ATOM     29  C   UNL     1      46.341  19.903  22.147  0.00  0.00    +0.339 C 
ATOM     30  O   UNL     1      45.905  18.782  21.358  0.00  0.00    -0.352 OA
ATOM     31  C   UNL     1      47.995  13.601  16.506  0.00  0.00    +0.337 C 
ATOM     32  O   UNL     1      48.879  14.480  17.208  0.00  0.00    -0.341 OA
ATOM     33  C   UNL     1      49.429  19.707  19.996  0.00  0.00    +0.017 C 
ENDROOT
TORSDOF 0
ENDMDL
MODEL 3
REMARK VINA RESULT:      -6.1      4.571      6.682
REMARK  Name = ZINC95486223
REMARK  0 active torsions:
REMARK  status: ('A' for Active; 'I' for Inactive)
REMARK                            x       y       z     vdW  Elec       q    Type
REMARK                         _______ _______ _______ _____ _____    ______ ____
ROOT
ATOM      1  C   UNL     1      51.221  16.418  17.852  0.00  0.00    +0.005 C 
ATOM      2  C   UNL     1      50.633  17.813  17.629  0.00  0.00    +0.010 C 
ATOM      3  C   UNL     1      50.657  18.598  18.941  0.00  0.00    +0.011 C 
ATOM      4  C   UNL     1      49.658  19.754  18.868  0.00  0.00    +0.059 C 
ATOM      5  C   UNL     1      48.770  19.742  20.114  0.00  0.00    +0.154 C 
ATOM      6  C   UNL     1      48.229  21.152  20.368  0.00  0.00    +0.048 C 
ATOM      7  C   UNL     1      47.215  21.104  21.512  0.00  0.00    +0.256 C 
ATOM      8  N   UNL     1      46.155  20.137  21.196  0.00  0.00    -0.405 N 
ATOM      9  H   UNL     1      45.682  20.420  20.349  0.00  0.00    +0.425 HD
ATOM     10  C   UNL     1      45.197  20.096  22.306  0.00  0.00    +0.262 C 
ATOM     11  C   UNL     1      44.019  19.192  21.947  0.00  0.00    +0.059 C 
ATOM     12  C   UNL     1      44.287  18.513  20.603  0.00  0.00    +0.044 C 
ATOM     13  C   UNL     1      45.640  17.801  20.660  0.00  0.00    +0.016 C 
ATOM     14  C   UNL     1      45.932  17.147  19.308  0.00  0.00    +0.051 C 
ATOM     15  C   UNL     1      45.463  15.691  19.329  0.00  0.00    +0.008 C 
ATOM     16  C   UNL     1      46.643  14.762  19.038  0.00  0.00    +0.008 C 
ATOM     17  C   UNL     1      46.464  14.122  17.661  0.00  0.00    +0.030 C 
ATOM     18  C   UNL     1      46.465  12.598  17.790  0.00  0.00    +0.042 C 
ATOM     19  C   UNL     1      47.837  12.054  17.396  0.00  0.00    +0.161 C 
ATOM     20  C   UNL     1      47.675  10.845  16.471  0.00  0.00    +0.052 C 
ATOM     21  C   UNL     1      49.058  10.278  16.164  0.00  0.00    +0.258 C 
ATOM     22  N   UNL     1      50.070  11.351  16.115  0.00  0.00    -0.404 N 
ATOM     23  H   UNL     1      50.455  11.472  17.044  0.00  0.00    +0.423 HD
ATOM     24  C   UNL     1      51.128  10.882  15.211  0.00  0.00    +0.262 C 
ATOM     25  C   UNL     1      52.214  11.947  15.068  0.00  0.00    +0.063 C 
ATOM     26  C   UNL     1      51.562  13.178  14.426  0.00  0.00    +0.055 C 
ATOM     27  C   UNL     1      50.482  13.702  15.360  0.00  0.00    +0.024 C 
ATOM     28  C   UNL     1      51.106  14.228  16.652  0.00  0.00    +0.022 C 
ATOM     29  C   UNL     1      49.466  12.603  15.671  0.00  0.00    +0.339 C 
ATOM     30  O   UNL     1      48.572  13.069  16.698  0.00  0.00    -0.352 OA
ATOM     31  C   UNL     1      46.742  18.806  20.998  0.00  0.00    +0.337 C 
ATOM     32  O   UNL     1      47.673  18.851  19.912  0.00  0.00    -0.341 OA
ATOM     33  C   UNL     1      51.412  15.721  16.503  0.00  0.00    +0.017 C 
ENDROOT
TORSDOF 0
ENDMDL
MODEL 4
REMARK VINA RESULT:      -6.1      2.187      9.226
REMARK  Name = ZINC95486223
REMARK  0 active torsions:
REMARK  status: ('A' for Active; 'I' for Inactive)
REMARK                            x       y       z     vdW  Elec       q    Type
REMARK                         _______ _______ _______ _____ _____    ______ ____
ROOT
ATOM      1  C   UNL     1      49.271  19.723  18.772  0.00  0.00    +0.005 C 
ATOM      2  C   UNL     1      50.510  19.285  19.556  0.00  0.00    +0.010 C 
ATOM      3  C   UNL     1      51.398  18.411  18.670  0.00  0.00    +0.011 C 
ATOM      4  C   UNL     1      52.341  17.581  19.545  0.00  0.00    +0.059 C 
ATOM      5  C   UNL     1      52.276  16.114  19.117  0.00  0.00    +0.154 C 
ATOM      6  C   UNL     1      53.579  15.411  19.506  0.00  0.00    +0.048 C 
ATOM      7  C   UNL     1      53.447  13.913  19.227  0.00  0.00    +0.256 C 
ATOM      8  N   UNL     1      52.278  13.377  19.937  0.00  0.00    -0.405 N 
ATOM      9  H   UNL     1      52.394  13.517  20.931  0.00  0.00    +0.425 HD
ATOM     10  C   UNL     1      52.161  11.943  19.652  0.00  0.00    +0.262 C 
ATOM     11  C   UNL     1      51.027  11.336  20.479  0.00  0.00    +0.059 C 
ATOM     12  C   UNL     1      50.294  12.447  21.232  0.00  0.00    +0.044 C 
ATOM     13  C   UNL     1      49.849  13.521  20.237  0.00  0.00    +0.016 C 
ATOM     14  C   UNL     1      49.144  14.653  20.986  0.00  0.00    +0.051 C 
ATOM     15  C   UNL     1      47.634  14.406  20.988  0.00  0.00    +0.008 C 
ATOM     16  C   UNL     1      46.915  15.583  20.328  0.00  0.00    +0.008 C 
ATOM     17  C   UNL     1      46.135  16.365  21.385  0.00  0.00    +0.030 C 
ATOM     18  C   UNL     1      44.654  16.421  21.006  0.00  0.00    +0.042 C 
ATOM     19  C   UNL     1      44.338  17.777  20.379  0.00  0.00    +0.161 C 
ATOM     20  C   UNL     1      43.044  18.340  20.972  0.00  0.00    +0.052 C 
ATOM     21  C   UNL     1      42.715  19.651  20.267  0.00  0.00    +0.258 C 
ATOM     22  N   UNL     1      43.947  20.370  19.887  0.00  0.00    -0.404 N 
ATOM     23  H   UNL     1      44.218  20.075  18.957  0.00  0.00    +0.423 HD
ATOM     24  C   UNL     1      43.602  21.797  19.859  0.00  0.00    +0.262 C 
ATOM     25  C   UNL     1      44.831  22.633  19.506  0.00  0.00    +0.063 C 
ATOM     26  C   UNL     1      45.860  22.423  20.623  0.00  0.00    +0.055 C 
ATOM     27  C   UNL     1      46.257  20.955  20.651  0.00  0.00    +0.024 C 
ATOM     28  C   UNL     1      47.000  20.580  19.369  0.00  0.00    +0.022 C 
ATOM     29  C   UNL     1      45.023  20.071  20.826  0.00  0.00    +0.339 C 
ATOM     30  O   UNL     1      45.406  18.694  20.659  0.00  0.00    -0.352 OA
ATOM     31  C   UNL     1      51.065  14.073  19.491  0.00  0.00    +0.337 C 
ATOM     32  O   UNL     1      51.185  15.470  19.775  0.00  0.00    -0.341 OA
ATOM     33  C   UNL     1      48.505  20.779  19.572  0.00  0.00    +0.017 C 
ENDROOT
TORSDOF 0
ENDMDL
MODEL 5
REMARK VINA RESULT:      -5.8      3.572      5.208
REMARK  Name = ZINC95486223
REMARK  0 active torsions:
REMARK  status: ('A' for Active; 'I' for Inactive)
REMARK                            x       y       z     vdW  Elec       q    Type
REMARK                         _______ _______ _______ _____ _____    ______ ____
ROOT
ATOM      1  C   UNL     1      50.486  16.887  21.063  0.00  0.00    +0.005 C 
ATOM      2  C   UNL     1      50.774  18.389  21.005  0.00  0.00    +0.010 C 
ATOM      3  C   UNL     1      50.080  19.092  22.173  0.00  0.00    +0.011 C 
ATOM      4  C   UNL     1      49.937  20.584  21.864  0.00  0.00    +0.059 C 
ATOM      5  C   UNL     1      48.493  21.022  22.117  0.00  0.00    +0.154 C 
ATOM      6  C   UNL     1      48.460  22.522  22.416  0.00  0.00    +0.048 C 
ATOM      7  C   UNL     1      47.006  22.987  22.505  0.00  0.00    +0.256 C 
ATOM      8  N   UNL     1      46.296  22.638  21.267  0.00  0.00    -0.405 N 
ATOM      9  H   UNL     1      46.740  23.097  20.484  0.00  0.00    +0.425 HD
ATOM     10  C   UNL     1      44.901  23.082  21.373  0.00  0.00    +0.262 C 
ATOM     11  C   UNL     1      44.175  22.844  20.049  0.00  0.00    +0.059 C 
ATOM     12  C   UNL     1      45.099  22.094  19.088  0.00  0.00    +0.044 C 
ATOM     13  C   UNL     1      45.609  20.823  19.770  0.00  0.00    +0.016 C 
ATOM     14  C   UNL     1      46.560  20.084  18.826  0.00  0.00    +0.051 C 
ATOM     15  C   UNL     1      45.784  19.030  18.035  0.00  0.00    +0.008 C 
ATOM     16  C   UNL     1      46.378  17.645  18.295  0.00  0.00    +0.008 C 
ATOM     17  C   UNL     1      47.077  17.142  17.031  0.00  0.00    +0.030 C 
ATOM     18  C   UNL     1      46.473  15.805  16.597  0.00  0.00    +0.042 C 
ATOM     19  C   UNL     1      47.385  14.665  17.044  0.00  0.00    +0.161 C 
ATOM     20  C   UNL     1      47.570  13.663  15.902  0.00  0.00    +0.052 C 
ATOM     21  C   UNL     1      48.415  12.498  16.407  0.00  0.00    +0.258 C 
ATOM     22  N   UNL     1      49.402  12.955  17.405  0.00  0.00    -0.404 N 
ATOM     23  H   UNL     1      48.981  12.895  18.324  0.00  0.00    +0.423 HD
ATOM     24  C   UNL     1      50.532  12.021  17.329  0.00  0.00    +0.262 C 
ATOM     25  C   UNL     1      51.629  12.433  18.309  0.00  0.00    +0.063 C 
ATOM     26  C   UNL     1      52.134  13.814  17.870  0.00  0.00    +0.055 C 
ATOM     27  C   UNL     1      50.987  14.808  17.971  0.00  0.00    +0.024 C 
ATOM     28  C   UNL     1      50.573  14.997  19.430  0.00  0.00    +0.022 C 
ATOM     29  C   UNL     1      49.796  14.335  17.138  0.00  0.00    +0.339 C 
ATOM     30  O   UNL     1      48.670  15.191  17.404  0.00  0.00    -0.352 OA
ATOM     31  C   UNL     1      46.340  21.185  21.063  0.00  0.00    +0.337 C 
ATOM     32  O   UNL     1      47.702  20.760  20.958  0.00  0.00    -0.341 OA
ATOM     33  C   UNL     1      51.361  16.158  20.041  0.00  0.00    +0.017 C 
ENDROOT
TORSDOF 0
ENDMDL
MODEL 6
REMARK VINA RESULT:      -5.7      3.741      8.568
REMARK  Name = ZINC95486223
REMARK  0 active torsions:
REMARK  status: ('A' for Active; 'I' for Inactive)
REMARK                            x       y       z     vdW  Elec       q    Type
REMARK                         _______ _______ _______ _____ _____    ______ ____
ROOT
ATOM      1  C   UNL     1      46.060  16.844  18.261  0.00  0.00    +0.005 C 
ATOM      2  C   UNL     1      46.719  16.150  17.067  0.00  0.00    +0.010 C 
ATOM      3  C   UNL     1      46.628  14.633  17.239  0.00  0.00    +0.011 C 
ATOM      4  C   UNL     1      47.677  13.952  16.356  0.00  0.00    +0.059 C 
ATOM      5  C   UNL     1      48.467  12.941  17.189  0.00  0.00    +0.154 C 
ATOM      6  C   UNL     1      49.044  11.862  16.270  0.00  0.00    +0.048 C 
ATOM      7  C   UNL     1      49.966  10.949  17.079  0.00  0.00    +0.256 C 
ATOM      8  N   UNL     1      51.007  11.752  17.736  0.00  0.00    -0.405 N 
ATOM      9  H   UNL     1      51.553  12.233  17.036  0.00  0.00    +0.425 HD
ATOM     10  C   UNL     1      51.876  10.863  18.515  0.00  0.00    +0.262 C 
ATOM     11  C   UNL     1      53.041  11.657  19.106  0.00  0.00    +0.059 C 
ATOM     12  C   UNL     1      52.847  13.145  18.808  0.00  0.00    +0.044 C 
ATOM     13  C   UNL     1      51.465  13.581  19.302  0.00  0.00    +0.016 C 
ATOM     14  C   UNL     1      51.251  15.060  18.978  0.00  0.00    +0.051 C 
ATOM     15  C   UNL     1      51.657  15.915  20.180  0.00  0.00    +0.008 C 
ATOM     16  C   UNL     1      50.466  16.752  20.648  0.00  0.00    +0.008 C 
ATOM     17  C   UNL     1      50.722  18.227  20.335  0.00  0.00    +0.030 C 
ATOM     18  C   UNL     1      50.649  19.054  21.620  0.00  0.00    +0.042 C 
ATOM     19  C   UNL     1      49.290  19.745  21.705  0.00  0.00    +0.161 C 
ATOM     20  C   UNL     1      49.472  21.209  22.114  0.00  0.00    +0.052 C 
ATOM     21  C   UNL     1      48.094  21.846  22.271  0.00  0.00    +0.258 C 
ATOM     22  N   UNL     1      47.133  21.266  21.312  0.00  0.00    -0.404 N 
ATOM     23  H   UNL     1      46.685  20.470  21.749  0.00  0.00    +0.423 HD
ATOM     24  C   UNL     1      46.128  22.305  21.054  0.00  0.00    +0.262 C 
ATOM     25  C   UNL     1      45.100  21.808  20.039  0.00  0.00    +0.063 C 
ATOM     26  C   UNL     1      45.847  21.544  18.726  0.00  0.00    +0.055 C 
ATOM     27  C   UNL     1      46.874  20.447  18.961  0.00  0.00    +0.024 C 
ATOM     28  C   UNL     1      46.177  19.124  19.279  0.00  0.00    +0.022 C 
ATOM     29  C   UNL     1      47.819  20.834  20.099  0.00  0.00    +0.339 C 
ATOM     30  O   UNL     1      48.651  19.705  20.421  0.00  0.00    -0.352 OA
ATOM     31  C   UNL     1      50.383  12.739  18.625  0.00  0.00    +0.337 C 
ATOM     32  O   UNL     1      49.539  13.605  17.859  0.00  0.00    -0.341 OA
ATOM     33  C   UNL     1      45.944  18.344  17.982  0.00  0.00    +0.017 C 
ENDROOT
TORSDOF 0
ENDMDL
MODEL 7
REMARK VINA RESULT:      -5.6      5.540     11.245
REMARK  Name = ZINC95486223
REMARK  0 active torsions:
REMARK  status: ('A' for Active; 'I' for Inactive)
REMARK                            x       y       z     vdW  Elec       q    Type
REMARK                         _______ _______ _______ _____ _____    ______ ____
ROOT
ATOM      1  C   UNL     1      51.379  11.151  19.367  0.00  0.00    +0.005 C 
ATOM      2  C   UNL     1      52.813  10.762  19.000  0.00  0.00    +0.010 C 
ATOM      3  C   UNL     1      53.627  10.536  20.275  0.00  0.00    +0.011 C 
ATOM      4  C   UNL     1      55.120  10.640  19.956  0.00  0.00    +0.059 C 
ATOM      5  C   UNL     1      55.791  11.585  20.955  0.00  0.00    +0.154 C 
ATOM      6  C   UNL     1      57.278  11.241  21.063  0.00  0.00    +0.048 C 
ATOM      7  C   UNL     1      57.977  12.288  21.932  0.00  0.00    +0.256 C 
ATOM      8  N   UNL     1      57.741  13.629  21.380  0.00  0.00    -0.405 N 
ATOM      9  H   UNL     1      58.116  13.677  20.443  0.00  0.00    +0.425 HD
ATOM     10  C   UNL     1      58.409  14.621  22.230  0.00  0.00    +0.262 C 
ATOM     11  C   UNL     1      58.286  16.011  21.607  0.00  0.00    +0.059 C 
ATOM     12  C   UNL     1      57.388  15.938  20.370  0.00  0.00    +0.044 C 
ATOM     13  C   UNL     1      56.054  15.294  20.754  0.00  0.00    +0.016 C 
ATOM     14  C   UNL     1      55.164  15.187  19.515  0.00  0.00    +0.051 C 
ATOM     15  C   UNL     1      54.246  16.408  19.434  0.00  0.00    +0.008 C 
ATOM     16  C   UNL     1      52.784  15.961  19.440  0.00  0.00    +0.008 C 
ATOM     17  C   UNL     1      52.165  16.213  18.064  0.00  0.00    +0.030 C 
ATOM     18  C   UNL     1      50.943  17.124  18.201  0.00  0.00    +0.042 C 
ATOM     19  C   UNL     1      49.671  16.280  18.150  0.00  0.00    +0.161 C 
ATOM     20  C   UNL     1      48.645  16.936  17.221  0.00  0.00    +0.052 C 
ATOM     21  C   UNL     1      47.361  16.114  17.258  0.00  0.00    +0.258 C 
ATOM     22  N   UNL     1      47.656  14.680  17.443  0.00  0.00    -0.404 N 
ATOM     23  H   UNL     1      47.672  14.482  18.437  0.00  0.00    +0.423 HD
ATOM     24  C   UNL     1      46.548  13.945  16.821  0.00  0.00    +0.262 C 
ATOM     25  C   UNL     1      46.781  12.439  16.934  0.00  0.00    +0.063 C 
ATOM     26  C   UNL     1      48.056  12.117  16.145  0.00  0.00    +0.055 C 
ATOM     27  C   UNL     1      49.226  12.844  16.791  0.00  0.00    +0.024 C 
ATOM     28  C   UNL     1      49.489  12.289  18.191  0.00  0.00    +0.022 C 
ATOM     29  C   UNL     1      48.950  14.345  16.859  0.00  0.00    +0.339 C 
ATOM     30  O   UNL     1      49.981  14.976  17.639  0.00  0.00    -0.352 OA
ATOM     31  C   UNL     1      56.300  13.901  21.337  0.00  0.00    +0.337 C 
ATOM     32  O   UNL     1      55.655  12.933  20.505  0.00  0.00    -0.341 OA
ATOM     33  C   UNL     1      50.510  11.150  18.108  0.00  0.00    +0.017 C 
ENDROOT
TORSDOF 0
ENDMDL
MODEL 8
REMARK VINA RESULT:      -5.5      2.856      8.941
REMARK  Name = ZINC95486223
REMARK  0 active torsions:
REMARK  status: ('A' for Active; 'I' for Inactive)
REMARK                            x       y       z     vdW  Elec       q    Type
REMARK                         _______ _______ _______ _____ _____    ______ ____
ROOT
ATOM      1  C   UNL     1      46.691  15.687  18.967  0.00  0.00    +0.005 C 
ATOM      2  C   UNL     1      47.608  15.123  17.879  0.00  0.00    +0.010 C 
ATOM      3  C   UNL     1      48.256  13.828  18.371  0.00  0.00    +0.011 C 
ATOM      4  C   UNL     1      49.507  13.531  17.542  0.00  0.00    +0.059 C 
ATOM      5  C   UNL     1      50.681  13.235  18.477  0.00  0.00    +0.154 C 
ATOM      6  C   UNL     1      51.710  12.369  17.745  0.00  0.00    +0.048 C 
ATOM      7  C   UNL     1      52.953  12.212  18.622  0.00  0.00    +0.256 C 
ATOM      8  N   UNL     1      53.477  13.537  18.981  0.00  0.00    -0.405 N 
ATOM      9  H   UNL     1      53.729  14.038  18.142  0.00  0.00    +0.425 HD
ATOM     10  C   UNL     1      54.662  13.368  19.830  0.00  0.00    +0.262 C 
ATOM     11  C   UNL     1      55.300  14.729  20.113  0.00  0.00    +0.059 C 
ATOM     12  C   UNL     1      54.417  15.836  19.535  0.00  0.00    +0.044 C 
ATOM     13  C   UNL     1      52.993  15.677  20.074  0.00  0.00    +0.016 C 
ATOM     14  C   UNL     1      52.097  16.762  19.474  0.00  0.00    +0.051 C 
ATOM     15  C   UNL     1      52.036  17.962  20.421  0.00  0.00    +0.008 C 
ATOM     16  C   UNL     1      50.587  18.228  20.830  0.00  0.00    +0.008 C 
ATOM     17  C   UNL     1      50.106  19.531  20.191  0.00  0.00    +0.030 C 
ATOM     18  C   UNL     1      49.638  20.503  21.276  0.00  0.00    +0.042 C 
ATOM     19  C   UNL     1      48.114  20.477  21.362  0.00  0.00    +0.161 C 
ATOM     20  C   UNL     1      47.569  21.905  21.436  0.00  0.00    +0.052 C 
ATOM     21  C   UNL     1      46.054  21.840  21.604  0.00  0.00    +0.258 C 
ATOM     22  N   UNL     1      45.494  20.672  20.897  0.00  0.00    -0.404 N 
ATOM     23  H   UNL     1      45.480  19.886  21.535  0.00  0.00    +0.423 HD
ATOM     24  C   UNL     1      44.115  21.027  20.538  0.00  0.00    +0.262 C 
ATOM     25  C   UNL     1      43.456  19.885  19.766  0.00  0.00    +0.063 C 
ATOM     26  C   UNL     1      44.246  19.702  18.464  0.00  0.00    +0.055 C 
ATOM     27  C   UNL     1      45.672  19.302  18.809  0.00  0.00    +0.024 C 
ATOM     28  C   UNL     1      45.694  17.923  19.469  0.00  0.00    +0.022 C 
ATOM     29  C   UNL     1      46.309  20.341  19.733  0.00  0.00    +0.339 C 
ATOM     30  O   UNL     1      47.579  19.843  20.191  0.00  0.00    -0.352 OA
ATOM     31  C   UNL     1      52.451  14.295  19.707  0.00  0.00    +0.337 C 
ATOM     32  O   UNL     1      51.300  14.458  18.874  0.00  0.00    -0.341 OA
ATOM     33  C   UNL     1      45.870  16.845  18.396  0.00  0.00    +0.017 C 
ENDROOT
TORSDOF 0
ENDMDL
MODEL 9
REMARK VINA RESULT:      -5.5      2.726      4.615
REMARK  Name = ZINC95486223
REMARK  0 active torsions:
REMARK  status: ('A' for Active; 'I' for Inactive)
REMARK                            x       y       z     vdW  Elec       q    Type
REMARK                         _______ _______ _______ _____ _____    ______ ____
ROOT
ATOM      1  C   UNL     1      51.299  18.303  21.879  0.00  0.00    +0.005 C 
ATOM      2  C   UNL     1      50.859  19.709  21.462  0.00  0.00    +0.010 C 
ATOM      3  C   UNL     1      49.725  20.184  22.371  0.00  0.00    +0.011 C 
ATOM      4  C   UNL     1      48.960  21.320  21.688  0.00  0.00    +0.059 C 
ATOM      5  C   UNL     1      47.460  21.027  21.734  0.00  0.00    +0.154 C 
ATOM      6  C   UNL     1      46.680  22.340  21.643  0.00  0.00    +0.048 C 
ATOM      7  C   UNL     1      45.186  22.034  21.524  0.00  0.00    +0.256 C 
ATOM      8  N   UNL     1      44.951  21.152  20.372  0.00  0.00    -0.405 N 
ATOM      9  H   UNL     1      45.261  21.611  19.528  0.00  0.00    +0.425 HD
ATOM     10  C   UNL     1      43.516  20.860  20.278  0.00  0.00    +0.262 C 
ATOM     11  C   UNL     1      43.230  20.047  19.015  0.00  0.00    +0.059 C 
ATOM     12  C   UNL     1      44.550  19.685  18.331  0.00  0.00    +0.044 C 
ATOM     13  C   UNL     1      45.464  18.988  19.341  0.00  0.00    +0.016 C 
ATOM     14  C   UNL     1      46.799  18.651  18.674  0.00  0.00    +0.051 C 
ATOM     15  C   UNL     1      46.757  17.223  18.128  0.00  0.00    +0.008 C 
ATOM     16  C   UNL     1      47.871  16.391  18.764  0.00  0.00    +0.008 C 
ATOM     17  C   UNL     1      48.934  16.070  17.712  0.00  0.00    +0.030 C 
ATOM     18  C   UNL     1      49.109  14.554  17.593  0.00  0.00    +0.042 C 
ATOM     19  C   UNL     1      50.351  14.122  18.368  0.00  0.00    +0.161 C 
ATOM     20  C   UNL     1      51.179  13.146  17.528  0.00  0.00    +0.052 C 
ATOM     21  C   UNL     1      52.366  12.671  18.361  0.00  0.00    +0.258 C 
ATOM     22  N   UNL     1      52.833  13.737  19.270  0.00  0.00    -0.404 N 
ATOM     23  H   UNL     1      52.334  13.653  20.147  0.00  0.00    +0.423 HD
ATOM     24  C   UNL     1      54.261  13.487  19.500  0.00  0.00    +0.262 C 
ATOM     25  C   UNL     1      54.848  14.566  20.410  0.00  0.00    +0.063 C 
ATOM     26  C   UNL     1      54.721  15.903  19.670  0.00  0.00    +0.055 C 
ATOM     27  C   UNL     1      53.246  16.199  19.446  0.00  0.00    +0.024 C 
ATOM     28  C   UNL     1      52.542  16.432  20.783  0.00  0.00    +0.022 C 
ATOM     29  C   UNL     1      52.579  15.051  18.689  0.00  0.00    +0.339 C 
ATOM     30  O   UNL     1      51.158  15.272  18.661  0.00  0.00    -0.352 OA
ATOM     31  C   UNL     1      45.702  19.902  20.544  0.00  0.00    +0.337 C 
ATOM     32  O   UNL     1      47.100  20.193  20.632  0.00  0.00    -0.341 OA
ATOM     33  C   UNL     1      52.577  17.923  21.128  0.00  0.00    +0.017 C 
ENDROOT
TORSDOF 0
ENDMDL
