MODEL 1
REMARK VINA RESULT:      -6.0      0.000      0.000
REMARK  Name = ZINC04716567
REMARK  5 active torsions:
REMARK  status: ('A' for Active; 'I' for Inactive)
REMARK    1  A    between atoms: C1_1  and  N1_2
REMARK    2  A    between atoms: C7_8  and  O2_12
REMARK    3  A    between atoms: C8_9  and  O1_10
REMARK    4  A    between atoms: O1_10  and  C9_11
REMARK    5  A    between atoms: O2_12  and  C10_13
REMARK                            x       y       z     vdW  Elec       q    Type
REMARK                         _______ _______ _______ _____ _____    ______ ____
ROOT
ATOM      1  C   UNL     1      48.154  17.658  18.719  0.00  0.00    +0.219 C 
ATOM      2  N   UNL     1      46.823  17.687  18.100  0.00  0.00    -0.503 N 
ATOM      3  C   UNL     1      46.652  16.595  17.144  0.00  0.00    +0.305 C 
ATOM      4  C   UNL     1      46.425  15.283  17.845  0.00  0.00    -0.092 A 
ATOM      5  C   UNL     1      45.730  15.277  19.060  0.00  0.00    -0.068 A 
ATOM      6  C   UNL     1      45.305  16.582  19.618  0.00  0.00    -0.071 A 
ATOM      7  C   UNL     1      44.368  16.643  20.660  0.00  0.00    +0.037 A 
ATOM      8  C   UNL     1      43.917  17.841  21.116  0.00  0.00    +0.030 A 
ATOM      9  C   UNL     1      44.335  19.036  20.494  0.00  0.00    -0.033 A 
ATOM     10  C   UNL     1      43.792  20.268  20.921  0.00  0.00    +0.046 A 
ATOM     11  C   UNL     1      44.200  21.393  20.256  0.00  0.00    +0.047 A 
ATOM     12  O   UNL     1      43.837  22.683  20.452  0.00  0.00    -0.303 OA
ATOM     13  C   UNL     1      44.848  23.471  19.790  0.00  0.00    +0.432 C 
ATOM     14  O   UNL     1      45.342  22.604  18.743  0.00  0.00    -0.305 OA
ATOM     15  C   UNL     1      45.131  21.343  19.194  0.00  0.00    +0.035 A 
ATOM     16  C   UNL     1      45.677  20.164  18.769  0.00  0.00    +0.081 A 
ATOM     17  C   UNL     1      45.281  18.990  19.443  0.00  0.00    -0.026 A 
ATOM     18  C   UNL     1      45.452  14.078  19.698  0.00  0.00    +0.068 A 
ATOM     19  C   UNL     1      45.870  12.885  19.143  0.00  0.00    -0.058 A 
ATOM     20  C   UNL     1      46.574  12.887  17.948  0.00  0.00    +0.118 A 
ATOM     23  C   UNL     1      46.852  14.087  17.301  0.00  0.00    +0.076 A 
ATOM     26  C   UNL     1      45.821  17.743  19.057  0.00  0.00    +0.125 A 
ENDROOT
BRANCH  20  21
ATOM     21  O   UNL     1      46.993  11.711  17.408  0.00  0.00    -0.305 OA
ATOM     22  C   UNL     1      46.071  11.020  16.562  0.00  0.00    +0.242 C 
ENDBRANCH  20  21
BRANCH  23  24
ATOM     24  O   UNL     1      47.536  14.084  16.126  0.00  0.00    -0.322 OA
ATOM     25  C   UNL     1      48.954  13.925  16.202  0.00  0.00    +0.222 C 
ENDBRANCH  23  24
TORSDOF 2
ENDMDL
MODEL 2
REMARK VINA RESULT:      -5.9      2.479      2.876
REMARK  Name = ZINC04716567
REMARK  5 active torsions:
REMARK  status: ('A' for Active; 'I' for Inactive)
REMARK    1  A    between atoms: C1_1  and  N1_2
REMARK    2  A    between atoms: C7_8  and  O2_12
REMARK    3  A    between atoms: C8_9  and  O1_10
REMARK    4  A    between atoms: O1_10  and  C9_11
REMARK    5  A    between atoms: O2_12  and  C10_13
REMARK                            x       y       z     vdW  Elec       q    Type
REMARK                         _______ _______ _______ _____ _____    ______ ____
ROOT
ATOM      1  C   UNL     1      46.681  18.786  19.462  0.00  0.00    +0.219 C 
ATOM      2  N   UNL     1      45.643  17.833  19.051  0.00  0.00    -0.503 N 
ATOM      3  C   UNL     1      46.224  16.577  18.578  0.00  0.00    +0.305 C 
ATOM      4  C   UNL     1      46.710  15.733  19.725  0.00  0.00    -0.092 A 
ATOM      5  C   UNL     1      46.017  15.780  20.941  0.00  0.00    -0.068 A 
ATOM      6  C   UNL     1      44.871  16.712  21.045  0.00  0.00    -0.071 A 
ATOM      7  C   UNL     1      43.961  16.611  22.108  0.00  0.00    +0.037 A 
ATOM      8  C   UNL     1      42.864  17.411  22.160  0.00  0.00    +0.030 A 
ATOM      9  C   UNL     1      42.593  18.306  21.104  0.00  0.00    -0.033 A 
ATOM     10  C   UNL     1      41.405  19.070  21.128  0.00  0.00    +0.046 A 
ATOM     11  C   UNL     1      41.169  19.891  20.059  0.00  0.00    +0.047 A 
ATOM     12  O   UNL     1      40.120  20.715  19.826  0.00  0.00    -0.303 OA
ATOM     13  C   UNL     1      40.568  21.627  18.802  0.00  0.00    +0.432 C 
ATOM     14  O   UNL     1      41.575  20.880  18.079  0.00  0.00    -0.305 OA
ATOM     15  C   UNL     1      42.070  19.991  18.974  0.00  0.00    +0.035 A 
ATOM     16  C   UNL     1      43.230  19.269  18.932  0.00  0.00    +0.081 A 
ATOM     17  C   UNL     1      43.502  18.421  20.026  0.00  0.00    -0.026 A 
ATOM     18  C   UNL     1      46.404  14.967  21.995  0.00  0.00    +0.068 A 
ATOM     19  C   UNL     1      47.481  14.115  21.854  0.00  0.00    -0.058 A 
ATOM     20  C   UNL     1      48.181  14.077  20.657  0.00  0.00    +0.118 A 
ATOM     23  C   UNL     1      47.795  14.888  19.594  0.00  0.00    +0.076 A 
ATOM     26  C   UNL     1      44.692  17.659  20.045  0.00  0.00    +0.125 A 
ENDROOT
BRANCH  20  21
ATOM     21  O   UNL     1      49.247  13.244  20.523  0.00  0.00    -0.305 OA
ATOM     22  C   UNL     1      48.969  11.846  20.417  0.00  0.00    +0.242 C 
ENDBRANCH  20  21
BRANCH  23  24
ATOM     24  O   UNL     1      48.479  14.841  18.420  0.00  0.00    -0.322 OA
ATOM     25  C   UNL     1      48.028  13.900  17.444  0.00  0.00    +0.222 C 
ENDBRANCH  23  24
TORSDOF 2
ENDMDL
MODEL 3
REMARK VINA RESULT:      -5.7      3.327      8.415
REMARK  Name = ZINC04716567
REMARK  5 active torsions:
REMARK  status: ('A' for Active; 'I' for Inactive)
REMARK    1  A    between atoms: C1_1  and  N1_2
REMARK    2  A    between atoms: C7_8  and  O2_12
REMARK    3  A    between atoms: C8_9  and  O1_10
REMARK    4  A    between atoms: O1_10  and  C9_11
REMARK    5  A    between atoms: O2_12  and  C10_13
REMARK                            x       y       z     vdW  Elec       q    Type
REMARK                         _______ _______ _______ _____ _____    ______ ____
ROOT
ATOM      1  C   UNL     1      48.407  16.419  19.863  0.00  0.00    +0.219 C 
ATOM      2  N   UNL     1      48.255  16.700  18.430  0.00  0.00    -0.503 N 
ATOM      3  C   UNL     1      48.353  18.132  18.151  0.00  0.00    +0.305 C 
ATOM      4  C   UNL     1      49.779  18.606  18.212  0.00  0.00    -0.092 A 
ATOM      5  C   UNL     1      50.800  17.734  17.812  0.00  0.00    -0.068 A 
ATOM      6  C   UNL     1      50.414  16.363  17.403  0.00  0.00    -0.071 A 
ATOM      7  C   UNL     1      51.321  15.538  16.723  0.00  0.00    +0.037 A 
ATOM      8  C   UNL     1      50.942  14.312  16.276  0.00  0.00    +0.030 A 
ATOM      9  C   UNL     1      49.606  13.887  16.430  0.00  0.00    -0.033 A 
ATOM     10  C   UNL     1      49.204  12.648  15.884  0.00  0.00    +0.046 A 
ATOM     11  C   UNL     1      47.887  12.302  16.025  0.00  0.00    +0.047 A 
ATOM     12  O   UNL     1      47.242  11.191  15.596  0.00  0.00    -0.303 OA
ATOM     13  C   UNL     1      46.015  11.143  16.354  0.00  0.00    +0.432 C 
ATOM     14  O   UNL     1      45.746  12.527  16.679  0.00  0.00    -0.305 OA
ATOM     15  C   UNL     1      46.958  13.133  16.693  0.00  0.00    +0.035 A 
ATOM     16  C   UNL     1      47.326  14.332  17.238  0.00  0.00    +0.081 A 
ATOM     17  C   UNL     1      48.680  14.708  17.115  0.00  0.00    -0.026 A 
ATOM     18  C   UNL     1      52.117  18.163  17.798  0.00  0.00    +0.068 A 
ATOM     19  C   UNL     1      52.432  19.449  18.190  0.00  0.00    -0.058 A 
ATOM     20  C   UNL     1      51.427  20.311  18.604  0.00  0.00    +0.118 A 
ATOM     23  C   UNL     1      50.101  19.887  18.615  0.00  0.00    +0.076 A 
ATOM     26  C   UNL     1      49.121  15.930  17.669  0.00  0.00    +0.125 A 
ENDROOT
BRANCH  20  21
ATOM     21  O   UNL     1      51.739  21.574  18.999  0.00  0.00    -0.305 OA
ATOM     22  C   UNL     1      52.558  21.706  20.163  0.00  0.00    +0.242 C 
ENDBRANCH  20  21
BRANCH  23  24
ATOM     24  O   UNL     1      49.119  20.738  19.014  0.00  0.00    -0.322 OA
ATOM     25  C   UNL     1      48.807  20.761  20.409  0.00  0.00    +0.222 C 
ENDBRANCH  23  24
TORSDOF 2
ENDMDL
MODEL 4
REMARK VINA RESULT:      -5.7      2.663      7.805
REMARK  Name = ZINC04716567
REMARK  5 active torsions:
REMARK  status: ('A' for Active; 'I' for Inactive)
REMARK    1  A    between atoms: C1_1  and  N1_2
REMARK    2  A    between atoms: C7_8  and  O2_12
REMARK    3  A    between atoms: C8_9  and  O1_10
REMARK    4  A    between atoms: O1_10  and  C9_11
REMARK    5  A    between atoms: O2_12  and  C10_13
REMARK                            x       y       z     vdW  Elec       q    Type
REMARK                         _______ _______ _______ _____ _____    ______ ____
ROOT
ATOM      1  C   UNL     1      46.059  17.374  20.007  0.00  0.00    +0.219 C 
ATOM      2  N   UNL     1      46.387  17.943  18.694  0.00  0.00    -0.503 N 
ATOM      3  C   UNL     1      45.299  18.777  18.184  0.00  0.00    +0.305 C 
ATOM      4  C   UNL     1      45.257  20.109  18.881  0.00  0.00    -0.092 A 
ATOM      5  C   UNL     1      46.460  20.691  19.301  0.00  0.00    -0.068 A 
ATOM      6  C   UNL     1      47.709  19.925  19.083  0.00  0.00    -0.071 A 
ATOM      7  C   UNL     1      48.960  20.548  19.205  0.00  0.00    +0.037 A 
ATOM      8  C   UNL     1      50.102  19.868  18.925  0.00  0.00    +0.030 A 
ATOM      9  C   UNL     1      50.036  18.545  18.440  0.00  0.00    -0.033 A 
ATOM     10  C   UNL     1      51.225  17.879  18.070  0.00  0.00    +0.046 A 
ATOM     11  C   UNL     1      51.101  16.613  17.566  0.00  0.00    +0.047 A 
ATOM     12  O   UNL     1      52.064  15.764  17.134  0.00  0.00    -0.303 OA
ATOM     13  C   UNL     1      51.444  14.461  17.110  0.00  0.00    +0.432 C 
ATOM     14  O   UNL     1      50.039  14.741  16.908  0.00  0.00    -0.305 OA
ATOM     15  C   UNL     1      49.845  15.980  17.423  0.00  0.00    +0.035 A 
ATOM     16  C   UNL     1      48.681  16.601  17.782  0.00  0.00    +0.081 A 
ATOM     17  C   UNL     1      48.781  17.903  18.313  0.00  0.00    -0.026 A 
ATOM     18  C   UNL     1      46.458  21.946  19.890  0.00  0.00    +0.068 A 
ATOM     19  C   UNL     1      45.270  22.623  20.076  0.00  0.00    -0.058 A 
ATOM     20  C   UNL     1      44.074  22.044  19.678  0.00  0.00    +0.118 A 
ATOM     23  C   UNL     1      44.070  20.786  19.082  0.00  0.00    +0.076 A 
ATOM     26  C   UNL     1      47.613  18.590  18.713  0.00  0.00    +0.125 A 
ENDROOT
BRANCH  20  21
ATOM     21  O   UNL     1      42.903  22.708  19.870  0.00  0.00    -0.305 OA
ATOM     22  C   UNL     1      42.581  23.740  18.936  0.00  0.00    +0.242 C 
ENDBRANCH  20  21
BRANCH  23  24
ATOM     24  O   UNL     1      42.896  20.225  18.686  0.00  0.00    -0.322 OA
ATOM     25  C   UNL     1      42.164  19.491  19.669  0.00  0.00    +0.222 C 
ENDBRANCH  23  24
TORSDOF 2
ENDMDL
MODEL 5
REMARK VINA RESULT:      -5.6      1.731      7.902
REMARK  Name = ZINC04716567
REMARK  5 active torsions:
REMARK  status: ('A' for Active; 'I' for Inactive)
REMARK    1  A    between atoms: C1_1  and  N1_2
REMARK    2  A    between atoms: C7_8  and  O2_12
REMARK    3  A    between atoms: C8_9  and  O1_10
REMARK    4  A    between atoms: O1_10  and  C9_11
REMARK    5  A    between atoms: O2_12  and  C10_13
REMARK                            x       y       z     vdW  Elec       q    Type
REMARK                         _______ _______ _______ _____ _____    ______ ____
ROOT
ATOM      1  C   UNL     1      45.472  16.552  19.520  0.00  0.00    +0.219 C 
ATOM      2  N   UNL     1      45.969  17.124  18.263  0.00  0.00    -0.503 N 
ATOM      3  C   UNL     1      45.411  18.454  18.022  0.00  0.00    +0.305 C 
ATOM      4  C   UNL     1      46.070  19.491  18.891  0.00  0.00    -0.092 A 
ATOM      5  C   UNL     1      47.424  19.338  19.218  0.00  0.00    -0.068 A 
ATOM      6  C   UNL     1      48.117  18.122  18.733  0.00  0.00    -0.071 A 
ATOM      7  C   UNL     1      49.516  18.036  18.766  0.00  0.00    +0.037 A 
ATOM      8  C   UNL     1      50.157  16.956  18.246  0.00  0.00    +0.030 A 
ATOM      9  C   UNL     1      49.419  15.941  17.600  0.00  0.00    -0.033 A 
ATOM     10  C   UNL     1      50.103  14.868  16.987  0.00  0.00    +0.046 A 
ATOM     11  C   UNL     1      49.342  13.933  16.339  0.00  0.00    +0.047 A 
ATOM     12  O   UNL     1      49.735  12.823  15.670  0.00  0.00    -0.303 OA
ATOM     13  C   UNL     1      48.551  12.005  15.556  0.00  0.00    +0.432 C 
ATOM     14  O   UNL     1      47.461  12.955  15.586  0.00  0.00    -0.305 OA
ATOM     15  C   UNL     1      47.932  14.017  16.284  0.00  0.00    +0.035 A 
ATOM     16  C   UNL     1      47.247  15.041  16.877  0.00  0.00    +0.081 A 
ATOM     17  C   UNL     1      48.006  16.014  17.560  0.00  0.00    -0.026 A 
ATOM     18  C   UNL     1      48.073  20.307  19.965  0.00  0.00    +0.068 A 
ATOM     19  C   UNL     1      47.387  21.424  20.400  0.00  0.00    -0.058 A 
ATOM     20  C   UNL     1      46.042  21.572  20.092  0.00  0.00    +0.118 A 
ATOM     23  C   UNL     1      45.385  20.603  19.339  0.00  0.00    +0.076 A 
ATOM     26  C   UNL     1      47.354  17.089  18.203  0.00  0.00    +0.125 A 
ENDROOT
BRANCH  20  21
ATOM     21  O   UNL     1      45.365  22.667  20.529  0.00  0.00    -0.305 OA
ATOM     22  C   UNL     1      44.962  22.676  21.901  0.00  0.00    +0.242 C 
ENDBRANCH  20  21
BRANCH  23  24
ATOM     24  O   UNL     1      44.069  20.756  19.034  0.00  0.00    -0.322 OA
ATOM     25  C   UNL     1      43.124  20.157  19.923  0.00  0.00    +0.222 C 
ENDBRANCH  23  24
TORSDOF 2
ENDMDL
MODEL 6
REMARK VINA RESULT:      -5.6      3.663      5.329
REMARK  Name = ZINC04716567
REMARK  5 active torsions:
REMARK  status: ('A' for Active; 'I' for Inactive)
REMARK    1  A    between atoms: C1_1  and  N1_2
REMARK    2  A    between atoms: C7_8  and  O2_12
REMARK    3  A    between atoms: C8_9  and  O1_10
REMARK    4  A    between atoms: O1_10  and  C9_11
REMARK    5  A    between atoms: O2_12  and  C10_13
REMARK                            x       y       z     vdW  Elec       q    Type
REMARK                         _______ _______ _______ _____ _____    ______ ____
ROOT
ATOM      1  C   UNL     1      46.236  18.491  17.739  0.00  0.00    +0.219 C 
ATOM      2  N   UNL     1      45.738  18.619  19.114  0.00  0.00    -0.503 N 
ATOM      3  C   UNL     1      46.596  17.912  20.063  0.00  0.00    +0.305 C 
ATOM      4  C   UNL     1      47.866  18.673  20.328  0.00  0.00    -0.092 A 
ATOM      5  C   UNL     1      47.831  20.073  20.312  0.00  0.00    -0.068 A 
ATOM      6  C   UNL     1      46.546  20.727  19.973  0.00  0.00    -0.071 A 
ATOM      7  C   UNL     1      46.353  22.095  20.216  0.00  0.00    +0.037 A 
ATOM      8  C   UNL     1      45.148  22.677  19.982  0.00  0.00    +0.030 A 
ATOM      9  C   UNL     1      44.055  21.892  19.560  0.00  0.00    -0.033 A 
ATOM     10  C   UNL     1      42.786  22.493  19.405  0.00  0.00    +0.046 A 
ATOM     11  C   UNL     1      41.750  21.678  19.034  0.00  0.00    +0.047 A 
ATOM     12  O   UNL     1      40.449  21.988  18.824  0.00  0.00    -0.303 OA
ATOM     13  C   UNL     1      39.909  20.885  18.067  0.00  0.00    +0.432 C 
ATOM     14  O   UNL     1      40.735  19.759  18.445  0.00  0.00    -0.305 OA
ATOM     15  C   UNL     1      41.928  20.295  18.802  0.00  0.00    +0.035 A 
ATOM     16  C   UNL     1      43.147  19.692  18.937  0.00  0.00    +0.081 A 
ATOM     17  C   UNL     1      44.234  20.511  19.310  0.00  0.00    -0.026 A 
ATOM     18  C   UNL     1      48.971  20.802  20.612  0.00  0.00    +0.068 A 
ATOM     19  C   UNL     1      50.149  20.151  20.920  0.00  0.00    -0.058 A 
ATOM     20  C   UNL     1      50.193  18.765  20.921  0.00  0.00    +0.118 A 
ATOM     23  C   UNL     1      49.050  18.027  20.623  0.00  0.00    +0.076 A 
ATOM     26  C   UNL     1      45.521  19.947  19.452  0.00  0.00    +0.125 A 
ENDROOT
BRANCH  20  21
ATOM     21  O   UNL     1      51.357  18.125  21.214  0.00  0.00    -0.305 OA
ATOM     22  C   UNL     1      52.323  18.023  20.165  0.00  0.00    +0.242 C 
ENDBRANCH  20  21
BRANCH  23  24
ATOM     24  O   UNL     1      49.097  16.669  20.633  0.00  0.00    -0.322 OA
ATOM     25  C   UNL     1      48.850  16.021  21.883  0.00  0.00    +0.222 C 
ENDBRANCH  23  24
TORSDOF 2
ENDMDL
MODEL 7
REMARK VINA RESULT:      -5.6      2.875      4.674
REMARK  Name = ZINC04716567
REMARK  5 active torsions:
REMARK  status: ('A' for Active; 'I' for Inactive)
REMARK    1  A    between atoms: C1_1  and  N1_2
REMARK    2  A    between atoms: C7_8  and  O2_12
REMARK    3  A    between atoms: C8_9  and  O1_10
REMARK    4  A    between atoms: O1_10  and  C9_11
REMARK    5  A    between atoms: O2_12  and  C10_13
REMARK                            x       y       z     vdW  Elec       q    Type
REMARK                         _______ _______ _______ _____ _____    ______ ____
ROOT
ATOM      1  C   UNL     1      47.382  17.029  16.869  0.00  0.00    +0.219 C 
ATOM      2  N   UNL     1      47.343  17.238  18.321  0.00  0.00    -0.503 N 
ATOM      3  C   UNL     1      48.277  16.353  19.016  0.00  0.00    +0.305 C 
ATOM      4  C   UNL     1      49.696  16.829  18.868  0.00  0.00    -0.092 A 
ATOM      5  C   UNL     1      49.944  18.205  18.796  0.00  0.00    -0.068 A 
ATOM      6  C   UNL     1      48.777  19.117  18.811  0.00  0.00    -0.071 A 
ATOM      7  C   UNL     1      48.947  20.492  19.034  0.00  0.00    +0.037 A 
ATOM      8  C   UNL     1      47.871  21.316  19.130  0.00  0.00    +0.030 A 
ATOM      9  C   UNL     1      46.566  20.783  19.078  0.00  0.00    -0.033 A 
ATOM     10  C   UNL     1      45.458  21.638  19.266  0.00  0.00    +0.046 A 
ATOM     11  C   UNL     1      44.216  21.062  19.248  0.00  0.00    +0.047 A 
ATOM     12  O   UNL     1      43.002  21.640  19.407  0.00  0.00    -0.303 OA
ATOM     13  C   UNL     1      42.051  20.685  18.891  0.00  0.00    +0.432 C 
ATOM     14  O   UNL     1      42.704  19.406  19.068  0.00  0.00    -0.305 OA
ATOM     15  C   UNL     1      44.032  19.676  19.041  0.00  0.00    +0.035 A 
ATOM     16  C   UNL     1      45.088  18.830  18.847  0.00  0.00    +0.081 A 
ATOM     17  C   UNL     1      46.380  19.398  18.852  0.00  0.00    -0.026 A 
ATOM     18  C   UNL     1      51.246  18.676  18.721  0.00  0.00    +0.068 A 
ATOM     19  C   UNL     1      52.304  17.788  18.706  0.00  0.00    -0.058 A 
ATOM     20  C   UNL     1      52.063  16.423  18.760  0.00  0.00    +0.118 A 
ATOM     23  C   UNL     1      50.758  15.945  18.839  0.00  0.00    +0.076 A 
ATOM     26  C   UNL     1      47.509  18.576  18.645  0.00  0.00    +0.125 A 
ENDROOT
BRANCH  20  21
ATOM     21  O   UNL     1      53.105  15.550  18.736  0.00  0.00    -0.305 OA
ATOM     22  C   UNL     1      54.271  15.912  19.479  0.00  0.00    +0.242 C 
ENDBRANCH  20  21
BRANCH  23  24
ATOM     24  O   UNL     1      50.527  14.607  18.900  0.00  0.00    -0.322 OA
ATOM     25  C   UNL     1      50.405  13.913  17.656  0.00  0.00    +0.222 C 
ENDBRANCH  23  24
TORSDOF 2
ENDMDL
MODEL 8
REMARK VINA RESULT:      -5.5      3.256      7.544
REMARK  Name = ZINC04716567
REMARK  5 active torsions:
REMARK  status: ('A' for Active; 'I' for Inactive)
REMARK    1  A    between atoms: C1_1  and  N1_2
REMARK    2  A    between atoms: C7_8  and  O2_12
REMARK    3  A    between atoms: C8_9  and  O1_10
REMARK    4  A    between atoms: O1_10  and  C9_11
REMARK    5  A    between atoms: O2_12  and  C10_13
REMARK                            x       y       z     vdW  Elec       q    Type
REMARK                         _______ _______ _______ _____ _____    ______ ____
ROOT
ATOM      1  C   UNL     1      46.465  17.919  21.308  0.00  0.00    +0.219 C 
ATOM      2  N   UNL     1      46.548  17.953  19.842  0.00  0.00    -0.503 N 
ATOM      3  C   UNL     1      45.243  18.214  19.237  0.00  0.00    +0.305 C 
ATOM      4  C   UNL     1      44.860  19.663  19.365  0.00  0.00    -0.092 A 
ATOM      5  C   UNL     1      45.867  20.636  19.326  0.00  0.00    -0.068 A 
ATOM      6  C   UNL     1      47.269  20.171  19.218  0.00  0.00    -0.071 A 
ATOM      7  C   UNL     1      48.296  21.067  18.885  0.00  0.00    +0.037 A 
ATOM      8  C   UNL     1      49.568  20.627  18.706  0.00  0.00    +0.030 A 
ATOM      9  C   UNL     1      49.856  19.248  18.784  0.00  0.00    -0.033 A 
ATOM     10  C   UNL     1      51.165  18.795  18.510  0.00  0.00    +0.046 A 
ATOM     11  C   UNL     1      51.381  17.444  18.558  0.00  0.00    +0.047 A 
ATOM     12  O   UNL     1      52.522  16.750  18.335  0.00  0.00    -0.303 OA
ATOM     13  C   UNL     1      52.299  15.447  18.915  0.00  0.00    +0.432 C 
ATOM     14  O   UNL     1      50.864  15.274  18.854  0.00  0.00    -0.305 OA
ATOM     15  C   UNL     1      50.351  16.529  18.877  0.00  0.00    +0.035 A 
ATOM     16  C   UNL     1      49.079  16.944  19.155  0.00  0.00    +0.081 A 
ATOM     17  C   UNL     1      48.831  18.332  19.121  0.00  0.00    -0.026 A 
ATOM     18  C   UNL     1      45.538  21.981  19.380  0.00  0.00    +0.068 A 
ATOM     19  C   UNL     1      44.217  22.369  19.483  0.00  0.00    -0.058 A 
ATOM     20  C   UNL     1      43.217  21.409  19.538  0.00  0.00    +0.118 A 
ATOM     23  C   UNL     1      43.540  20.056  19.481  0.00  0.00    +0.076 A 
ATOM     26  C   UNL     1      47.539  18.822  19.411  0.00  0.00    +0.125 A 
ENDROOT
BRANCH  20  21
ATOM     21  O   UNL     1      41.917  21.792  19.650  0.00  0.00    -0.305 OA
ATOM     22  C   UNL     1      41.204  22.028  18.434  0.00  0.00    +0.242 C 
ENDBRANCH  20  21
BRANCH  23  24
ATOM     24  O   UNL     1      42.556  19.120  19.529  0.00  0.00    -0.322 OA
ATOM     25  C   UNL     1      42.030  18.798  20.818  0.00  0.00    +0.222 C 
ENDBRANCH  23  24
TORSDOF 2
ENDMDL
MODEL 9
REMARK VINA RESULT:      -5.5      3.501      4.723
REMARK  Name = ZINC04716567
REMARK  5 active torsions:
REMARK  status: ('A' for Active; 'I' for Inactive)
REMARK    1  A    between atoms: C1_1  and  N1_2
REMARK    2  A    between atoms: C7_8  and  O2_12
REMARK    3  A    between atoms: C8_9  and  O1_10
REMARK    4  A    between atoms: O1_10  and  C9_11
REMARK    5  A    between atoms: O2_12  and  C10_13
REMARK                            x       y       z     vdW  Elec       q    Type
REMARK                         _______ _______ _______ _____ _____    ______ ____
ROOT
ATOM      1  C   UNL     1      50.582  13.980  18.218  0.00  0.00    +0.219 C 
ATOM      2  N   UNL     1      49.987  14.752  17.120  0.00  0.00    -0.503 N 
ATOM      3  C   UNL     1      49.389  13.878  16.113  0.00  0.00    +0.305 C 
ATOM      4  C   UNL     1      48.076  13.315  16.585  0.00  0.00    -0.092 A 
ATOM      5  C   UNL     1      47.265  14.098  17.417  0.00  0.00    -0.068 A 
ATOM      6  C   UNL     1      47.780  15.422  17.833  0.00  0.00    -0.071 A 
ATOM      7  C   UNL     1      46.926  16.372  18.413  0.00  0.00    +0.037 A 
ATOM      8  C   UNL     1      47.378  17.616  18.720  0.00  0.00    +0.030 A 
ATOM      9  C   UNL     1      48.698  17.988  18.390  0.00  0.00    -0.033 A 
ATOM     10  C   UNL     1      49.129  19.310  18.634  0.00  0.00    +0.046 A 
ATOM     11  C   UNL     1      50.406  19.630  18.257  0.00  0.00    +0.047 A 
ATOM     12  O   UNL     1      51.061  20.810  18.367  0.00  0.00    -0.303 OA
ATOM     13  C   UNL     1      52.459  20.488  18.214  0.00  0.00    +0.432 C 
ATOM     14  O   UNL     1      52.459  19.289  17.404  0.00  0.00    -0.305 OA
ATOM     15  C   UNL     1      51.271  18.688  17.656  0.00  0.00    +0.035 A 
ATOM     16  C   UNL     1      50.880  17.400  17.418  0.00  0.00    +0.081 A 
ATOM     17  C   UNL     1      49.572  17.040  17.806  0.00  0.00    -0.026 A 
ATOM     18  C   UNL     1      46.023  13.631  17.817  0.00  0.00    +0.068 A 
ATOM     19  C   UNL     1      45.584  12.388  17.408  0.00  0.00    -0.058 A 
ATOM     20  C   UNL     1      46.390  11.602  16.598  0.00  0.00    +0.118 A 
ATOM     23  C   UNL     1      47.637  12.067  16.189  0.00  0.00    +0.076 A 
ATOM     26  C   UNL     1      49.116  15.720  17.596  0.00  0.00    +0.125 A 
ENDROOT
BRANCH  20  21
ATOM     21  O   UNL     1      45.961  10.374  16.203  0.00  0.00    -0.305 OA
ATOM     22  C   UNL     1      44.975  10.333  15.168  0.00  0.00    +0.242 C 
ENDBRANCH  20  21
BRANCH  23  24
ATOM     24  O   UNL     1      48.421  11.296  15.389  0.00  0.00    -0.322 OA
ATOM     25  C   UNL     1      49.286  10.360  16.037  0.00  0.00    +0.222 C 
ENDBRANCH  23  24
TORSDOF 2
ENDMDL
