MODEL 1
REMARK VINA RESULT:      -5.9      0.000      0.000
REMARK  Name = ZINC00900117
REMARK  6 active torsions:
REMARK  status: ('A' for Active; 'I' for Inactive)
REMARK    1  A    between atoms: C2_2  and  C3_3
REMARK    2  A    between atoms: C3_3  and  C4_5
REMARK    3  A    between atoms: C3_3  and  C12_14
REMARK    4  A    between atoms: C5_6  and  C6_7
REMARK    5  A    between atoms: C9_10  and  O1_13
REMARK    6  A    between atoms: C15_17  and  O2_20
REMARK                            x       y       z     vdW  Elec       q    Type
REMARK                         _______ _______ _______ _____ _____    ______ ____
ROOT
ATOM      3  C   UNL     1      50.918  20.376  19.296  0.00  0.00    +0.102 C 
ENDROOT
BRANCH   3   4
ATOM      4  C   UNL     1      51.329  19.550  18.104  0.00  0.00    -0.112 A 
ATOM      5  C   UNL     1      51.314  18.170  18.183  0.00  0.00    +0.058 A 
ATOM      6  C   UNL     1      51.686  17.411  17.089  0.00  0.00    -0.033 A 
ATOM      7  C   UNL     1      52.084  18.034  15.917  0.00  0.00    +0.153 A 
ATOM     10  C   UNL     1      52.103  19.420  15.842  0.00  0.00    -0.086 A 
ATOM     11  C   UNL     1      51.725  20.174  16.936  0.00  0.00    +0.049 A 
BRANCH   7   8
ATOM      8  O   UNL     1      52.456  17.290  14.842  0.00  0.00    -0.512 OA
ATOM      9  H   UNL     1      52.602  16.205  14.948  0.00  0.00    +0.433 HD
ENDBRANCH   7   8
ENDBRANCH   3   4
BRANCH   3   2
ATOM      1  C   UNL     1      52.651  21.762  20.314  0.00  0.00    +0.011 C 
ATOM      2  C   UNL     1      51.764  21.621  19.361  0.00  0.00    -0.031 C 
ENDBRANCH   3   2
BRANCH   3  12
ATOM     12  C   UNL     1      49.467  20.761  19.164  0.00  0.00    -0.021 C 
ATOM     13  C   UNL     1      48.692  20.804  20.239  0.00  0.00    +0.009 C 
BRANCH  13  14
ATOM     14  C   UNL     1      47.269  21.181  20.109  0.00  0.00    -0.098 A 
ATOM     15  C   UNL     1      46.681  22.028  21.050  0.00  0.00    +0.059 A 
ATOM     16  C   UNL     1      45.355  22.382  20.923  0.00  0.00    -0.032 A 
ATOM     17  C   UNL     1      44.601  21.888  19.867  0.00  0.00    +0.157 A 
ATOM     20  C   UNL     1      45.181  21.041  18.932  0.00  0.00    -0.087 A 
ATOM     21  C   UNL     1      46.508  20.687  19.049  0.00  0.00    +0.058 A 
BRANCH  17  18
ATOM     18  O   UNL     1      43.293  22.235  19.748  0.00  0.00    -0.511 OA
ATOM     19  H   UNL     1      42.594  21.569  19.220  0.00  0.00    +0.434 HD
ENDBRANCH  17  18
ENDBRANCH  13  14
ENDBRANCH   3  12
TORSDOF 6
ENDMDL
MODEL 2
REMARK VINA RESULT:      -5.9      0.046      1.561
REMARK  Name = ZINC00900117
REMARK  6 active torsions:
REMARK  status: ('A' for Active; 'I' for Inactive)
REMARK    1  A    between atoms: C2_2  and  C3_3
REMARK    2  A    between atoms: C3_3  and  C4_5
REMARK    3  A    between atoms: C3_3  and  C12_14
REMARK    4  A    between atoms: C5_6  and  C6_7
REMARK    5  A    between atoms: C9_10  and  O1_13
REMARK    6  A    between atoms: C15_17  and  O2_20
REMARK                            x       y       z     vdW  Elec       q    Type
REMARK                         _______ _______ _______ _____ _____    ______ ____
ROOT
ATOM      3  C   UNL     1      50.902  20.397  19.326  0.00  0.00    +0.102 C 
ENDROOT
BRANCH   3   4
ATOM      4  C   UNL     1      51.316  19.576  18.132  0.00  0.00    -0.112 A 
ATOM      5  C   UNL     1      51.717  20.205  16.968  0.00  0.00    +0.058 A 
ATOM      6  C   UNL     1      52.102  19.454  15.874  0.00  0.00    -0.033 A 
ATOM      7  C   UNL     1      52.077  18.070  15.941  0.00  0.00    +0.153 A 
ATOM     10  C   UNL     1      51.669  17.441  17.108  0.00  0.00    -0.086 A 
ATOM     11  C   UNL     1      51.290  18.196  18.202  0.00  0.00    +0.049 A 
BRANCH   7   8
ATOM      8  O   UNL     1      52.449  17.329  14.864  0.00  0.00    -0.512 OA
ATOM      9  H   UNL     1      51.744  17.169  14.035  0.00  0.00    +0.433 HD
ENDBRANCH   7   8
ENDBRANCH   3   4
BRANCH   3   2
ATOM      1  C   UNL     1      52.650  21.775  20.329  0.00  0.00    +0.011 C 
ATOM      2  C   UNL     1      51.743  21.646  19.394  0.00  0.00    -0.031 C 
ENDBRANCH   3   2
BRANCH   3  12
ATOM     12  C   UNL     1      49.449  20.777  19.195  0.00  0.00    -0.021 C 
ATOM     13  C   UNL     1      48.679  20.831  20.274  0.00  0.00    +0.009 C 
BRANCH  13  14
ATOM     14  C   UNL     1      47.255  21.203  20.145  0.00  0.00    -0.098 A 
ATOM     15  C   UNL     1      46.506  20.744  19.060  0.00  0.00    +0.059 A 
ATOM     16  C   UNL     1      45.177  21.089  18.947  0.00  0.00    -0.032 A 
ATOM     17  C   UNL     1      44.584  21.901  19.904  0.00  0.00    +0.157 A 
ATOM     20  C   UNL     1      45.327  22.364  20.983  0.00  0.00    -0.087 A 
ATOM     21  C   UNL     1      46.655  22.019  21.106  0.00  0.00    +0.058 A 
BRANCH  17  18
ATOM     18  O   UNL     1      43.275  22.243  19.787  0.00  0.00    -0.511 OA
ATOM     19  H   UNL     1      42.900  23.157  20.270  0.00  0.00    +0.434 HD
ENDBRANCH  17  18
ENDBRANCH  13  14
ENDBRANCH   3  12
TORSDOF 6
ENDMDL
MODEL 3
REMARK VINA RESULT:      -5.8      1.070      7.134
REMARK  Name = ZINC00900117
REMARK  6 active torsions:
REMARK  status: ('A' for Active; 'I' for Inactive)
REMARK    1  A    between atoms: C2_2  and  C3_3
REMARK    2  A    between atoms: C3_3  and  C4_5
REMARK    3  A    between atoms: C3_3  and  C12_14
REMARK    4  A    between atoms: C5_6  and  C6_7
REMARK    5  A    between atoms: C9_10  and  O1_13
REMARK    6  A    between atoms: C15_17  and  O2_20
REMARK                            x       y       z     vdW  Elec       q    Type
REMARK                         _______ _______ _______ _____ _____    ______ ____
ROOT
ATOM      3  C   UNL     1      48.287  21.277  20.869  0.00  0.00    +0.102 C 
ENDROOT
BRANCH   3   4
ATOM      4  C   UNL     1      46.862  21.574  20.477  0.00  0.00    -0.112 A 
ATOM      5  C   UNL     1      46.114  22.470  21.218  0.00  0.00    +0.058 A 
ATOM      6  C   UNL     1      44.810  22.747  20.857  0.00  0.00    -0.033 A 
ATOM      7  C   UNL     1      44.247  22.119  19.757  0.00  0.00    +0.153 A 
ATOM     10  C   UNL     1      44.998  21.216  19.017  0.00  0.00    -0.086 A 
ATOM     11  C   UNL     1      46.304  20.946  19.378  0.00  0.00    +0.049 A 
BRANCH   7   8
ATOM      8  O   UNL     1      42.963  22.386  19.403  0.00  0.00    -0.512 OA
ATOM      9  H   UNL     1      42.653  22.304  18.351  0.00  0.00    +0.433 HD
ENDBRANCH   7   8
ENDBRANCH   3   4
BRANCH   3   2
ATOM      1  C   UNL     1      48.126  19.198  22.140  0.00  0.00    +0.011 C 
ATOM      2  C   UNL     1      48.300  20.496  22.158  0.00  0.00    -0.031 C 
ENDBRANCH   3   2
BRANCH   3  12
ATOM     12  C   UNL     1      48.948  20.466  19.784  0.00  0.00    -0.021 C 
ATOM     13  C   UNL     1      49.985  20.964  19.124  0.00  0.00    +0.009 C 
BRANCH  13  14
ATOM     14  C   UNL     1      50.633  20.169  18.061  0.00  0.00    -0.098 A 
ATOM     15  C   UNL     1      51.438  20.798  17.109  0.00  0.00    +0.059 A 
ATOM     16  C   UNL     1      52.045  20.052  16.121  0.00  0.00    -0.032 A 
ATOM     17  C   UNL     1      51.848  18.680  16.065  0.00  0.00    +0.157 A 
ATOM     20  C   UNL     1      51.043  18.050  17.007  0.00  0.00    -0.087 A 
ATOM     21  C   UNL     1      50.438  18.788  18.001  0.00  0.00    +0.058 A 
BRANCH  17  18
ATOM     18  O   UNL     1      52.443  17.948  15.087  0.00  0.00    -0.511 OA
ATOM     19  H   UNL     1      52.369  16.851  15.098  0.00  0.00    +0.434 HD
ENDBRANCH  17  18
ENDBRANCH  13  14
ENDBRANCH   3  12
TORSDOF 6
ENDMDL
MODEL 4
REMARK VINA RESULT:      -5.8      1.826      2.716
REMARK  Name = ZINC00900117
REMARK  6 active torsions:
REMARK  status: ('A' for Active; 'I' for Inactive)
REMARK    1  A    between atoms: C2_2  and  C3_3
REMARK    2  A    between atoms: C3_3  and  C4_5
REMARK    3  A    between atoms: C3_3  and  C12_14
REMARK    4  A    between atoms: C5_6  and  C6_7
REMARK    5  A    between atoms: C9_10  and  O1_13
REMARK    6  A    between atoms: C15_17  and  O2_20
REMARK                            x       y       z     vdW  Elec       q    Type
REMARK                         _______ _______ _______ _____ _____    ______ ____
ROOT
ATOM      3  C   UNL     1      49.181  18.251  18.891  0.00  0.00    +0.102 C 
ENDROOT
BRANCH   3   4
ATOM      4  C   UNL     1      50.112  19.082  18.045  0.00  0.00    -0.112 A 
ATOM      5  C   UNL     1      50.320  20.413  18.353  0.00  0.00    +0.058 A 
ATOM      6  C   UNL     1      51.177  21.176  17.582  0.00  0.00    -0.033 A 
ATOM      7  C   UNL     1      51.819  20.607  16.492  0.00  0.00    +0.153 A 
ATOM     10  C   UNL     1      51.603  19.272  16.182  0.00  0.00    -0.086 A 
ATOM     11  C   UNL     1      50.751  18.512  16.959  0.00  0.00    +0.049 A 
BRANCH   7   8
ATOM      8  O   UNL     1      52.657  21.356  15.729  0.00  0.00    -0.512 OA
ATOM      9  H   UNL     1      52.258  21.946  14.890  0.00  0.00    +0.433 HD
ENDBRANCH   7   8
ENDBRANCH   3   4
BRANCH   3   2
ATOM      1  C   UNL     1      49.458  18.245  21.316  0.00  0.00    +0.011 C 
ATOM      2  C   UNL     1      49.890  17.830  20.152  0.00  0.00    -0.031 C 
ENDBRANCH   3   2
BRANCH   3  12
ATOM     12  C   UNL     1      47.964  19.064  19.247  0.00  0.00    -0.021 C 
ATOM     13  C   UNL     1      46.955  19.156  18.391  0.00  0.00    +0.009 C 
BRANCH  13  14
ATOM     14  C   UNL     1      45.761  19.954  18.740  0.00  0.00    -0.098 A 
ATOM     15  C   UNL     1      45.903  21.274  19.172  0.00  0.00    +0.059 A 
ATOM     16  C   UNL     1      44.787  22.016  19.492  0.00  0.00    -0.032 A 
ATOM     17  C   UNL     1      43.524  21.451  19.395  0.00  0.00    +0.157 A 
ATOM     20  C   UNL     1      43.378  20.136  18.971  0.00  0.00    -0.087 A 
ATOM     21  C   UNL     1      44.489  19.388  18.644  0.00  0.00    +0.058 A 
BRANCH  17  18
ATOM     18  O   UNL     1      42.426  22.184  19.717  0.00  0.00    -0.511 OA
ATOM     19  H   UNL     1      42.426  22.806  20.623  0.00  0.00    +0.434 HD
ENDBRANCH  17  18
ENDBRANCH  13  14
ENDBRANCH   3  12
TORSDOF 6
ENDMDL
MODEL 5
REMARK VINA RESULT:      -5.5      2.892      7.561
REMARK  Name = ZINC00900117
REMARK  6 active torsions:
REMARK  status: ('A' for Active; 'I' for Inactive)
REMARK    1  A    between atoms: C2_2  and  C3_3
REMARK    2  A    between atoms: C3_3  and  C4_5
REMARK    3  A    between atoms: C3_3  and  C12_14
REMARK    4  A    between atoms: C5_6  and  C6_7
REMARK    5  A    between atoms: C9_10  and  O1_13
REMARK    6  A    between atoms: C15_17  and  O2_20
REMARK                            x       y       z     vdW  Elec       q    Type
REMARK                         _______ _______ _______ _____ _____    ______ ____
ROOT
ATOM      3  C   UNL     1      46.589  17.313  19.014  0.00  0.00    +0.102 C 
ENDROOT
BRANCH   3   4
ATOM      4  C   UNL     1      45.352  18.133  19.277  0.00  0.00    -0.112 A 
ATOM      5  C   UNL     1      44.499  17.783  20.308  0.00  0.00    +0.058 A 
ATOM      6  C   UNL     1      43.367  18.536  20.554  0.00  0.00    -0.033 A 
ATOM      7  C   UNL     1      43.082  19.637  19.760  0.00  0.00    +0.153 A 
ATOM     10  C   UNL     1      43.937  19.982  18.723  0.00  0.00    -0.086 A 
ATOM     11  C   UNL     1      45.071  19.230  18.485  0.00  0.00    +0.049 A 
BRANCH   7   8
ATOM      8  O   UNL     1      41.966  20.376  19.996  0.00  0.00    -0.512 OA
ATOM      9  H   UNL     1      41.364  20.192  20.899  0.00  0.00    +0.433 HD
ENDBRANCH   7   8
ENDBRANCH   3   4
BRANCH   3   2
ATOM      1  C   UNL     1      46.193  14.922  18.714  0.00  0.00    +0.011 C 
ATOM      2  C   UNL     1      46.229  16.115  18.174  0.00  0.00    -0.031 C 
ENDBRANCH   3   2
BRANCH   3  12
ATOM     12  C   UNL     1      47.603  18.153  18.282  0.00  0.00    -0.021 C 
ATOM     13  C   UNL     1      48.860  18.190  18.701  0.00  0.00    +0.009 C 
BRANCH  13  14
ATOM     14  C   UNL     1      49.854  19.015  17.983  0.00  0.00    -0.098 A 
ATOM     15  C   UNL     1      50.575  18.473  16.917  0.00  0.00    +0.059 A 
ATOM     16  C   UNL     1      51.497  19.247  16.247  0.00  0.00    -0.032 A 
ATOM     17  C   UNL     1      51.719  20.560  16.637  0.00  0.00    +0.157 A 
ATOM     20  C   UNL     1      51.008  21.102  17.701  0.00  0.00    -0.087 A 
ATOM     21  C   UNL     1      50.079  20.336  18.372  0.00  0.00    +0.058 A 
BRANCH  17  18
ATOM     18  O   UNL     1      52.633  21.318  15.978  0.00  0.00    -0.511 OA
ATOM     19  H   UNL     1      53.221  22.071  16.524  0.00  0.00    +0.434 HD
ENDBRANCH  17  18
ENDBRANCH  13  14
ENDBRANCH   3  12
TORSDOF 6
ENDMDL
MODEL 6
REMARK VINA RESULT:      -5.4      3.775      7.077
REMARK  Name = ZINC00900117
REMARK  6 active torsions:
REMARK  status: ('A' for Active; 'I' for Inactive)
REMARK    1  A    between atoms: C2_2  and  C3_3
REMARK    2  A    between atoms: C3_3  and  C4_5
REMARK    3  A    between atoms: C3_3  and  C12_14
REMARK    4  A    between atoms: C5_6  and  C6_7
REMARK    5  A    between atoms: C9_10  and  O1_13
REMARK    6  A    between atoms: C15_17  and  O2_20
REMARK                            x       y       z     vdW  Elec       q    Type
REMARK                         _______ _______ _______ _____ _____    ______ ____
ROOT
ATOM      3  C   UNL     1      47.608  20.520  18.960  0.00  0.00    +0.102 C 
ENDROOT
BRANCH   3   4
ATOM      4  C   UNL     1      46.647  21.324  19.797  0.00  0.00    -0.112 A 
ATOM      5  C   UNL     1      45.419  21.691  19.278  0.00  0.00    +0.058 A 
ATOM      6  C   UNL     1      44.534  22.424  20.045  0.00  0.00    -0.033 A 
ATOM      7  C   UNL     1      44.883  22.801  21.333  0.00  0.00    +0.153 A 
ATOM     10  C   UNL     1      46.118  22.437  21.850  0.00  0.00    -0.086 A 
ATOM     11  C   UNL     1      46.996  21.698  21.081  0.00  0.00    +0.049 A 
BRANCH   7   8
ATOM      8  O   UNL     1      44.017  23.527  22.088  0.00  0.00    -0.512 OA
ATOM      9  H   UNL     1      44.387  24.363  22.700  0.00  0.00    +0.433 HD
ENDBRANCH   7   8
ENDBRANCH   3   4
BRANCH   3   2
ATOM      1  C   UNL     1      49.988  20.847  18.524  0.00  0.00    +0.011 C 
ATOM      2  C   UNL     1      49.020  20.802  19.405  0.00  0.00    -0.031 C 
ENDBRANCH   3   2
BRANCH   3  12
ATOM     12  C   UNL     1      47.313  19.052  19.129  0.00  0.00    -0.021 C 
ATOM     13  C   UNL     1      46.622  18.404  18.200  0.00  0.00    +0.009 C 
BRANCH  13  14
ATOM     14  C   UNL     1      46.332  16.965  18.365  0.00  0.00    -0.098 A 
ATOM     15  C   UNL     1      46.768  16.048  17.406  0.00  0.00    +0.059 A 
ATOM     16  C   UNL     1      46.500  14.706  17.566  0.00  0.00    -0.032 A 
ATOM     17  C   UNL     1      45.788  14.265  18.673  0.00  0.00    +0.157 A 
ATOM     20  C   UNL     1      45.348  15.174  19.627  0.00  0.00    -0.087 A 
ATOM     21  C   UNL     1      45.618  16.518  19.477  0.00  0.00    +0.058 A 
BRANCH  17  18
ATOM     18  O   UNL     1      45.521  12.942  18.825  0.00  0.00    -0.511 OA
ATOM     19  H   UNL     1      46.221  12.299  19.379  0.00  0.00    +0.434 HD
ENDBRANCH  17  18
ENDBRANCH  13  14
ENDBRANCH   3  12
TORSDOF 6
ENDMDL
MODEL 7
REMARK VINA RESULT:      -5.4     18.241     19.578
REMARK  Name = ZINC00900117
REMARK  6 active torsions:
REMARK  status: ('A' for Active; 'I' for Inactive)
REMARK    1  A    between atoms: C2_2  and  C3_3
REMARK    2  A    between atoms: C3_3  and  C4_5
REMARK    3  A    between atoms: C3_3  and  C12_14
REMARK    4  A    between atoms: C5_6  and  C6_7
REMARK    5  A    between atoms: C9_10  and  O1_13
REMARK    6  A    between atoms: C15_17  and  O2_20
REMARK                            x       y       z     vdW  Elec       q    Type
REMARK                         _______ _______ _______ _____ _____    ______ ____
ROOT
ATOM      3  C   UNL     1      57.615  32.959   4.618  0.00  0.00    +0.102 C 
ENDROOT
BRANCH   3   4
ATOM      4  C   UNL     1      57.981  31.640   3.987  0.00  0.00    -0.112 A 
ATOM      5  C   UNL     1      57.330  31.218   2.843  0.00  0.00    +0.058 A 
ATOM      6  C   UNL     1      57.667  30.011   2.260  0.00  0.00    -0.033 A 
ATOM      7  C   UNL     1      58.652  29.219   2.829  0.00  0.00    +0.153 A 
ATOM     10  C   UNL     1      59.301  29.642   3.980  0.00  0.00    -0.086 A 
ATOM     11  C   UNL     1      58.964  30.852   4.556  0.00  0.00    +0.049 A 
BRANCH   7   8
ATOM      8  O   UNL     1      58.982  28.029   2.261  0.00  0.00    -0.512 OA
ATOM      9  H   UNL     1      58.259  27.509   1.614  0.00  0.00    +0.433 HD
ENDBRANCH   7   8
ENDBRANCH   3   4
BRANCH   3   2
ATOM      1  C   UNL     1      58.838  35.028   4.188  0.00  0.00    +0.011 C 
ATOM      2  C   UNL     1      58.059  34.085   3.720  0.00  0.00    -0.031 C 
ENDBRANCH   3   2
BRANCH   3  12
ATOM     12  C   UNL     1      56.122  33.027   4.809  0.00  0.00    -0.021 C 
ATOM     13  C   UNL     1      55.620  33.357   5.991  0.00  0.00    +0.009 C 
BRANCH  13  14
ATOM     14  C   UNL     1      54.156  33.424   6.179  0.00  0.00    -0.098 A 
ATOM     15  C   UNL     1      53.336  32.425   5.651  0.00  0.00    +0.059 A 
ATOM     16  C   UNL     1      51.971  32.488   5.833  0.00  0.00    -0.032 A 
ATOM     17  C   UNL     1      51.411  33.550   6.530  0.00  0.00    +0.157 A 
ATOM     20  C   UNL     1      52.222  34.549   7.052  0.00  0.00    -0.087 A 
ATOM     21  C   UNL     1      53.589  34.489   6.880  0.00  0.00    +0.058 A 
BRANCH  17  18
ATOM     18  O   UNL     1      50.064  33.612   6.702  0.00  0.00    -0.511 OA
ATOM     19  H   UNL     1      49.482  34.403   6.207  0.00  0.00    +0.434 HD
ENDBRANCH  17  18
ENDBRANCH  13  14
ENDBRANCH   3  12
TORSDOF 6
ENDMDL
MODEL 8
REMARK VINA RESULT:      -5.3      3.337      4.585
REMARK  Name = ZINC00900117
REMARK  6 active torsions:
REMARK  status: ('A' for Active; 'I' for Inactive)
REMARK    1  A    between atoms: C2_2  and  C3_3
REMARK    2  A    between atoms: C3_3  and  C4_5
REMARK    3  A    between atoms: C3_3  and  C12_14
REMARK    4  A    between atoms: C5_6  and  C6_7
REMARK    5  A    between atoms: C9_10  and  O1_13
REMARK    6  A    between atoms: C15_17  and  O2_20
REMARK                            x       y       z     vdW  Elec       q    Type
REMARK                         _______ _______ _______ _____ _____    ______ ____
ROOT
ATOM      3  C   UNL     1      46.697  19.479  19.477  0.00  0.00    +0.102 C 
ENDROOT
BRANCH   3   4
ATOM      4  C   UNL     1      47.075  18.275  18.653  0.00  0.00    -0.112 A 
ATOM      5  C   UNL     1      46.276  17.886  17.594  0.00  0.00    +0.058 A 
ATOM      6  C   UNL     1      46.623  16.785  16.834  0.00  0.00    -0.033 A 
ATOM      7  C   UNL     1      47.767  16.064  17.141  0.00  0.00    +0.153 A 
ATOM     10  C   UNL     1      48.564  16.454  18.209  0.00  0.00    -0.086 A 
ATOM     11  C   UNL     1      48.216  17.559  18.961  0.00  0.00    +0.049 A 
BRANCH   7   8
ATOM      8  O   UNL     1      48.107  14.978  16.399  0.00  0.00    -0.512 OA
ATOM      9  H   UNL     1      48.203  15.065  15.307  0.00  0.00    +0.433 HD
ENDBRANCH   7   8
ENDBRANCH   3   4
BRANCH   3   2
ATOM      1  C   UNL     1      48.366  21.063  20.294  0.00  0.00    +0.011 C 
ATOM      2  C   UNL     1      47.717  20.569  19.270  0.00  0.00    -0.031 C 
ENDBRANCH   3   2
BRANCH   3  12
ATOM     12  C   UNL     1      45.340  19.975  19.050  0.00  0.00    -0.021 C 
ATOM     13  C   UNL     1      44.358  20.063  19.938  0.00  0.00    +0.009 C 
BRANCH  13  14
ATOM     14  C   UNL     1      43.026  20.548  19.520  0.00  0.00    -0.098 A 
ATOM     15  C   UNL     1      42.844  21.891  19.184  0.00  0.00    +0.059 A 
ATOM     16  C   UNL     1      41.601  22.338  18.790  0.00  0.00    -0.032 A 
ATOM     17  C   UNL     1      40.529  21.458  18.737  0.00  0.00    +0.157 A 
ATOM     20  C   UNL     1      40.705  20.122  19.075  0.00  0.00    -0.087 A 
ATOM     21  C   UNL     1      41.946  19.666  19.465  0.00  0.00    +0.058 A 
BRANCH  17  18
ATOM     18  O   UNL     1      39.304  21.904  18.353  0.00  0.00    -0.511 OA
ATOM     19  H   UNL     1      38.844  21.521  17.430  0.00  0.00    +0.434 HD
ENDBRANCH  17  18
ENDBRANCH  13  14
ENDBRANCH   3  12
TORSDOF 6
ENDMDL
MODEL 9
REMARK VINA RESULT:      -5.3      5.509      6.215
REMARK  Name = ZINC00900117
REMARK  6 active torsions:
REMARK  status: ('A' for Active; 'I' for Inactive)
REMARK    1  A    between atoms: C2_2  and  C3_3
REMARK    2  A    between atoms: C3_3  and  C4_5
REMARK    3  A    between atoms: C3_3  and  C12_14
REMARK    4  A    between atoms: C5_6  and  C6_7
REMARK    5  A    between atoms: C9_10  and  O1_13
REMARK    6  A    between atoms: C15_17  and  O2_20
REMARK                            x       y       z     vdW  Elec       q    Type
REMARK                         _______ _______ _______ _____ _____    ______ ____
ROOT
ATOM      3  C   UNL     1      45.224  16.225  20.546  0.00  0.00    +0.102 C 
ENDROOT
BRANCH   3   4
ATOM      4  C   UNL     1      45.567  15.256  19.444  0.00  0.00    -0.112 A 
ATOM      5  C   UNL     1      45.188  13.930  19.547  0.00  0.00    +0.058 A 
ATOM      6  C   UNL     1      45.497  13.041  18.535  0.00  0.00    -0.033 A 
ATOM      7  C   UNL     1      46.197  13.477  17.421  0.00  0.00    +0.153 A 
ATOM     10  C   UNL     1      46.582  14.807  17.322  0.00  0.00    -0.086 A 
ATOM     11  C   UNL     1      46.265  15.693  18.333  0.00  0.00    +0.049 A 
BRANCH   7   8
ATOM      8  O   UNL     1      46.508  12.604  16.427  0.00  0.00    -0.512 OA
ATOM      9  H   UNL     1      47.278  11.835  16.591  0.00  0.00    +0.433 HD
ENDBRANCH   7   8
ENDBRANCH   3   4
BRANCH   3   2
ATOM      1  C   UNL     1      46.853  15.936  22.341  0.00  0.00    +0.011 C 
ATOM      2  C   UNL     1      46.480  16.612  21.284  0.00  0.00    -0.031 C 
ENDBRANCH   3   2
BRANCH   3  12
ATOM     12  C   UNL     1      44.590  17.456  19.953  0.00  0.00    -0.021 C 
ATOM     13  C   UNL     1      43.727  18.166  20.667  0.00  0.00    +0.009 C 
BRANCH  13  14
ATOM     14  C   UNL     1      43.105  19.374  20.085  0.00  0.00    -0.098 A 
ATOM     15  C   UNL     1      43.845  20.550  19.957  0.00  0.00    +0.059 A 
ATOM     16  C   UNL     1      43.262  21.673  19.410  0.00  0.00    -0.032 A 
ATOM     17  C   UNL     1      41.938  21.638  18.996  0.00  0.00    +0.157 A 
ATOM     20  C   UNL     1      41.196  20.471  19.126  0.00  0.00    -0.087 A 
ATOM     21  C   UNL     1      41.773  19.342  19.667  0.00  0.00    +0.058 A 
BRANCH  17  18
ATOM     18  O   UNL     1      41.365  22.749  18.462  0.00  0.00    -0.511 OA
ATOM     19  H   UNL     1      40.991  23.546  19.121  0.00  0.00    +0.434 HD
ENDBRANCH  17  18
ENDBRANCH  13  14
ENDBRANCH   3  12
TORSDOF 6
ENDMDL
