REMARK  Name = ZINC00265517
REMARK  2 active torsions:
REMARK  status: ('A' for Active; 'I' for Inactive)
REMARK    1  A    between atoms: C1_1  and  O1_2
REMARK    2  A    between atoms: O1_2  and  C2_3
REMARK                            x       y       z     vdW  Elec       q    Type
REMARK                         _______ _______ _______ _____ _____    ______ ____
ROOT
ATOM      3  C   UNL     1      -1.197  -0.636   0.010  0.00  0.00    +0.210 A 
ATOM      4  C   UNL     1      -1.834  -0.977   1.222  0.00  0.00    -0.137 A 
ATOM      5  C   UNL     1      -1.248  -0.674   2.461  0.00  0.00    +0.054 A 
ATOM      6  C   UNL     1      -1.891  -1.018   3.611  0.00  0.00    +0.011 A 
ATOM      7  C   UNL     1      -3.123  -1.667   3.574  0.00  0.00    +0.053 A 
ATOM      8  C   UNL     1      -3.719  -1.976   2.391  0.00  0.00    +0.041 A 
ATOM      9  C   UNL     1      -3.088  -1.638   1.179  0.00  0.00    +0.187 A 
ATOM     10  N   UNL     1      -3.660  -1.934   0.009  0.00  0.00    -0.476 NA
ATOM     11  C   UNL     1      -3.091  -1.629  -1.143  0.00  0.00    +0.313 A 
ATOM     12  O   UNL     1      -3.467  -1.822  -2.425  0.00  0.00    -0.193 OA
ATOM     13  C   UNL     1      -2.555  -1.317  -3.277  0.00  0.00    +0.249 A 
ATOM     14  C   UNL     1      -1.531  -0.784  -2.599  0.00  0.00    -0.031 A 
ATOM     15  C   UNL     1      -1.845  -0.965  -1.176  0.00  0.00    -0.202 A 
ENDROOT
BRANCH   3   2
ATOM      1  C   UNL     1      -0.017   1.425   0.010  0.00  0.00    +0.246 C 
ATOM      2  O   UNL     1       0.002  -0.004   0.002  0.00  0.00    -0.326 OA
ENDBRANCH   3   2
TORSDOF 1
