REMARK  Name = ZINC95486345
REMARK  11 active torsions:
REMARK  status: ('A' for Active; 'I' for Inactive)
REMARK    1  A    between atoms: C1_1  and  N1_2
REMARK    2  A    between atoms: C6_7  and  O5_27
REMARK    3  A    between atoms: C7_8  and  O3_24
REMARK    4  A    between atoms: C15_17  and  O2_22
REMARK    5  A    between atoms: C16_18  and  O1_20
REMARK    6  A    between atoms: O1_20  and  C18_21
REMARK    7  A    between atoms: O2_22  and  C19_23
REMARK    8  A    between atoms: O3_24  and  C20_25
REMARK    9  A    between atoms: C20_25  and  O4_26
REMARK   10  A    between atoms: O5_27  and  C21_28
REMARK   11  A    between atoms: C21_28  and  O6_29
REMARK                            x       y       z     vdW  Elec       q    Type
REMARK                         _______ _______ _______ _____ _____    ______ ____
ROOT
ATOM      1  C   UNL     1       0.559   1.810   0.465  0.00  0.00    +0.196 C 
ATOM      2  N   UNL     1       0.397   0.356   0.336  0.00  0.00    -0.535 NA
ATOM      3  C   UNL     1       0.813  -0.103  -0.990  0.00  0.00    +0.177 C 
ATOM      4  C   UNL     1       0.413  -1.553  -1.210  0.00  0.00    +0.091 C 
ATOM      5  C   UNL     1       0.575  -2.385   0.030  0.00  0.00    -0.022 A 
ATOM      6  C   UNL     1       0.390  -3.759  -0.079  0.00  0.00    -0.060 A 
ATOM      7  C   UNL     1       0.546  -4.585   1.020  0.00  0.00    +0.134 A 
ATOM     12  C   UNL     1       0.888  -4.039   2.251  0.00  0.00    +0.063 A 
ATOM     17  C   UNL     1       1.055  -2.660   2.367  0.00  0.00    -0.006 A 
ATOM     18  C   UNL     1       1.414  -2.056   3.672  0.00  0.00    -0.049 A 
ATOM     19  C   UNL     1       1.926  -2.843   4.700  0.00  0.00    +0.009 A 
ATOM     20  C   UNL     1       2.272  -2.256   5.905  0.00  0.00    +0.092 A 
ATOM     23  C   UNL     1       2.107  -0.885   6.084  0.00  0.00    +0.111 A 
ATOM     26  C   UNL     1       1.590  -0.105   5.061  0.00  0.00    -0.034 A 
ATOM     27  C   UNL     1       1.236  -0.687   3.860  0.00  0.00    -0.060 A 
ATOM     28  C   UNL     1       0.655   0.147   2.751  0.00  0.00    +0.103 C 
ATOM     29  C   UNL     1       0.907  -1.835   1.249  0.00  0.00    -0.090 A 
ATOM     30  C   UNL     1       1.137  -0.353   1.391  0.00  0.00    +0.194 C 
ENDROOT
BRANCH  20  21
ATOM     21  O   UNL     1       2.771  -3.019   6.915  0.00  0.00    -0.305 OA
ATOM     22  C   UNL     1       3.013  -4.398   6.627  0.00  0.00    +0.238 C 
ENDBRANCH  20  21
BRANCH  23  24
ATOM     24  O   UNL     1       2.454  -0.309   7.266  0.00  0.00    -0.304 OA
ATOM     25  C   UNL     1       2.258   1.102   7.382  0.00  0.00    +0.237 C 
ENDBRANCH  23  24
BRANCH   7   8
ATOM      8  O   UNL     1       0.365  -5.927   0.895  0.00  0.00    -0.269 OA
BRANCH   8   9
ATOM      9  C   UNL     1       0.014  -6.417  -0.401  0.00  0.00    +0.391 C 
BRANCH   9  10
ATOM     10  O   UNL     1       1.167  -6.399  -1.245  0.00  0.00    -0.589 OA
ATOM     11  H   UNL     1       1.002  -6.719  -2.142  0.00  0.00    +0.398 HD
ENDBRANCH   9  10
ENDBRANCH   8   9
ENDBRANCH   7   8
BRANCH  12  13
ATOM     13  O   UNL     1       1.058  -4.843   3.334  0.00  0.00    -0.299 OA
BRANCH  13  14
ATOM     14  C   UNL     1      -0.111  -5.177   4.084  0.00  0.00    +0.376 C 
BRANCH  14  15
ATOM     15  O   UNL     1      -0.869  -6.157   3.372  0.00  0.00    -0.579 OA
ATOM     16  H   UNL     1      -1.716  -6.376   3.785  0.00  0.00    +0.391 HD
ENDBRANCH  14  15
ENDBRANCH  13  14
ENDBRANCH  12  13
TORSDOF 8
