REMARK  Name = ZINC95485967
REMARK  12 active torsions:
REMARK  status: ('A' for Active; 'I' for Inactive)
REMARK    1  A    between atoms: C1_1  and  C2_2
REMARK    2  A    between atoms: C4_4  and  O4_32
REMARK    3  A    between atoms: C7_7  and  C8_8
REMARK    4  A    between atoms: C8_8  and  C9_9
REMARK    5  A    between atoms: C9_9  and  C10_10
REMARK    6  A    between atoms: C11_11  and  C12_12
REMARK    7  A    between atoms: C11_11  and  C13_13
REMARK    8  A    between atoms: C21_23  and  C22_25
REMARK    9  A    between atoms: C22_25  and  C23_26
REMARK   10  A    between atoms: C23_26  and  C24_27
REMARK   11  A    between atoms: C25_28  and  C26_29
REMARK   12  A    between atoms: C25_28  and  C27_30
REMARK                            x       y       z     vdW  Elec       q    Type
REMARK                         _______ _______ _______ _____ _____    ______ ____
ROOT
ATOM      1  C   UNL     1       2.749   1.461   0.585  0.00  0.00    +0.076 C 
ATOM      2  C   UNL     1       1.772   0.326   0.416  0.00  0.00    -0.048 A 
ATOM      3  C   UNL     1       1.403  -0.074  -0.864  0.00  0.00    -0.101 A 
ATOM      4  C   UNL     1       0.512  -1.110  -1.047  0.00  0.00    +0.180 A 
ATOM      7  C   UNL     1      -0.026  -1.768   0.077  0.00  0.00    -0.179 A 
ATOM      8  C   UNL     1       0.353  -1.349   1.377  0.00  0.00    +0.055 A 
ATOM      9  C   UNL     1      -0.189  -1.997   2.503  0.00  0.00    -0.160 A 
ATOM     10  C   UNL     1      -1.072  -3.022   2.359  0.00  0.00    +0.051 A 
ATOM     11  C   UNL     1      -1.635  -3.650   3.610  0.00  0.00    +0.004 C 
ATOM     18  C   UNL     1      -2.261  -4.984   3.289  0.00  0.00    +0.386 C 
ATOM     19  O   UNL     1      -2.041  -5.957   3.971  0.00  0.00    -0.461 OA
ATOM     20  C   UNL     1      -3.176  -5.064   2.082  0.00  0.00    +0.004 C 
ATOM     21  C   UNL     1      -2.366  -4.591   0.894  0.00  0.00    +0.406 C 
ATOM     22  O   UNL     1      -2.475  -5.135  -0.185  0.00  0.00    -0.456 OA
ATOM     23  C   UNL     1      -1.446  -3.462   1.075  0.00  0.00    -0.381 A 
ATOM     24  C   UNL     1      -0.932  -2.833  -0.067  0.00  0.00    +0.343 A 
ATOM     25  O   UNL     1      -1.305  -3.248  -1.299  0.00  0.00    -0.615 OA
ATOM     26  C   UNL     1       1.268  -0.295   1.520  0.00  0.00    -0.133 A 
ENDROOT
BRANCH   4   5
ATOM      5  O   UNL     1       0.157  -1.494  -2.300  0.00  0.00    -0.478 OA
ATOM      6  H   UNL     1       0.725  -2.179  -2.677  0.00  0.00    +0.385 HD
ENDBRANCH   4   5
BRANCH  11  12
ATOM     12  C   UNL     1      -2.696  -2.723   4.207  0.00  0.00    +0.061 C 
BRANCH  12  13
ATOM     13  C   UNL     1      -3.181  -3.296   5.541  0.00  0.00    +0.042 C 
BRANCH  13  14
ATOM     14  C   UNL     1      -4.226  -2.384   6.129  0.00  0.00    -0.046 C 
ATOM     15  C   UNL     1      -5.385  -2.868   6.499  0.00  0.00    -0.142 C 
ATOM     16  C   UNL     1      -6.501  -1.935   6.894  0.00  0.00    +0.069 C 
ATOM     17  C   UNL     1      -5.603  -4.359   6.531  0.00  0.00    +0.069 C 
ENDBRANCH  13  14
ENDBRANCH  12  13
ENDBRANCH  11  12
BRANCH  26  27
ATOM     27  C   UNL     1       1.690   0.154   2.895  0.00  0.00    +0.071 C 
BRANCH  27  28
ATOM     28  C   UNL     1       0.738   1.246   3.389  0.00  0.00    +0.055 C 
BRANCH  28  29
ATOM     29  C   UNL     1       1.160   1.695   4.765  0.00  0.00    -0.046 C 
ATOM     30  C   UNL     1       1.490   2.946   4.973  0.00  0.00    -0.147 C 
ATOM     31  C   UNL     1       1.779   3.426   6.371  0.00  0.00    +0.066 C 
ATOM     32  C   UNL     1       1.579   3.904   3.813  0.00  0.00    +0.069 C 
ENDBRANCH  28  29
ENDBRANCH  27  28
ENDBRANCH  26  27
TORSDOF 7
