REMARK  Name = ZINC03869685
REMARK  5 active torsions:
REMARK  status: ('A' for Active; 'I' for Inactive)
REMARK    1  A    between atoms: C3_3  and  O7_22
REMARK    2  A    between atoms: C4_4  and  O6_21
REMARK    3  A    between atoms: C6_6  and  C7_7
REMARK    4  A    between atoms: C8_8  and  O5_20
REMARK    5  A    between atoms: C11_11  and  O3_18
REMARK                            x       y       z     vdW  Elec       q    Type
REMARK                         _______ _______ _______ _____ _____    ______ ____
ROOT
ATOM     11  C   UNL     1      -1.262  -0.760   0.010  0.00  0.00    +0.101 A 
ATOM     12  C   UNL     1      -2.459  -0.076   0.125  0.00  0.00    -0.004 A 
ATOM     15  C   UNL     1      -3.666  -0.787   0.132  0.00  0.00    +0.335 A 
ATOM     16  O   UNL     1      -4.848  -0.142   0.244  0.00  0.00    -0.575 OA
ATOM     17  C   UNL     1      -3.617  -2.194   0.022  0.00  0.00    -0.333 A 
ATOM     18  C   UNL     1      -4.802  -2.959   0.024  0.00  0.00    +0.266 A 
ATOM     21  C   UNL     1      -4.733  -4.318  -0.084  0.00  0.00    -0.257 A 
ATOM     22  C   UNL     1      -3.487  -4.957  -0.198  0.00  0.00    +0.365 A 
ATOM     23  C   UNL     1      -2.305  -4.209  -0.202  0.00  0.00    -0.191 A 
ATOM     24  O   UNL     1      -3.431  -6.286  -0.303  0.00  0.00    -0.660 OA
ATOM     25  C   UNL     1      -2.362  -2.833  -0.092  0.00  0.00    +0.212 A 
ATOM     26  O   UNL     1      -1.229  -2.099  -0.100  0.00  0.00    -0.202 OA
ENDROOT
BRANCH  11  10
ATOM      1  C   UNL     1       0.139   1.125  -0.812  0.00  0.00    +0.077 A 
ATOM      2  C   UNL     1       1.323   1.830  -0.818  0.00  0.00    +0.005 A 
ATOM      3  C   UNL     1       2.381   1.423  -0.017  0.00  0.00    +0.088 A 
ATOM      6  C   UNL     1       2.252   0.298   0.797  0.00  0.00    +0.076 A 
ATOM      9  C   UNL     1       1.069  -0.414   0.809  0.00  0.00    +0.041 A 
ATOM     10  C   UNL     1       0.002  -0.004   0.002  0.00  0.00    -0.019 A 
BRANCH   3   4
ATOM      4  O   UNL     1       3.546   2.123  -0.027  0.00  0.00    -0.488 OA
ATOM      5  H   UNL     1       3.583   2.835   0.626  0.00  0.00    +0.386 HD
ENDBRANCH   3   4
BRANCH   6   7
ATOM      7  O   UNL     1       3.292  -0.097   1.579  0.00  0.00    -0.486 OA
ATOM      8  H   UNL     1       3.293   0.298   2.462  0.00  0.00    +0.386 HD
ENDBRANCH   6   7
ENDBRANCH  11  10
BRANCH  12  13
ATOM     13  O   UNL     1      -2.464   1.280   0.229  0.00  0.00    -0.465 OA
ATOM     14  H   UNL     1      -3.348   1.666   0.305  0.00  0.00    +0.406 HD
ENDBRANCH  12  13
BRANCH  18  19
ATOM     19  O   UNL     1      -6.007  -2.346   0.134  0.00  0.00    -0.448 OA
ATOM     20  H   UNL     1      -6.760  -2.954   0.126  0.00  0.00    +0.385 HD
ENDBRANCH  18  19
TORSDOF 5
