REMARK  Name = ZINC00608186
REMARK  12 active torsions:
REMARK  status: ('A' for Active; 'I' for Inactive)
REMARK    1  A    between atoms: C1_1  and  C2_2
REMARK    2  A    between atoms: C4_4  and  O8_27
REMARK    3  A    between atoms: C5_5  and  C19_25
REMARK    4  A    between atoms: C7_7  and  C8_8
REMARK    5  A    between atoms: C8_8  and  O2_10
REMARK    6  A    between atoms: O2_10  and  C9_11
REMARK    7  A    between atoms: C11_13  and  C18_23
REMARK    8  A    between atoms: C12_14  and  C16_19
REMARK    9  A    between atoms: C13_15  and  O3_18
REMARK   10  A    between atoms: C14_16  and  C15_17
REMARK   11  A    between atoms: C16_19  and  O5_21
REMARK   12  A    between atoms: O5_21  and  C17_22
REMARK                            x       y       z     vdW  Elec       q    Type
REMARK                         _______ _______ _______ _____ _____    ______ ____
ROOT
ATOM     14  O   UNL     1       1.194   0.378   3.063  0.00  0.00    -0.294 OA
ENDROOT
BRANCH  14  15
ATOM     15  C   UNL     1       1.045   1.041   4.238  0.00  0.00    +0.141 A 
ATOM     16  C   UNL     1      -0.229   1.243   4.763  0.00  0.00    +0.010 A 
ATOM     17  C   UNL     1      -0.391   1.908   5.944  0.00  0.00    -0.025 A 
ATOM     18  C   UNL     1      -1.774   2.122   6.503  0.00  0.00    +0.109 C 
ATOM     19  C   UNL     1       0.725   2.392   6.635  0.00  0.00    -0.146 A 
ATOM     24  C   UNL     1       2.010   2.190   6.110  0.00  0.00    +0.164 A 
ATOM     27  C   UNL     1       2.162   1.509   4.913  0.00  0.00    -0.111 A 
ATOM     28  C   UNL     1       3.538   1.283   4.343  0.00  0.00    +0.123 C 
BRANCH  19  20
ATOM     20  C   UNL     1       0.551   3.110   7.908  0.00  0.00    +0.531 C 
ATOM     23  O   UNL     1       0.550   2.495   8.957  0.00  0.00    -0.497 OA
BRANCH  20  21
ATOM     21  O   UNL     1       0.393   4.448   7.911  0.00  0.00    -0.342 OA
ATOM     22  C   UNL     1       0.230   5.079   9.183  0.00  0.00    +0.256 C 
ENDBRANCH  20  21
ENDBRANCH  19  20
BRANCH  24  25
ATOM     25  O   UNL     1       3.099   2.655   6.772  0.00  0.00    -0.486 OA
ATOM     26  H   UNL     1       3.474   2.025   7.403  0.00  0.00    +0.397 HD
ENDBRANCH  24  25
ENDBRANCH  14  15
BRANCH  14  13
ATOM     13  C   UNL     1       1.420  -0.951   3.110  0.00  0.00    +0.565 C 
ATOM     29  O   UNL     1       1.577  -1.503   4.181  0.00  0.00    -0.499 OA
BRANCH  13  12
ATOM      1  C   UNL     1      -1.002  -2.118   2.061  0.00  0.00    +0.081 C 
ATOM      2  C   UNL     1       0.310  -2.304   1.342  0.00  0.00    +0.047 A 
ATOM      3  C   UNL     1       0.353  -3.032   0.175  0.00  0.00    -0.171 A 
ATOM      4  C   UNL     1       1.554  -3.212  -0.499  0.00  0.00    +0.236 A 
ATOM      7  C   UNL     1       2.739  -2.651   0.011  0.00  0.00    -0.364 A 
ATOM     10  C   UNL     1       2.698  -1.909   1.201  0.00  0.00    +0.355 A 
ATOM     11  O   UNL     1       3.831  -1.363   1.703  0.00  0.00    -0.676 OA
ATOM     12  C   UNL     1       1.476  -1.732   1.864  0.00  0.00    -0.286 A 
BRANCH   4   5
ATOM      5  O   UNL     1       1.584  -3.930  -1.647  0.00  0.00    -0.491 OA
ATOM      6  H   UNL     1       1.444  -3.402  -2.445  0.00  0.00    +0.387 HD
ENDBRANCH   4   5
BRANCH   7   8
ATOM      8  C   UNL     1       4.007  -2.841  -0.697  0.00  0.00    +0.491 C 
ATOM      9  O   UNL     1       4.038  -3.483  -1.725  0.00  0.00    -0.505 OA
ENDBRANCH   7   8
ENDBRANCH  13  12
ENDBRANCH  14  13
TORSDOF 8
