REMARK  Name = ZINC03871989
REMARK  11 active torsions:
REMARK  status: ('A' for Active; 'I' for Inactive)
REMARK    1  A    between atoms: C1_1  and  C2_2
REMARK    2  A    between atoms: C2_2  and  C3_3
REMARK    3  A    between atoms: C9_11  and  O4_37
REMARK    4  A    between atoms: C10_12  and  O3_35
REMARK    5  A    between atoms: C15_18  and  C16_20
REMARK    6  A    between atoms: C16_20  and  C17_21
REMARK    7  A    between atoms: C20_25  and  O2_33
REMARK    8  A    between atoms: C21_26  and  O1_32
REMARK    9  A    between atoms: O2_33  and  C26_34
REMARK   10  A    between atoms: O3_35  and  C27_36
REMARK   11  A    between atoms: O4_37  and  C28_38
REMARK                            x       y       z     vdW  Elec       q    Type
REMARK                         _______ _______ _______ _____ _____    ______ ____
ROOT
ATOM      3  C   UNL     1       0.718  -0.498  -1.257  0.00  0.00    -0.007 C 
ATOM      4  C   UNL     1       2.188  -0.073  -1.207  0.00  0.00    +0.261 C 
ATOM      5  N   UNL     1       2.875  -0.554  -2.412  0.00  0.00    -0.378 N 
ATOM      6  H   UNL     1       2.401  -0.202  -3.230  0.00  0.00    +0.422 HD
ATOM      7  C   UNL     1       4.265  -0.081  -2.420  0.00  0.00    +0.267 C 
ATOM      8  C   UNL     1       4.854  -0.322  -3.811  0.00  0.00    +0.124 C 
ATOM      9  C   UNL     1       4.609  -1.749  -4.233  0.00  0.00    -0.083 A 
ATOM     10  C   UNL     1       5.346  -2.264  -5.288  0.00  0.00    -0.019 A 
ATOM     11  C   UNL     1       5.149  -3.568  -5.708  0.00  0.00    +0.132 A 
ATOM     14  C   UNL     1       4.204  -4.363  -5.066  0.00  0.00    +0.118 A 
ATOM     17  C   UNL     1       3.472  -3.844  -4.013  0.00  0.00    -0.011 A 
ATOM     18  C   UNL     1       3.675  -2.538  -3.594  0.00  0.00    -0.125 A 
ATOM     19  C   UNL     1       2.864  -2.019  -2.438  0.00  0.00    +0.230 C 
ATOM     20  C   UNL     1       1.422  -2.519  -2.544  0.00  0.00    +0.062 C 
ATOM     21  C   UNL     1       0.631  -2.024  -1.329  0.00  0.00    -0.003 C 
ENDROOT
BRANCH   3   2
ATOM      1  C   UNL     1      -0.019   1.526   0.010  0.00  0.00    +0.018 C 
ATOM      2  C   UNL     1       0.002  -0.004   0.002  0.00  0.00    +0.045 C 
ENDBRANCH   3   2
BRANCH  11  12
ATOM     12  O   UNL     1       5.874  -4.069  -6.743  0.00  0.00    -0.296 OA
ATOM     13  C   UNL     1       6.825  -3.194  -7.353  0.00  0.00    +0.253 C 
ENDBRANCH  11  12
BRANCH  14  15
ATOM     15  O   UNL     1       4.001  -5.645  -5.472  0.00  0.00    -0.295 OA
ATOM     16  C   UNL     1       3.016  -6.401  -4.766  0.00  0.00    +0.248 C 
ENDBRANCH  14  15
BRANCH  21  22
ATOM     22  C   UNL     1      -0.833  -2.446  -1.465  0.00  0.00    +0.060 C 
BRANCH  22  23
ATOM     23  C   UNL     1      -0.931  -3.972  -1.412  0.00  0.00    +0.181 C 
ATOM     24  C   UNL     1      -2.354  -4.389  -1.681  0.00  0.00    -0.054 A 
ATOM     25  C   UNL     1      -3.050  -3.739  -2.690  0.00  0.00    -0.063 A 
ATOM     26  C   UNL     1      -4.357  -4.090  -2.977  0.00  0.00    +0.102 A 
ATOM     29  C   UNL     1      -4.976  -5.102  -2.248  0.00  0.00    +0.086 A 
ATOM     32  C   UNL     1      -4.278  -5.745  -1.242  0.00  0.00    +0.032 A 
ATOM     33  C   UNL     1      -2.968  -5.388  -0.957  0.00  0.00    -0.083 A 
ATOM     34  C   UNL     1      -2.255  -6.112   0.156  0.00  0.00    +0.092 C 
ATOM     35  C   UNL     1      -0.747  -5.883   0.045  0.00  0.00    +0.178 C 
ATOM     36  N   UNL     1      -0.502  -4.439  -0.089  0.00  0.00    -0.676 NA
ATOM     37  H   UNL     1       0.469  -4.220   0.073  0.00  0.00    +0.340 HD
BRANCH  26  27
ATOM     27  O   UNL     1      -5.035  -3.449  -3.967  0.00  0.00    -0.304 OA
ATOM     28  C   UNL     1      -4.335  -2.421  -4.671  0.00  0.00    +0.237 C 
ENDBRANCH  26  27
BRANCH  29  30
ATOM     30  O   UNL     1      -6.259  -5.456  -2.525  0.00  0.00    -0.485 OA
ATOM     31  H   UNL     1      -6.340  -6.156  -3.187  0.00  0.00    +0.391 HD
ENDBRANCH  29  30
ENDBRANCH  22  23
ENDBRANCH  21  22
TORSDOF 7
