REMARK  Name = ZINC00058188
REMARK  6 active torsions:
REMARK  status: ('A' for Active; 'I' for Inactive)
REMARK    1  A    between atoms: C1_1  and  O1_2
REMARK    2  A    between atoms: O1_2  and  C2_3
REMARK    3  A    between atoms: C9_11  and  C10_12
REMARK    4  A    between atoms: C10_12  and  C11_14
REMARK    5  A    between atoms: C11_14  and  C12_15
REMARK    6  A    between atoms: C12_15  and  C13_17
REMARK                            x       y       z     vdW  Elec       q    Type
REMARK                         _______ _______ _______ _____ _____    ______ ____
ROOT
ATOM      3  C   UNL     1       0.002  -0.004   0.002  0.00  0.00    +0.215 A 
ATOM      4  C   UNL     1      -0.006  -0.705  -1.207  0.00  0.00    -0.168 A 
ATOM      5  C   UNL     1      -0.018  -0.309  -2.620  0.00  0.00    -0.029 A 
ATOM      6  C   UNL     1      -0.010  -1.447  -3.326  0.00  0.00    +0.222 A 
ATOM      7  O   UNL     1       0.013  -2.506  -2.497  0.00  0.00    -0.187 OA
ATOM      8  C   UNL     1       0.019  -2.109  -1.209  0.00  0.00    +0.092 A 
ATOM      9  C   UNL     1       0.040  -2.801   0.002  0.00  0.00    +0.025 A 
ATOM     10  C   UNL     1       0.042  -2.126   1.184  0.00  0.00    +0.100 A 
ATOM     11  C   UNL     1       0.023  -0.721   1.208  0.00  0.00    -0.209 A 
ENDROOT
BRANCH   3   2
ATOM      1  C   UNL     1       1.248   2.017   0.001  0.00  0.00    +0.243 C 
ATOM      2  O   UNL     1      -0.016   1.351   0.009  0.00  0.00    -0.320 OA
ENDBRANCH   3   2
BRANCH  11  12
ATOM     12  C   UNL     1       0.026  -0.007   2.487  0.00  0.00    +0.392 C 
ATOM     13  O   UNL     1       0.010   1.206   2.505  0.00  0.00    -0.399 OA
BRANCH  12  14
ATOM     14  C   UNL     1       0.049  -0.779   3.781  0.00  0.00    +0.007 C 
BRANCH  14  15
ATOM     15  C   UNL     1       0.047   0.183   4.941  0.00  0.00    +0.426 C 
ATOM     16  O   UNL     1       0.029   1.378   4.737  0.00  0.00    -0.412 OA
BRANCH  15  17
ATOM     17  C   UNL     1       0.067  -0.328   6.321  0.00  0.00    -0.169 A 
ATOM     18  C   UNL     1       0.082  -1.706   6.560  0.00  0.00    +0.054 A 
ATOM     19  C   UNL     1       0.107  -2.176   7.856  0.00  0.00    -0.000 A 
ATOM     20  C   UNL     1       0.106  -1.289   8.918  0.00  0.00    +0.041 A 
ATOM     21  C   UNL     1       0.085   0.075   8.690  0.00  0.00    +0.001 A 
ATOM     22  C   UNL     1       0.066   0.562   7.400  0.00  0.00    +0.075 A 
ENDBRANCH  15  17
ENDBRANCH  14  15
ENDBRANCH  12  14
ENDBRANCH  11  12
TORSDOF 5
