REMARK  Name = ZINC19366648
REMARK  6 active torsions:
REMARK  status: ('A' for Active; 'I' for Inactive)
REMARK    1  A    between atoms: C1_1  and  C2_2
REMARK    2  A    between atoms: C2_2  and  C3_4
REMARK    3  A    between atoms: C2_2  and  N1_10
REMARK    4  A    between atoms: N2_13  and  C13_16
REMARK    5  A    between atoms: C13_16  and  C14_18
REMARK    6  A    between atoms: C13_16  and  C15_19
REMARK                            x       y       z     vdW  Elec       q    Type
REMARK                         _______ _______ _______ _____ _____    ______ ____
ROOT
ATOM      3  N   UNL     1       0.896  -0.282   1.134  0.00  0.00    -0.531 NA
ATOM      4  C   UNL     1       0.259   0.076   2.409  0.00  0.00    +0.182 C 
ATOM      5  C   UNL     1       1.188  -0.302   3.565  0.00  0.00    +0.182 C 
ATOM      6  N   UNL     1       2.471   0.396   3.406  0.00  0.00    -0.532 NA
ATOM     15  C   UNL     1       3.109   0.038   2.131  0.00  0.00    +0.181 C 
ATOM     16  C   UNL     1       2.179   0.416   0.976  0.00  0.00    +0.181 C 
ENDROOT
BRANCH   3   2
ATOM      1  C   UNL     1      -1.303  -0.782   0.180  0.00  0.00    +0.045 C 
ATOM      2  C   UNL     1       0.002  -0.004   0.002  0.00  0.00    +0.171 C 
BRANCH   2  17
ATOM     17  C   UNL     1       0.669  -0.428  -1.281  0.00  0.00    -0.080 A 
ATOM     18  C   UNL     1       1.286  -1.662  -1.365  0.00  0.00    +0.035 A 
ATOM     19  C   UNL     1       1.898  -2.051  -2.542  0.00  0.00    -0.004 A 
ATOM     20  C   UNL     1       1.893  -1.206  -3.635  0.00  0.00    -0.001 A 
ATOM     21  C   UNL     1       1.276   0.028  -3.552  0.00  0.00    -0.000 A 
ATOM     22  C   UNL     1       0.660   0.415  -2.376  0.00  0.00    +0.002 A 
ENDBRANCH   2  17
ENDBRANCH   3   2
BRANCH   6   7
ATOM      7  C   UNL     1       3.365   0.118   4.538  0.00  0.00    +0.171 C 
ATOM     14  C   UNL     1       2.707   0.590   5.836  0.00  0.00    +0.046 C 
BRANCH   7   8
ATOM      8  C   UNL     1       4.668   0.849   4.341  0.00  0.00    -0.081 A 
ATOM      9  C   UNL     1       4.668   2.137   3.839  0.00  0.00    +0.035 A 
ATOM     10  C   UNL     1       5.864   2.808   3.658  0.00  0.00    -0.004 A 
ATOM     11  C   UNL     1       7.058   2.192   3.980  0.00  0.00    -0.001 A 
ATOM     12  C   UNL     1       7.058   0.904   4.483  0.00  0.00    -0.000 A 
ATOM     13  C   UNL     1       5.862   0.235   4.668  0.00  0.00    +0.002 A 
ENDBRANCH   7   8
ENDBRANCH   6   7
TORSDOF 4
