REMARK  Name = ZINC95486056
REMARK  7 active torsions:
REMARK  status: ('A' for Active; 'I' for Inactive)
REMARK    1  A    between atoms: C4_4  and  C7_7
REMARK    2  A    between atoms: C8_8  and  C9_9
REMARK    3  A    between atoms: C9_9  and  C10_11
REMARK    4  A    between atoms: C11_12  and  O6_23
REMARK    5  A    between atoms: C12_13  and  C17_21
REMARK    6  A    between atoms: C14_15  and  C16_18
REMARK    7  A    between atoms: C15_16  and  O2_17
REMARK                            x       y       z     vdW  Elec       q    Type
REMARK                         _______ _______ _______ _____ _____    ______ ____
ROOT
ATOM      8  C   UNL     1       5.129  -4.205  -0.074  0.00  0.00    -0.361 A 
ATOM      9  C   UNL     1       3.985  -5.014  -0.127  0.00  0.00    +0.265 A 
ATOM     12  C   UNL     1       4.113  -6.414  -0.138  0.00  0.00    -0.361 A 
ATOM     15  C   UNL     1       5.388  -7.002  -0.097  0.00  0.00    +0.358 A 
ATOM     16  O   UNL     1       5.512  -8.348  -0.107  0.00  0.00    -0.595 OA
ATOM     17  C   UNL     1       6.533  -6.191  -0.044  0.00  0.00    -0.361 A 
ATOM     20  C   UNL     1       6.402  -4.791  -0.039  0.00  0.00    +0.264 A 
ENDROOT
BRANCH   8   7
ATOM      7  C   UNL     1       4.994  -2.739  -0.063  0.00  0.00    +0.468 C 
ATOM     23  O   UNL     1       4.887  -2.129  -1.112  0.00  0.00    -0.465 OA
BRANCH   7   6
ATOM      5  C   UNL     1       4.969  -0.666   1.218  0.00  0.00    +0.089 C 
ATOM      6  C   UNL     1       4.987  -2.015   1.210  0.00  0.00    -0.073 C 
BRANCH   5   4
ATOM      1  C   UNL     1       4.949   1.433   4.904  0.00  0.00    +0.007 A 
ATOM      2  C   UNL     1       4.937   2.136   3.711  0.00  0.00    -0.001 A 
ATOM      3  C   UNL     1       4.944   1.461   2.509  0.00  0.00    +0.026 A 
ATOM      4  C   UNL     1       4.963   0.062   2.497  0.00  0.00    -0.068 A 
ATOM     24  C   UNL     1       4.974  -0.640   3.706  0.00  0.00    +0.028 A 
ATOM     25  C   UNL     1       4.967   0.049   4.900  0.00  0.00    +0.004 A 
ENDBRANCH   5   4
ENDBRANCH   7   6
ENDBRANCH   8   7
BRANCH   9  10
ATOM     10  O   UNL     1       2.759  -4.447  -0.166  0.00  0.00    -0.502 OA
ATOM     11  H   UNL     1       2.435  -4.272  -1.061  0.00  0.00    +0.395 HD
ENDBRANCH   9  10
BRANCH  12  13
ATOM     13  C   UNL     1       2.919  -7.257  -0.193  0.00  0.00    +0.453 C 
ATOM     14  O   UNL     1       3.030  -8.465  -0.202  0.00  0.00    -0.457 OA
ENDBRANCH  12  13
BRANCH  17  18
ATOM     18  C   UNL     1       7.861  -6.801  -0.001  0.00  0.00    +0.453 C 
ATOM     19  O   UNL     1       7.974  -8.010  -0.011  0.00  0.00    -0.457 OA
ENDBRANCH  17  18
BRANCH  20  21
ATOM     21  O   UNL     1       7.505  -4.010   0.006  0.00  0.00    -0.499 OA
ATOM     22  H   UNL     1       7.796  -3.792   0.901  0.00  0.00    +0.391 HD
ENDBRANCH  20  21
TORSDOF 7
