REMARK  Name = ZINC00056792
REMARK  8 active torsions:
REMARK  status: ('A' for Active; 'I' for Inactive)
REMARK    1  A    between atoms: C1_1  and  N1_2
REMARK    2  A    between atoms: C6_7  and  O4_25
REMARK    3  A    between atoms: C7_8  and  O3_23
REMARK    4  A    between atoms: C14_16  and  O2_22
REMARK    5  A    between atoms: C15_17  and  O1_20
REMARK    6  A    between atoms: O1_20  and  C18_21
REMARK    7  A    between atoms: O3_23  and  C19_24
REMARK    8  A    between atoms: O4_25  and  C20_26
REMARK                            x       y       z     vdW  Elec       q    Type
REMARK                         _______ _______ _______ _____ _____    ______ ____
ROOT
ATOM      1  C   UNL     1       0.526   1.515   0.029  0.00  0.00    +0.197 C 
ATOM      2  N   UNL     1       0.362   0.054   0.026  0.00  0.00    -0.534 NA
ATOM      3  C   UNL     1       0.809  -0.496  -1.258  0.00  0.00    +0.175 C 
ATOM      4  C   UNL     1       0.401  -1.952  -1.390  0.00  0.00    +0.090 C 
ATOM      5  C   UNL     1       0.517  -2.694  -0.088  0.00  0.00    -0.033 A 
ATOM      6  C   UNL     1       0.250  -4.059  -0.100  0.00  0.00    -0.065 A 
ATOM      7  C   UNL     1       0.318  -4.796   1.065  0.00  0.00    +0.109 A 
ATOM     10  C   UNL     1       0.672  -4.172   2.260  0.00  0.00    +0.098 A 
ATOM     13  C   UNL     1       0.992  -2.821   2.271  0.00  0.00    -0.018 A 
ATOM     14  C   UNL     1       1.471  -2.125   3.486  0.00  0.00    -0.033 A 
ATOM     15  C   UNL     1       2.225  -2.759   4.470  0.00  0.00    +0.118 A 
ATOM     18  C   UNL     1       2.576  -2.067   5.629  0.00  0.00    +0.089 A 
ATOM     21  C   UNL     1       2.236  -0.733   5.774  0.00  0.00    -0.053 A 
ATOM     22  C   UNL     1       1.571  -0.075   4.753  0.00  0.00    +0.043 A 
ATOM     23  C   UNL     1       1.224  -0.756   3.607  0.00  0.00    -0.095 A 
ATOM     24  C   UNL     1       0.547  -0.033   2.469  0.00  0.00    +0.106 C 
ATOM     25  C   UNL     1       0.867  -2.073   1.088  0.00  0.00    -0.089 A 
ATOM     26  C   UNL     1       1.075  -0.579   1.142  0.00  0.00    +0.192 C 
ENDROOT
BRANCH   7   8
ATOM      8  O   UNL     1       0.042  -6.127   1.051  0.00  0.00    -0.302 OA
ATOM      9  C   UNL     1      -0.315  -6.703  -0.207  0.00  0.00    +0.238 C 
ENDBRANCH   7   8
BRANCH  10  11
ATOM     11  O   UNL     1       0.627  -4.905   3.405  0.00  0.00    -0.298 OA
ATOM     12  C   UNL     1      -0.627  -4.970   4.086  0.00  0.00    +0.213 C 
ENDBRANCH  10  11
BRANCH  15  16
ATOM     16  O   UNL     1       2.691  -4.026   4.307  0.00  0.00    -0.461 OA
ATOM     17  H   UNL     1       3.594  -4.072   3.965  0.00  0.00    +0.382 HD
ENDBRANCH  15  16
BRANCH  18  19
ATOM     19  O   UNL     1       3.256  -2.709   6.617  0.00  0.00    -0.305 OA
ATOM     20  C   UNL     1       3.585  -1.945   7.779  0.00  0.00    +0.237 C 
ENDBRANCH  18  19
TORSDOF 4
