REMARK  Name = ZINC95486206
REMARK  5 active torsions:
REMARK  status: ('A' for Active; 'I' for Inactive)
REMARK    1  A    between atoms: C1_1  and  C2_2
REMARK    2  A    between atoms: C4_5  and  O3_26
REMARK    3  A    between atoms: C7_8  and  C11_13
REMARK    4  A    between atoms: C14_16  and  O2_24
REMARK    5  A    between atoms: O2_24  and  C21_25
REMARK                            x       y       z     vdW  Elec       q    Type
REMARK                         _______ _______ _______ _____ _____    ______ ____
ROOT
ATOM      1  C   UNL     1      -4.098   0.854  -2.946  0.00  0.00    +0.053 C 
ATOM      2  C   UNL     1      -4.693   0.550  -1.570  0.00  0.00    +0.175 C 
ATOM      3  C   UNL     1      -3.756  -0.351  -0.811  0.00  0.00    -0.098 A 
ATOM      4  C   UNL     1      -2.389  -0.089  -0.874  0.00  0.00    +0.115 A 
ATOM      7  C   UNL     1      -1.486  -0.888  -0.190  0.00  0.00    -0.015 A 
ATOM      8  C   UNL     1      -1.941  -1.952   0.562  0.00  0.00    +0.040 A 
ATOM      9  C   UNL     1      -3.305  -2.219   0.626  0.00  0.00    -0.052 A 
ATOM     23  C   UNL     1      -4.213  -1.414  -0.067  0.00  0.00    -0.037 A 
ATOM     24  C   UNL     1      -5.681  -1.745   0.021  0.00  0.00    +0.088 C 
ATOM     25  C   UNL     1      -6.515  -0.549  -0.438  0.00  0.00    +0.170 C 
ATOM     26  N   UNL     1      -6.000  -0.094  -1.739  0.00  0.00    -0.681 NA
ATOM     27  H   UNL     1      -6.654   0.529  -2.189  0.00  0.00    +0.348 HD
ENDROOT
BRANCH   9  10
ATOM     10  C   UNL     1      -3.797  -3.363   1.434  0.00  0.00    -0.101 A 
ATOM     11  C   UNL     1      -4.214  -4.534   0.799  0.00  0.00    +0.105 A 
ATOM     12  C   UNL     1      -4.673  -5.604   1.536  0.00  0.00    -0.089 A 
ATOM     13  C   UNL     1      -4.725  -5.521   2.921  0.00  0.00    +0.189 A 
ATOM     16  C   UNL     1      -4.311  -4.346   3.567  0.00  0.00    -0.205 A 
ATOM     17  C   UNL     1      -4.380  -4.257   5.035  0.00  0.00    +0.398 C 
ATOM     18  O   UNL     1      -4.974  -5.090   5.687  0.00  0.00    -0.437 OA
ATOM     19  C   UNL     1      -3.667  -3.097   5.704  0.00  0.00    +0.032 C 
ATOM     20  C   UNL     1      -3.970  -1.842   4.874  0.00  0.00    +0.038 C 
ATOM     21  C   UNL     1      -3.366  -1.998   3.481  0.00  0.00    +0.088 C 
ATOM     22  C   UNL     1      -3.837  -3.265   2.822  0.00  0.00    +0.022 A 
BRANCH  13  14
ATOM     14  O   UNL     1      -5.176  -6.574   3.647  0.00  0.00    -0.288 OA
ATOM     15  C   UNL     1      -5.580  -7.737   2.922  0.00  0.00    +0.243 C 
ENDBRANCH  13  14
ENDBRANCH   9  10
BRANCH   4   5
ATOM      5  O   UNL     1      -1.937   0.958  -1.613  0.00  0.00    -0.490 OA
ATOM      6  H   UNL     1      -1.874   1.788  -1.121  0.00  0.00    +0.387 HD
ENDBRANCH   4   5
TORSDOF 3
