REMARK  Name = ZINC95486162
REMARK  13 active torsions:
REMARK  status: ('A' for Active; 'I' for Inactive)
REMARK    1  A    between atoms: C1_1  and  C2_2
REMARK    2  A    between atoms: C6_6  and  O1_8
REMARK    3  A    between atoms: O1_8  and  C8_9
REMARK    4  A    between atoms: C9_10  and  O4_33
REMARK    5  A    between atoms: C11_12  and  C26_32
REMARK    6  A    between atoms: C12_13  and  C13_14
REMARK    7  A    between atoms: C14_15  and  O3_30
REMARK    8  A    between atoms: C16_17  and  O2_28
REMARK    9  A    between atoms: C20_21  and  C23_27
REMARK   10  A    between atoms: C21_24  and  C22_26
REMARK   11  A    between atoms: O2_28  and  C24_29
REMARK   12  A    between atoms: O3_30  and  C25_31
REMARK   13  A    between atoms: O4_33  and  C27_34
REMARK                            x       y       z     vdW  Elec       q    Type
REMARK                         _______ _______ _______ _____ _____    ______ ____
ROOT
ATOM     16  C   UNL     1      -0.465  -2.495  -4.707  0.00  0.00    -0.102 A 
ATOM     17  C   UNL     1      -1.451  -2.283  -5.675  0.00  0.00    +0.182 A 
ATOM     20  C   UNL     1      -1.153  -1.541  -6.804  0.00  0.00    -0.167 A 
ATOM     21  C   UNL     1       0.118  -1.014  -6.969  0.00  0.00    +0.178 A 
ATOM     24  C   UNL     1       1.104  -1.224  -6.006  0.00  0.00    -0.181 A 
ATOM     25  C   UNL     1       2.469  -0.632  -6.240  0.00  0.00    +0.229 C 
ATOM     26  C   UNL     1       2.317   0.786  -6.794  0.00  0.00    +0.048 C 
ATOM     27  N   UNL     1       3.223  -0.570  -4.981  0.00  0.00    -0.670 NA
ATOM     28  H   UNL     1       2.844   0.128  -4.358  0.00  0.00    +0.342 HD
ATOM     29  C   UNL     1       3.241  -1.894  -4.340  0.00  0.00    +0.165 C 
ATOM     30  C   UNL     1       4.248  -1.900  -3.188  0.00  0.00    +0.038 C 
ATOM     31  C   UNL     1       1.842  -2.190  -3.800  0.00  0.00    +0.058 C 
ATOM     32  C   UNL     1       0.813  -1.953  -4.876  0.00  0.00    +0.012 A 
ENDROOT
BRANCH  16  15
ATOM      1  C   UNL     1      -2.210   0.811  -1.157  0.00  0.00    +0.090 C 
ATOM      2  C   UNL     1      -1.983  -0.678  -1.178  0.00  0.00    -0.026 A 
ATOM      3  C   UNL     1      -1.496  -1.267  -2.307  0.00  0.00    -0.033 A 
ATOM      4  C   UNL     1      -1.281  -2.652  -2.337  0.00  0.00    +0.046 A 
ATOM      5  C   UNL     1      -1.573  -3.429  -1.190  0.00  0.00    -0.103 A 
ATOM      6  C   UNL     1      -1.357  -4.821  -1.220  0.00  0.00    +0.173 A 
ATOM      9  C   UNL     1      -0.864  -5.414  -2.362  0.00  0.00    -0.107 A 
ATOM     10  C   UNL     1      -0.575  -4.658  -3.491  0.00  0.00    -0.008 A 
ATOM     11  C   UNL     1      -0.036  -5.337  -4.724  0.00  0.00    +0.092 C 
ATOM     12  C   UNL     1      -2.076  -2.795  -0.037  0.00  0.00    +0.171 A 
ATOM     15  C   UNL     1      -0.776  -3.289  -3.497  0.00  0.00    -0.072 A 
ATOM     33  C   UNL     1      -2.268  -1.431  -0.043  0.00  0.00    -0.112 A 
BRANCH   6   7
ATOM      7  O   UNL     1      -1.633  -5.576  -0.126  0.00  0.00    -0.291 OA
ATOM      8  C   UNL     1      -1.388  -6.980  -0.228  0.00  0.00    +0.237 C 
ENDBRANCH   6   7
BRANCH  12  13
ATOM     13  O   UNL     1      -2.363  -3.522   1.074  0.00  0.00    -0.291 OA
ATOM     14  C   UNL     1      -2.869  -2.808   2.203  0.00  0.00    +0.237 C 
ENDBRANCH  12  13
ENDBRANCH  16  15
BRANCH  17  18
ATOM     18  O   UNL     1      -2.695  -2.804  -5.509  0.00  0.00    -0.301 OA
ATOM     19  C   UNL     1      -3.650  -2.546  -6.540  0.00  0.00    +0.236 C 
ENDBRANCH  17  18
BRANCH  21  22
ATOM     22  O   UNL     1       0.406  -0.287  -8.080  0.00  0.00    -0.300 OA
ATOM     23  C   UNL     1      -0.646  -0.109  -9.030  0.00  0.00    +0.230 C 
ENDBRANCH  21  22
TORSDOF 5
