REMARK  Name = ZINC00058188
REMARK  5 active torsions:
REMARK  status: ('A' for Active; 'I' for Inactive)
REMARK    1  A    between atoms: C1_1  and  O1_2
REMARK    2  A    between atoms: O1_2  and  C2_3
REMARK    3  A    between atoms: C9_11  and  C10_12
REMARK    4  A    between atoms: C10_12  and  C11_13
REMARK    5  A    between atoms: C12_14  and  C13_16
REMARK                            x       y       z     vdW  Elec       q    Type
REMARK                         _______ _______ _______ _____ _____    ______ ____
ROOT
ATOM      3  C   UNL     1       0.605  -0.606  -1.053  0.00  0.00    +0.177 A 
ATOM      4  C   UNL     1      -0.130  -0.925  -2.199  0.00  0.00    -0.169 A 
ATOM      5  C   UNL     1      -1.533  -0.760  -2.595  0.00  0.00    -0.037 A 
ATOM      6  C   UNL     1      -1.634  -1.270  -3.830  0.00  0.00    +0.192 A 
ATOM      7  O   UNL     1      -0.440  -1.733  -4.238  0.00  0.00    -0.197 OA
ATOM      8  C   UNL     1       0.499  -1.548  -3.289  0.00  0.00    +0.065 A 
ATOM      9  C   UNL     1       1.859  -1.846  -3.221  0.00  0.00    -0.001 A 
ATOM     10  C   UNL     1       2.579  -1.537  -2.106  0.00  0.00    +0.103 A 
ATOM     11  C   UNL     1       1.969  -0.909  -1.011  0.00  0.00    -0.156 A 
ENDROOT
BRANCH   3   2
ATOM      1  C   UNL     1      -0.017   1.425   0.010  0.00  0.00    +0.227 C 
ATOM      2  O   UNL     1       0.002  -0.004   0.002  0.00  0.00    -0.316 OA
ENDBRANCH   3   2
BRANCH  11  12
ATOM     12  C   UNL     1       2.764  -0.575   0.187  0.00  0.00    +0.409 C 
ATOM     13  O   UNL     1       2.231  -0.034   1.141  0.00  0.00    -0.486 OA
BRANCH  12  14
ATOM     14  C   UNL     1       4.142  -0.881   0.228  0.00  0.00    -0.425 C 
ATOM     15  C   UNL     1       4.875  -0.574   1.332  0.00  0.00    +0.320 C 
ATOM     16  O   UNL     1       4.284   0.026   2.390  0.00  0.00    -0.637 OA
BRANCH  15  17
ATOM     17  C   UNL     1       6.314  -0.894   1.375  0.00  0.00    -0.074 A 
ATOM     18  C   UNL     1       6.930  -1.508   0.282  0.00  0.00    +0.026 A 
ATOM     19  C   UNL     1       8.276  -1.805   0.329  0.00  0.00    -0.021 A 
ATOM     20  C   UNL     1       9.017  -1.495   1.456  0.00  0.00    -0.019 A 
ATOM     21  C   UNL     1       8.414  -0.887   2.543  0.00  0.00    -0.021 A 
ATOM     22  C   UNL     1       7.070  -0.579   2.508  0.00  0.00    +0.040 A 
ENDBRANCH  15  17
ENDBRANCH  12  14
ENDBRANCH  11  12
TORSDOF 4
