REMARK  Name = ZINC95486217
REMARK  1 active torsions:
REMARK  status: ('A' for Active; 'I' for Inactive)
REMARK    1  A    between atoms: C17_20  and  C18_21
REMARK                            x       y       z     vdW  Elec       q    Type
REMARK                         _______ _______ _______ _____ _____    ______ ____
ROOT
ATOM      1  C   UNL     1      -0.017   1.362   0.009  0.00  0.00    -0.028 A 
ATOM      2  C   UNL     1       1.168   2.089   0.002  0.00  0.00    -0.003 A 
ATOM      3  C   UNL     1       2.378   1.457  -0.012  0.00  0.00    +0.033 A 
ATOM      4  C   UNL     1       2.429   0.058  -0.020  0.00  0.00    +0.021 A 
ATOM      5  C   UNL     1       1.224  -0.679  -0.013  0.00  0.00    -0.077 A 
ATOM      6  C   UNL     1       1.286  -2.145  -0.022  0.00  0.00    +0.016 A 
ATOM      7  C   UNL     1       2.543  -2.781  -0.036  0.00  0.00    -0.042 A 
ATOM      8  C   UNL     1       2.608  -4.196  -0.044  0.00  0.00    +0.018 A 
ATOM      9  C   UNL     1       3.929  -4.840  -0.058  0.00  0.00    -0.116 A 
ATOM     10  C   UNL     1       5.031  -4.078  -0.064  0.00  0.00    +0.301 A 
ATOM     11  N   UNL     1       4.961  -2.706  -0.057  0.00  0.00    -0.620 N 
ATOM     12  H   UNL     1       5.783  -2.190  -0.061  0.00  0.00    +0.419 HD
ATOM     13  C   UNL     1       1.437  -4.941  -0.040  0.00  0.00    -0.002 A 
ATOM     14  C   UNL     1       0.200  -4.304  -0.029  0.00  0.00    +0.051 A 
ATOM     15  O   UNL     1      -1.067  -4.815  -0.023  0.00  0.00    -0.313 OA
ATOM     16  C   UNL     1      -1.923  -3.729  -0.422  0.00  0.00    +0.415 C 
ATOM     17  O   UNL     1      -1.199  -2.556  -0.006  0.00  0.00    -0.304 OA
ATOM     18  C   UNL     1       3.743  -2.038  -0.043  0.00  0.00    +0.170 A 
ATOM     19  C   UNL     1       0.118  -2.917  -0.018  0.00  0.00    +0.005 A 
ATOM     20  C   UNL     1       3.711  -0.650  -0.035  0.00  0.00    -0.013 A 
ATOM     41  C   UNL     1       0.002  -0.004   0.002  0.00  0.00    +0.034 A 
ENDROOT
BRANCH  20  21
ATOM     21  C   UNL     1       4.974   0.115  -0.042  0.00  0.00    -0.261 A 
ATOM     22  C   UNL     1       5.583   0.505  -1.315  0.00  0.00    +0.061 A 
ATOM     23  C   UNL     1       4.988   0.162  -2.535  0.00  0.00    -0.039 A 
ATOM     24  C   UNL     1       5.580   0.538  -3.707  0.00  0.00    +0.008 A 
ATOM     25  C   UNL     1       6.768   1.258  -3.706  0.00  0.00    -0.083 A 
ATOM     26  C   UNL     1       7.372   1.608  -2.531  0.00  0.00    +0.055 A 
ATOM     27  C   UNL     1       6.791   1.238  -1.317  0.00  0.00    -0.123 A 
ATOM     28  C   UNL     1       7.409   1.594  -0.034  0.00  0.00    +0.050 A 
ATOM     29  C   UNL     1       6.785   1.197   1.165  0.00  0.00    -0.107 A 
ATOM     30  C   UNL     1       7.378   1.538   2.405  0.00  0.00    +0.050 A 
ATOM     31  C   UNL     1       8.563   2.259   2.428  0.00  0.00    -0.059 A 
ATOM     32  C   UNL     1       9.172   2.649   1.240  0.00  0.00    +0.075 A 
ATOM     33  O   UNL     1      10.321   3.353   1.014  0.00  0.00    -0.319 OA
ATOM     34  C   UNL     1      10.233   3.805  -0.350  0.00  0.00    +0.403 C 
ATOM     35  O   UNL     1       9.396   2.819  -0.982  0.00  0.00    -0.308 OA
ATOM     36  C   UNL     1       6.704   1.126   3.645  0.00  0.00    -0.219 A 
ATOM     37  C   UNL     1       5.560   0.431   3.570  0.00  0.00    +0.264 A 
ATOM     38  N   UNL     1       4.992   0.100   2.363  0.00  0.00    -0.602 NA
ATOM     39  C   UNL     1       8.604   2.321   0.014  0.00  0.00    -0.058 A 
ATOM     40  C   UNL     1       5.576   0.468   1.158  0.00  0.00    +0.246 A 
ENDBRANCH  20  21
TORSDOF 1
