REMARK  Name = ZINC14594077
REMARK  14 active torsions:
REMARK  status: ('A' for Active; 'I' for Inactive)
REMARK    1  A    between atoms: C1_1  and  C2_2
REMARK    2  A    between atoms: C2_2  and  C26_32
REMARK    3  A    between atoms: C3_3  and  C4_4
REMARK    4  A    between atoms: C4_4  and  C5_5
REMARK    5  A    between atoms: C7_7  and  C20_24
REMARK    6  A    between atoms: C7_7  and  O5_29
REMARK    7  A    between atoms: C9_10  and  C11_13
REMARK    8  A    between atoms: C9_10  and  O4_23
REMARK    9  A    between atoms: C11_13  and  C12_15
REMARK   10  A    between atoms: C13_16  and  C14_17
REMARK   11  A    between atoms: C20_24  and  C21_25
REMARK   12  A    between atoms: C22_26  and  C23_27
REMARK   13  A    between atoms: C22_26  and  C24_28
REMARK   14  A    between atoms: O5_29  and  C25_30
REMARK                            x       y       z     vdW  Elec       q    Type
REMARK                         _______ _______ _______ _____ _____    ______ ____
ROOT
ATOM      6  C   UNL     1       2.620   1.697   2.633  0.00  0.00    -0.024 C 
ATOM      7  C   UNL     1       2.426   1.855   4.009  0.00  0.00    +0.375 C 
ATOM      8  O   UNL     1       1.595   2.646   4.409  0.00  0.00    -0.402 OA
ATOM      9  C   UNL     1       3.233   1.059   5.005  0.00  0.00    +0.001 C 
ATOM     22  C   UNL     1       3.715  -0.201   4.315  0.00  0.00    +0.353 C 
ATOM     23  O   UNL     1       3.579  -1.289   4.822  0.00  0.00    -0.351 OA
ATOM     24  C   UNL     1       4.377  -0.038   2.962  0.00  0.00    +0.077 C 
ATOM     32  C   UNL     1       3.494   0.829   2.102  0.00  0.00    +0.311 C 
ATOM     33  O   UNL     1       3.589   0.733   0.762  0.00  0.00    -0.448 OA
ENDROOT
BRANCH   9  10
ATOM     10  O   UNL     1       2.414   0.714   6.124  0.00  0.00    -0.490 OA
ATOM     11  H   UNL     1       2.054   1.476   6.598  0.00  0.00    +0.400 HD
ENDBRANCH   9  10
BRANCH   9  12
ATOM     12  C   UNL     1       4.414   1.871   5.469  0.00  0.00    +0.382 C 
ATOM     21  O   UNL     1       4.825   2.789   4.788  0.00  0.00    -0.442 OA
BRANCH  12  13
ATOM     13  C   UNL     1       5.042   1.566   6.694  0.00  0.00    -0.122 C 
ATOM     14  C   UNL     1       6.103   2.295   7.111  0.00  0.00    +0.187 C 
BRANCH  14  15
ATOM     15  C   UNL     1       6.758   1.977   8.389  0.00  0.00    -0.104 A 
ATOM     16  C   UNL     1       6.283   0.924   9.179  0.00  0.00    +0.047 A 
ATOM     17  C   UNL     1       6.906   0.629  10.373  0.00  0.00    +0.006 A 
ATOM     18  C   UNL     1       7.991   1.377  10.796  0.00  0.00    +0.037 A 
ATOM     19  C   UNL     1       8.463   2.424  10.023  0.00  0.00    +0.004 A 
ATOM     20  C   UNL     1       7.855   2.729   8.823  0.00  0.00    +0.050 A 
ENDBRANCH  14  15
ENDBRANCH  12  13
ENDBRANCH   9  12
BRANCH  24  25
ATOM     25  O   UNL     1       4.534  -1.319   2.348  0.00  0.00    -0.316 OA
ATOM     26  C   UNL     1       3.304  -2.015   2.132  0.00  0.00    +0.221 C 
ENDBRANCH  24  25
BRANCH   6   5
ATOM      5  C   UNL     1       1.798   2.543   1.695  0.00  0.00    +0.147 C 
BRANCH   5   4
ATOM      1  C   UNL     1      -1.965   1.818   1.533  0.00  0.00    +0.077 C 
ATOM      2  C   UNL     1      -0.642   2.534   1.616  0.00  0.00    -0.113 C 
ATOM      3  C   UNL     1      -0.602   4.014   1.900  0.00  0.00    +0.076 C 
ATOM      4  C   UNL     1       0.474   1.870   1.441  0.00  0.00    -0.056 C 
ENDBRANCH   5   4
ENDBRANCH   6   5
BRANCH  24  27
ATOM     27  C   UNL     1       5.747   0.620   3.136  0.00  0.00    +0.112 C 
BRANCH  27  28
ATOM     28  C   UNL     1       6.447   0.681   1.803  0.00  0.00    -0.034 C 
ATOM     29  C   UNL     1       6.851   1.833   1.327  0.00  0.00    -0.118 C 
ATOM     30  C   UNL     1       7.456   1.908  -0.051  0.00  0.00    +0.083 C 
ATOM     31  C   UNL     1       6.710   3.082   2.158  0.00  0.00    +0.073 C 
ENDBRANCH  27  28
ENDBRANCH  24  27
TORSDOF 9
