REMARK  Name = ZINC95486017
REMARK  13 active torsions:
REMARK  status: ('A' for Active; 'I' for Inactive)
REMARK    1  A    between atoms: C1_1  and  C2_2
REMARK    2  A    between atoms: C6_6  and  O1_8
REMARK    3  A    between atoms: O1_8  and  C8_9
REMARK    4  A    between atoms: C9_10  and  O4_33
REMARK    5  A    between atoms: C11_12  and  C26_32
REMARK    6  A    between atoms: C12_13  and  C13_14
REMARK    7  A    between atoms: C14_15  and  O3_30
REMARK    8  A    between atoms: C16_17  and  O2_28
REMARK    9  A    between atoms: C20_21  and  C23_27
REMARK   10  A    between atoms: C21_24  and  C22_26
REMARK   11  A    between atoms: O2_28  and  C24_29
REMARK   12  A    between atoms: O3_30  and  C25_31
REMARK   13  A    between atoms: O4_33  and  C27_34
REMARK                            x       y       z     vdW  Elec       q    Type
REMARK                         _______ _______ _______ _____ _____    ______ ____
ROOT
ATOM     16  C   UNL     1       0.012  -2.057  -3.718  0.00  0.00    -0.102 A 
ATOM     17  C   UNL     1      -1.207  -1.726  -4.317  0.00  0.00    +0.182 A 
ATOM     20  C   UNL     1      -1.215  -1.047  -5.522  0.00  0.00    -0.167 A 
ATOM     21  C   UNL     1      -0.018  -0.701  -6.128  0.00  0.00    +0.178 A 
ATOM     24  C   UNL     1       1.199  -1.029  -5.534  0.00  0.00    -0.179 A 
ATOM     25  C   UNL     1       2.469  -0.632  -6.240  0.00  0.00    +0.230 C 
ATOM     26  C   UNL     1       2.727  -1.600  -7.397  0.00  0.00    +0.042 C 
ATOM     27  N   UNL     1       3.604  -0.656  -5.306  0.00  0.00    -0.670 NA
ATOM     28  H   UNL     1       3.544   0.095  -4.635  0.00  0.00    +0.343 HD
ATOM     29  C   UNL     1       3.671  -1.962  -4.632  0.00  0.00    +0.165 C 
ATOM     30  C   UNL     1       4.997  -2.089  -3.879  0.00  0.00    +0.037 C 
ATOM     31  C   UNL     1       2.508  -2.058  -3.644  0.00  0.00    +0.058 C 
ATOM     32  C   UNL     1       1.216  -1.697  -4.331  0.00  0.00    +0.014 A 
ENDROOT
BRANCH  16  15
ATOM      1  C   UNL     1      -0.018   1.503   0.010  0.00  0.00    +0.090 C 
ATOM      2  C   UNL     1       0.002  -0.004   0.002  0.00  0.00    -0.026 A 
ATOM      3  C   UNL     1       0.005  -0.668  -1.188  0.00  0.00    -0.032 A 
ATOM      4  C   UNL     1       0.024  -2.071  -1.207  0.00  0.00    +0.046 A 
ATOM      5  C   UNL     1       0.040  -2.785   0.015  0.00  0.00    -0.103 A 
ATOM      6  C   UNL     1       0.060  -4.194  -0.004  0.00  0.00    +0.173 A 
ATOM      9  C   UNL     1       0.064  -4.864  -1.208  0.00  0.00    -0.108 A 
ATOM     10  C   UNL     1       0.049  -4.169  -2.411  0.00  0.00    -0.008 A 
ATOM     11  C   UNL     1       0.055  -4.931  -3.711  0.00  0.00    +0.092 C 
ATOM     12  C   UNL     1       0.036  -2.073   1.231  0.00  0.00    +0.171 A 
ATOM     15  C   UNL     1       0.029  -2.785  -2.429  0.00  0.00    -0.072 A 
ATOM     33  C   UNL     1       0.023  -0.696   1.209  0.00  0.00    -0.112 A 
BRANCH   6   7
ATOM      7  O   UNL     1       0.075  -4.889   1.162  0.00  0.00    -0.291 OA
ATOM      8  C   UNL     1       0.095  -6.315   1.067  0.00  0.00    +0.237 C 
ENDBRANCH   6   7
BRANCH  12  13
ATOM     13  O   UNL     1       0.050  -2.739   2.414  0.00  0.00    -0.291 OA
ATOM     14  C   UNL     1       0.044  -1.948   3.604  0.00  0.00    +0.236 C 
ENDBRANCH  12  13
ENDBRANCH  16  15
BRANCH  17  18
ATOM     18  O   UNL     1      -2.377  -2.071  -3.719  0.00  0.00    -0.301 OA
ATOM     19  C   UNL     1      -3.583  -1.699  -4.390  0.00  0.00    +0.236 C 
ENDBRANCH  17  18
BRANCH  21  22
ATOM     22  O   UNL     1      -0.031  -0.035  -7.312  0.00  0.00    -0.308 OA
ATOM     23  C   UNL     1      -1.310   0.273  -7.869  0.00  0.00    +0.239 C 
ENDBRANCH  21  22
TORSDOF 5
