REMARK  Name = ZINC95485887
REMARK  17 active torsions:
REMARK  status: ('A' for Active; 'I' for Inactive)
REMARK    1  A    between atoms: C1_1  and  N1_2
REMARK    2  A    between atoms: C6_7  and  O6_50
REMARK    3  A    between atoms: C7_8  and  C19_22
REMARK    4  A    between atoms: C10_11  and  C11_13
REMARK    5  A    between atoms: C11_13  and  C12_14
REMARK    6  A    between atoms: C17_19  and  O1_20
REMARK    7  A    between atoms: O1_20  and  C18_21
REMARK    8  A    between atoms: C19_22  and  C20_23
REMARK    9  A    between atoms: C24_27  and  O3_31
REMARK   10  A    between atoms: C25_28  and  O2_29
REMARK   11  A    between atoms: O2_29  and  C26_30
REMARK   12  A    between atoms: O3_31  and  C27_32
REMARK   13  A    between atoms: C31_37  and  O5_48
REMARK   14  A    between atoms: C32_38  and  O4_47
REMARK   15  A    between atoms: N2_45  and  C38_46
REMARK   16  A    between atoms: O5_48  and  C39_49
REMARK   17  A    between atoms: O6_50  and  C40_51
REMARK                            x       y       z     vdW  Elec       q    Type
REMARK                         _______ _______ _______ _____ _____    ______ ____
ROOT
ATOM     12  C   UNL     1       0.031  -5.281   4.505  0.00  0.00    -0.062 A 
ATOM     13  C   UNL     1      -1.060  -4.540   4.959  0.00  0.00    -0.045 A 
ATOM     14  C   UNL     1      -2.303  -5.106   5.010  0.00  0.00    -0.118 A 
ATOM     15  C   UNL     1      -3.561  -4.425   5.442  0.00  0.00    +0.299 C 
ATOM     16  C   UNL     1      -3.818  -3.097   4.816  0.00  0.00    -0.104 A 
ATOM     17  C   UNL     1      -4.824  -2.870   3.903  0.00  0.00    -0.015 A 
ATOM     18  C   UNL     1      -5.008  -1.594   3.390  0.00  0.00    +0.114 A 
ATOM     21  C   UNL     1      -4.184  -0.548   3.798  0.00  0.00    +0.123 A 
ATOM     24  C   UNL     1      -3.166  -0.786   4.712  0.00  0.00    +0.065 A 
ATOM     25  C   UNL     1      -2.986  -2.054   5.203  0.00  0.00    -0.101 A 
ATOM     26  C   UNL     1      -1.883  -2.443   6.143  0.00  0.00    +0.073 C 
ATOM     27  C   UNL     1      -2.454  -3.261   7.290  0.00  0.00    +0.259 C 
ATOM     28  N   UNL     1      -3.459  -4.217   6.900  0.00  0.00    -0.377 N 
ATOM     29  H   UNL     1      -3.234  -5.098   7.338  0.00  0.00    +0.426 HD
ATOM     30  C   UNL     1      -4.763  -3.764   7.404  0.00  0.00    +0.317 C 
ATOM     31  C   UNL     1      -2.453  -6.441   4.614  0.00  0.00    -0.054 A 
ATOM     32  C   UNL     1      -1.380  -7.181   4.167  0.00  0.00    +0.114 A 
ATOM     35  C   UNL     1      -0.781  -3.135   5.382  0.00  0.00    +0.109 C 
ATOM     36  C   UNL     1      -0.120  -6.593   4.101  0.00  0.00    +0.126 A 
ENDROOT
BRANCH  18  19
ATOM     19  O   UNL     1      -5.997  -1.363   2.486  0.00  0.00    -0.297 OA
ATOM     20  C   UNL     1      -6.807  -2.480   2.112  0.00  0.00    +0.248 C 
ENDBRANCH  18  19
BRANCH  21  22
ATOM     22  O   UNL     1      -4.376   0.703   3.301  0.00  0.00    -0.470 OA
ATOM     23  H   UNL     1      -4.986   1.244   3.821  0.00  0.00    +0.392 HD
ENDBRANCH  21  22
BRANCH  32  33
ATOM     33  O   UNL     1      -1.552  -8.475   3.787  0.00  0.00    -0.297 OA
ATOM     34  C   UNL     1      -2.875  -9.008   3.876  0.00  0.00    +0.244 C 
ENDBRANCH  32  33
BRANCH  36  37
ATOM     37  O   UNL     1       0.949  -7.302   3.651  0.00  0.00    -0.291 OA
ATOM     38  C   UNL     1       1.699  -8.033   4.624  0.00  0.00    +0.226 C 
ENDBRANCH  36  37
BRANCH  12  11
ATOM     11  C   UNL     1       1.393  -4.639   4.447  0.00  0.00    +0.147 C 
BRANCH  11  10
ATOM      1  C   UNL     1       1.107   1.337   0.113  0.00  0.00    +0.189 C 
ATOM      2  N   UNL     1       1.202  -0.124   0.231  0.00  0.00    -0.523 NA
ATOM      3  C   UNL     1       2.297  -0.650  -0.600  0.00  0.00    +0.171 C 
ATOM      4  C   UNL     1       2.123  -2.163  -0.731  0.00  0.00    +0.086 C 
ATOM      5  C   UNL     1       1.930  -2.779   0.631  0.00  0.00    -0.017 A 
ATOM      6  C   UNL     1       2.111  -4.146   0.768  0.00  0.00    -0.083 A 
ATOM      7  C   UNL     1       1.940  -4.754   2.002  0.00  0.00    +0.145 A 
ATOM     10  C   UNL     1       1.585  -3.987   3.102  0.00  0.00    -0.122 A 
ATOM     39  C   UNL     1       1.408  -2.626   2.962  0.00  0.00    +0.050 A 
ATOM     40  C   UNL     1       1.583  -2.018   1.727  0.00  0.00    -0.110 A 
ATOM     41  C   UNL     1       1.387  -0.528   1.629  0.00  0.00    +0.187 C 
BRANCH   7   8
ATOM      8  O   UNL     1       2.117  -6.095   2.133  0.00  0.00    -0.282 OA
ATOM      9  C   UNL     1       2.481  -6.819   0.956  0.00  0.00    +0.231 C 
ENDBRANCH   7   8
BRANCH  41  42
ATOM     42  C   UNL     1       0.153  -0.126   2.438  0.00  0.00    +0.102 C 
BRANCH  42  43
ATOM     43  C   UNL     1       0.079   1.377   2.529  0.00  0.00    -0.112 A 
ATOM     44  C   UNL     1       1.123   2.087   3.089  0.00  0.00    +0.034 A 
ATOM     45  C   UNL     1       1.056   3.466   3.174  0.00  0.00    -0.034 A 
ATOM     46  C   UNL     1      -0.056   4.137   2.698  0.00  0.00    +0.042 A 
ATOM     47  C   UNL     1      -1.102   3.431   2.136  0.00  0.00    -0.084 A 
ATOM     48  C   UNL     1      -1.035   2.048   2.046  0.00  0.00    +0.142 A 
BRANCH  48  49
ATOM     49  O   UNL     1      -2.061   1.351   1.489  0.00  0.00    -0.299 OA
ATOM     50  C   UNL     1      -3.175   2.108   1.013  0.00  0.00    +0.239 C 
ENDBRANCH  48  49
ENDBRANCH  42  43
ENDBRANCH  41  42
ENDBRANCH  11  10
ENDBRANCH  12  11
TORSDOF 10
