REMARK  Name = ZINC95486343
REMARK  10 active torsions:
REMARK  status: ('A' for Active; 'I' for Inactive)
REMARK    1  A    between atoms: C1_1  and  N1_2
REMARK    2  A    between atoms: C6_7  and  O5_26
REMARK    3  A    between atoms: C7_8  and  O3_23
REMARK    4  A    between atoms: C14_16  and  O2_22
REMARK    5  A    between atoms: C15_17  and  O1_20
REMARK    6  A    between atoms: O1_20  and  C18_21
REMARK    7  A    between atoms: O3_23  and  C19_24
REMARK    8  A    between atoms: C19_24  and  O4_25
REMARK    9  A    between atoms: O5_26  and  C20_27
REMARK   10  A    between atoms: C20_27  and  O6_28
REMARK                            x       y       z     vdW  Elec       q    Type
REMARK                         _______ _______ _______ _____ _____    ______ ____
ROOT
ATOM      1  C   UNL     1      -0.152   1.215  -0.406  0.00  0.00    +0.196 C 
ATOM      2  N   UNL     1      -0.104  -0.251  -0.318  0.00  0.00    -0.534 NA
ATOM      3  C   UNL     1       0.508  -0.806  -1.530  0.00  0.00    +0.176 C 
ATOM      4  C   UNL     1       0.324  -2.312  -1.585  0.00  0.00    +0.090 C 
ATOM      5  C   UNL     1       0.452  -2.949  -0.230  0.00  0.00    -0.031 A 
ATOM      6  C   UNL     1       0.385  -4.336  -0.163  0.00  0.00    -0.055 A 
ATOM      7  C   UNL     1       0.475  -4.983   1.053  0.00  0.00    +0.128 A 
ATOM     12  C   UNL     1       0.648  -4.244   2.220  0.00  0.00    +0.095 A 
ATOM     17  C   UNL     1       0.769  -2.862   2.158  0.00  0.00    -0.022 A 
ATOM     18  C   UNL     1       1.055  -2.031   3.349  0.00  0.00    -0.034 A 
ATOM     19  C   UNL     1       1.820  -2.486   4.419  0.00  0.00    +0.113 A 
ATOM     22  C   UNL     1       1.983  -1.682   5.546  0.00  0.00    +0.090 A 
ATOM     25  C   UNL     1       1.446  -0.407   5.577  0.00  0.00    -0.053 A 
ATOM     26  C   UNL     1       0.769   0.083   4.473  0.00  0.00    +0.044 A 
ATOM     27  C   UNL     1       0.606  -0.709   3.358  0.00  0.00    -0.095 A 
ATOM     28  C   UNL     1      -0.084  -0.164   2.132  0.00  0.00    +0.106 C 
ATOM     29  C   UNL     1       0.623  -2.213   0.920  0.00  0.00    -0.091 A 
ATOM     30  C   UNL     1       0.610  -0.704   0.881  0.00  0.00    +0.193 C 
ENDROOT
BRANCH  19  20
ATOM     20  O   UNL     1       2.473  -3.678   4.374  0.00  0.00    -0.463 OA
ATOM     21  H   UNL     1       3.396  -3.610   4.094  0.00  0.00    +0.384 HD
ENDBRANCH  19  20
BRANCH  22  23
ATOM     23  O   UNL     1       2.675  -2.156   6.618  0.00  0.00    -0.305 OA
ATOM     24  C   UNL     1       2.808  -1.283   7.742  0.00  0.00    +0.238 C 
ENDBRANCH  22  23
BRANCH   7   8
ATOM      8  O   UNL     1       0.394  -6.340   1.115  0.00  0.00    -0.271 OA
BRANCH   8   9
ATOM      9  C   UNL     1       0.215  -7.036  -0.120  0.00  0.00    +0.391 C 
BRANCH   9  10
ATOM     10  O   UNL     1       1.448  -7.048  -0.843  0.00  0.00    -0.590 OA
ATOM     11  H   UNL     1       1.401  -7.505  -1.694  0.00  0.00    +0.397 HD
ENDBRANCH   9  10
ENDBRANCH   8   9
ENDBRANCH   7   8
BRANCH  12  13
ATOM     13  O   UNL     1       0.628  -4.905   3.409  0.00  0.00    -0.276 OA
BRANCH  13  14
ATOM     14  C   UNL     1      -0.626  -4.973   4.093  0.00  0.00    +0.375 C 
BRANCH  14  15
ATOM     15  O   UNL     1      -1.468  -5.932   3.450  0.00  0.00    -0.588 OA
ATOM     16  H   UNL     1      -2.307  -6.086   3.905  0.00  0.00    +0.390 HD
ENDBRANCH  14  15
ENDBRANCH  13  14
ENDBRANCH  12  13
TORSDOF 8
