REMARK  Name = ZINC95486056
REMARK  8 active torsions:
REMARK  status: ('A' for Active; 'I' for Inactive)
REMARK    1  A    between atoms: C4_4  and  C7_7
REMARK    2  A    between atoms: C8_8  and  C9_9
REMARK    3  A    between atoms: C9_9  and  C10_11
REMARK    4  A    between atoms: C11_12  and  O6_23
REMARK    5  A    between atoms: C12_13  and  C17_21
REMARK    6  A    between atoms: C13_14  and  O4_20
REMARK    7  A    between atoms: C14_15  and  C16_18
REMARK    8  A    between atoms: C15_16  and  O2_17
REMARK                            x       y       z     vdW  Elec       q    Type
REMARK                         _______ _______ _______ _____ _____    ______ ____
ROOT
ATOM      8  C   UNL     1       5.129  -4.205  -0.074  0.00  0.00    -0.242 A 
ATOM      9  C   UNL     1       3.985  -5.014  -0.127  0.00  0.00    +0.259 A 
ATOM     12  C   UNL     1       4.113  -6.414  -0.138  0.00  0.00    -0.274 A 
ATOM     15  C   UNL     1       5.388  -7.002  -0.097  0.00  0.00    +0.276 A 
ATOM     18  C   UNL     1       6.533  -6.191  -0.044  0.00  0.00    -0.276 A 
ATOM     21  C   UNL     1       6.402  -4.791  -0.039  0.00  0.00    +0.258 A 
ENDROOT
BRANCH   8   7
ATOM      7  C   UNL     1       4.994  -2.739  -0.063  0.00  0.00    +0.451 C 
ATOM     24  O   UNL     1       4.887  -2.129  -1.112  0.00  0.00    -0.440 OA
BRANCH   7   6
ATOM      5  C   UNL     1       4.969  -0.666   1.218  0.00  0.00    +0.138 C 
ATOM      6  C   UNL     1       4.987  -2.015   1.210  0.00  0.00    -0.106 C 
BRANCH   5   4
ATOM      1  C   UNL     1       4.949   1.433   4.904  0.00  0.00    +0.025 A 
ATOM      2  C   UNL     1       4.937   2.136   3.711  0.00  0.00    +0.005 A 
ATOM      3  C   UNL     1       4.944   1.461   2.509  0.00  0.00    +0.040 A 
ATOM      4  C   UNL     1       4.963   0.062   2.497  0.00  0.00    -0.088 A 
ATOM     25  C   UNL     1       4.974  -0.640   3.706  0.00  0.00    +0.032 A 
ATOM     26  C   UNL     1       4.967   0.049   4.900  0.00  0.00    +0.004 A 
ENDBRANCH   5   4
ENDBRANCH   7   6
ENDBRANCH   8   7
BRANCH   9  10
ATOM     10  O   UNL     1       2.759  -4.447  -0.166  0.00  0.00    -0.482 OA
ATOM     11  H   UNL     1       2.435  -4.272  -1.061  0.00  0.00    +0.414 HD
ENDBRANCH   9  10
BRANCH  12  13
ATOM     13  C   UNL     1       2.919  -7.257  -0.193  0.00  0.00    +0.498 C 
ATOM     14  O   UNL     1       3.030  -8.465  -0.202  0.00  0.00    -0.437 OA
ENDBRANCH  12  13
BRANCH  15  16
ATOM     16  O   UNL     1       5.512  -8.348  -0.107  0.00  0.00    -0.455 OA
ATOM     17  H   UNL     1       5.581  -8.730  -0.993  0.00  0.00    +0.410 HD
ENDBRANCH  15  16
BRANCH  18  19
ATOM     19  C   UNL     1       7.861  -6.801  -0.001  0.00  0.00    +0.498 C 
ATOM     20  O   UNL     1       7.974  -8.010  -0.011  0.00  0.00    -0.437 OA
ENDBRANCH  18  19
BRANCH  21  22
ATOM     22  O   UNL     1       7.505  -4.010   0.006  0.00  0.00    -0.481 OA
ATOM     23  H   UNL     1       7.796  -3.792   0.901  0.00  0.00    +0.411 HD
ENDBRANCH  21  22
TORSDOF 8
