REMARK  Name = ZINC95485964
REMARK  17 active torsions:
REMARK  status: ('A' for Active; 'I' for Inactive)
REMARK    1  A    between atoms: C1_1  and  C2_2
REMARK    2  A    between atoms: C10_10  and  O1_18
REMARK    3  A    between atoms: C11_11  and  C12_12
REMARK    4  A    between atoms: C12_12  and  C13_13
REMARK    5  A    between atoms: C13_13  and  C14_14
REMARK    6  A    between atoms: C15_15  and  C16_16
REMARK    7  A    between atoms: C15_15  and  C17_17
REMARK    8  A    between atoms: C21_24  and  C22_25
REMARK    9  A    between atoms: C21_24  and  C28_31
REMARK   10  A    between atoms: C22_25  and  C23_26
REMARK   11  A    between atoms: C23_26  and  C24_27
REMARK   12  A    between atoms: C25_28  and  C26_29
REMARK   13  A    between atoms: C25_28  and  C27_30
REMARK   14  A    between atoms: C28_31  and  C29_32
REMARK   15  A    between atoms: C29_32  and  C30_33
REMARK   16  A    between atoms: C31_34  and  C32_35
REMARK   17  A    between atoms: C31_34  and  C33_36
REMARK                            x       y       z     vdW  Elec       q    Type
REMARK                         _______ _______ _______ _____ _____    ______ ____
ROOT
ATOM      1  C   UNL     1      -8.637   3.692   1.162  0.00  0.00    +0.075 C 
ATOM      2  C   UNL     1      -7.519   2.785   1.608  0.00  0.00    -0.046 A 
ATOM      3  C   UNL     1      -6.862   2.027   0.685  0.00  0.00    -0.054 A 
ATOM      4  C   UNL     1      -5.822   1.176   1.088  0.00  0.00    +0.047 A 
ATOM      5  C   UNL     1      -5.137   0.375   0.153  0.00  0.00    -0.161 A 
ATOM      6  C   UNL     1      -4.127  -0.446   0.547  0.00  0.00    +0.062 A 
ATOM      7  C   UNL     1      -3.743  -0.499   1.901  0.00  0.00    -0.381 A 
ATOM      8  C   UNL     1      -2.632  -1.350   2.346  0.00  0.00    +0.406 C 
ATOM      9  C   UNL     1      -2.119  -2.421   1.407  0.00  0.00    -0.001 C 
ATOM     10  C   UNL     1      -2.137  -1.820   0.014  0.00  0.00    +0.390 C 
ATOM     11  O   UNL     1      -1.134  -1.768  -0.657  0.00  0.00    -0.452 OA
ATOM     12  O   UNL     1      -2.137  -1.199   3.443  0.00  0.00    -0.457 OA
ATOM     13  C   UNL     1      -4.410   0.276   2.858  0.00  0.00    +0.344 A 
ATOM     14  O   UNL     1      -4.048   0.212   4.160  0.00  0.00    -0.615 OA
ATOM     15  C   UNL     1      -3.450  -1.289  -0.504  0.00  0.00    -0.066 C 
ATOM     28  C   UNL     1      -5.460   1.122   2.456  0.00  0.00    -0.177 A 
ATOM     29  C   UNL     1      -6.156   1.914   3.389  0.00  0.00    +0.187 A 
ATOM     32  C   UNL     1      -7.172   2.739   2.953  0.00  0.00    -0.181 A 
ENDROOT
BRANCH  29  30
ATOM     30  O   UNL     1      -5.827   1.871   4.705  0.00  0.00    -0.472 OA
ATOM     31  H   UNL     1      -5.152   2.514   4.963  0.00  0.00    +0.382 HD
ENDBRANCH  29  30
BRANCH  15  16
ATOM     16  C   UNL     1      -3.196  -0.437  -1.749  0.00  0.00    +0.053 C 
BRANCH  16  17
ATOM     17  C   UNL     1      -2.296   0.745  -1.383  0.00  0.00    +0.050 C 
BRANCH  17  18
ATOM     18  C   UNL     1      -2.045   1.584  -2.610  0.00  0.00    -0.051 C 
ATOM     19  C   UNL     1      -2.464   2.825  -2.651  0.00  0.00    -0.142 C 
ATOM     20  C   UNL     1      -2.176   3.677  -3.860  0.00  0.00    +0.064 C 
ATOM     21  C   UNL     1      -3.235   3.399  -1.491  0.00  0.00    +0.073 C 
ENDBRANCH  17  18
ENDBRANCH  16  17
ENDBRANCH  15  16
BRANCH  15  22
ATOM     22  C   UNL     1      -4.360  -2.462  -0.876  0.00  0.00    +0.063 C 
BRANCH  22  23
ATOM     23  C   UNL     1      -3.680  -3.314  -1.949  0.00  0.00    +0.044 C 
BRANCH  23  24
ATOM     24  C   UNL     1      -4.591  -4.449  -2.341  0.00  0.00    -0.047 C 
ATOM     25  C   UNL     1      -4.153  -5.683  -2.308  0.00  0.00    -0.142 C 
ATOM     26  C   UNL     1      -5.090  -6.824  -2.608  0.00  0.00    +0.069 C 
ATOM     27  C   UNL     1      -2.711  -5.961  -1.970  0.00  0.00    +0.070 C 
ENDBRANCH  23  24
ENDBRANCH  22  23
ENDBRANCH  15  22
BRANCH  32  33
ATOM     33  C   UNL     1      -7.917   3.594   3.946  0.00  0.00    +0.073 C 
BRANCH  33  34
ATOM     34  C   UNL     1      -9.117   2.816   4.490  0.00  0.00    +0.052 C 
BRANCH  34  35
ATOM     35  C   UNL     1      -9.861   3.671   5.482  0.00  0.00    -0.057 C 
ATOM     36  C   UNL     1     -10.066   3.234   6.700  0.00  0.00    -0.140 C 
ATOM     37  C   UNL     1     -10.664   4.148   7.738  0.00  0.00    +0.067 C 
ATOM     38  C   UNL     1      -9.702   1.817   7.063  0.00  0.00    +0.072 C 
ENDBRANCH  34  35
ENDBRANCH  33  34
ENDBRANCH  32  33
TORSDOF 10
