REMARK  Name = ZINC95486221
REMARK  3 active torsions:
REMARK  status: ('A' for Active; 'I' for Inactive)
REMARK    1  A    between atoms: C1_1  and  C2_2
REMARK    2  A    between atoms: C5_7  and  C21_28
REMARK    3  A    between atoms: C20_25  and  O1_27
REMARK                            x       y       z     vdW  Elec       q    Type
REMARK                         _______ _______ _______ _____ _____    ______ ____
ROOT
ATOM      1  C   UNL     1      -0.019   1.526   0.010  0.00  0.00    +0.017 C 
ATOM      2  C   UNL     1       0.002  -0.004   0.002  0.00  0.00    +0.007 C 
ATOM      3  C   UNL     1      -1.430  -0.518  -0.068  0.00  0.00    +0.018 C 
ATOM      4  C   UNL     1      -1.841  -1.329   1.150  0.00  0.00    +0.045 C 
ATOM      5  C   UNL     1      -3.370  -1.501   1.145  0.00  0.00    -0.078 C 
ATOM      6  C   UNL     1      -3.772  -2.254  -0.126  0.00  0.00    +0.067 C 
ATOM      7  C   UNL     1      -3.813  -2.340   2.335  0.00  0.00    +0.049 C 
ATOM      8  C   UNL     1      -3.361  -1.701   3.646  0.00  0.00    +0.003 C 
ATOM      9  C   UNL     1      -1.840  -1.525   3.629  0.00  0.00    +0.088 C 
ATOM     10  C   UNL     1      -4.049  -0.141   1.130  0.00  0.00    +0.310 C 
ATOM     11  N   UNL     1      -3.381   0.817   1.995  0.00  0.00    -0.493 N 
ATOM     12  H   UNL     1      -3.826   1.667   2.137  0.00  0.00    +0.437 HD
ATOM     13  C   UNL     1      -2.276   0.643   2.575  0.00  0.00    +0.523 C 
ATOM     14  C   UNL     1      -1.456  -0.620   2.447  0.00  0.00    -0.043 C 
ATOM     15  C   UNL     1       0.017  -0.267   2.498  0.00  0.00    +0.014 C 
ATOM     16  C   UNL     1       0.740  -0.880   3.692  0.00  0.00    +0.041 C 
ATOM     17  C   UNL     1       2.037  -1.557   3.226  0.00  0.00    +0.039 C 
ATOM     18  C   UNL     1       2.858  -0.538   2.454  0.00  0.00    -0.165 C 
ATOM     19  C   UNL     1       2.138   0.145   1.300  0.00  0.00    +0.215 C 
ATOM     22  C   UNL     1       4.106  -0.265   2.757  0.00  0.00    +0.039 C 
ATOM     23  C   UNL     1       1.641  -2.672   2.248  0.00  0.00    +0.021 C 
ATOM     24  C   UNL     1       1.024  -2.045   1.000  0.00  0.00    +0.031 C 
ATOM     25  C   UNL     1       0.760  -0.553   1.201  0.00  0.00    -0.016 C 
ENDROOT
BRANCH  19  20
ATOM     20  O   UNL     1       2.869  -0.029   0.089  0.00  0.00    -0.550 OA
ATOM     21  H   UNL     1       3.742   0.387   0.093  0.00  0.00    +0.384 HD
ENDBRANCH  19  20
TORSDOF 1
