REMARK  Name = ZINC06523722
REMARK  2 active torsions:
REMARK  status: ('A' for Active; 'I' for Inactive)
REMARK    1  A    between atoms: C1_1  and  N1_2
REMARK    2  A    between atoms: C10_11  and  O1_12
REMARK                            x       y       z     vdW  Elec       q    Type
REMARK                         _______ _______ _______ _____ _____    ______ ____
ROOT
ATOM      1  C   UNL     1      -0.018   1.461   0.010  0.00  0.00    +0.314 C 
ATOM      2  N   UNL     1       0.002  -0.004   0.002  0.00  0.00    -0.529 N 
ATOM      3  C   UNL     1      -0.100  -0.671  -1.202  0.00  0.00    +0.216 A 
ATOM      4  C   UNL     1      -0.520   0.002  -2.346  0.00  0.00    -0.047 A 
ATOM      5  C   UNL     1      -0.614  -0.669  -3.545  0.00  0.00    +0.082 A 
ATOM      6  C   UNL     1      -0.292  -2.017  -3.630  0.00  0.00    -0.032 A 
ATOM      7  C   UNL     1       0.124  -2.704  -2.511  0.00  0.00    +0.114 A 
ATOM      8  C   UNL     1       0.220  -2.037  -1.289  0.00  0.00    -0.209 A 
ATOM      9  C   UNL     1       0.652  -2.745  -0.068  0.00  0.00    +0.438 A 
ATOM     10  O   UNL     1       1.151  -3.855  -0.118  0.00  0.00    -0.454 OA
ATOM     11  C   UNL     1       0.450  -2.049   1.213  0.00  0.00    -0.243 A 
ATOM     12  C   UNL     1       0.577  -2.728   2.432  0.00  0.00    +0.205 A 
ATOM     13  C   UNL     1       0.372  -2.044   3.618  0.00  0.00    -0.058 A 
ATOM     14  C   UNL     1       0.046  -0.698   3.598  0.00  0.00    +0.105 A 
ATOM     15  C   UNL     1      -0.079  -0.018   2.405  0.00  0.00    -0.058 A 
ATOM     18  C   UNL     1       0.128  -0.681   1.198  0.00  0.00    +0.235 A 
ENDROOT
BRANCH  12  16
ATOM     16  O   UNL     1       0.897  -4.047   2.450  0.00  0.00    -0.481 OA
ATOM     17  H   UNL     1       1.848  -4.220   2.482  0.00  0.00    +0.401 HD
ENDBRANCH  12  16
TORSDOF 1
