REMARK  Name = ZINC95486194
REMARK  12 active torsions:
REMARK  status: ('A' for Active; 'I' for Inactive)
REMARK    1  A    between atoms: C1_1  and  C2_2
REMARK    2  A    between atoms: C4_4  and  O7_27
REMARK    3  A    between atoms: C5_5  and  C19_24
REMARK    4  A    between atoms: C7_7  and  C8_8
REMARK    5  A    between atoms: C8_8  and  O2_10
REMARK    6  A    between atoms: O2_10  and  C9_11
REMARK    7  A    between atoms: C11_13  and  C18_22
REMARK    8  A    between atoms: C12_14  and  C16_19
REMARK    9  A    between atoms: C13_15  and  O3_18
REMARK   10  A    between atoms: C14_16  and  C15_17
REMARK   11  A    between atoms: C16_19  and  C17_21
REMARK   12  A    between atoms: C19_24  and  C20_26
REMARK                            x       y       z     vdW  Elec       q    Type
REMARK                         _______ _______ _______ _____ _____    ______ ____
ROOT
ATOM     14  C   UNL     1       1.457  -0.654   2.736  0.00  0.00    +0.567 C 
ATOM     29  O   UNL     1       1.843  -1.215   3.742  0.00  0.00    -0.503 OA
ENDROOT
BRANCH  14  13
ATOM      1  C   UNL     1      -1.087  -1.890   2.166  0.00  0.00    +0.078 C 
ATOM      2  C   UNL     1       0.060  -2.021   1.197  0.00  0.00    +0.029 A 
ATOM      3  C   UNL     1      -0.109  -2.730   0.030  0.00  0.00    -0.157 A 
ATOM      4  C   UNL     1       0.939  -2.859  -0.873  0.00  0.00    +0.199 A 
ATOM      7  C   UNL     1       2.183  -2.264  -0.598  0.00  0.00    -0.330 A 
ATOM     11  C   UNL     1       2.358  -1.540   0.591  0.00  0.00    +0.346 A 
ATOM     12  O   UNL     1       3.550  -0.962   0.868  0.00  0.00    -0.685 OA
ATOM     13  C   UNL     1       1.288  -1.415   1.488  0.00  0.00    -0.280 A 
BRANCH   7   8
ATOM      8  C   UNL     1       3.290  -2.399  -1.548  0.00  0.00    +0.454 C 
ATOM      9  C   UNL     1       4.279  -3.526  -1.397  0.00  0.00    +0.054 C 
ATOM     10  O   UNL     1       3.411  -1.604  -2.456  0.00  0.00    -0.483 OA
ENDBRANCH   7   8
BRANCH   4   5
ATOM      5  O   UNL     1       0.762  -3.559  -2.018  0.00  0.00    -0.507 OA
ATOM      6  H   UNL     1       0.448  -3.026  -2.761  0.00  0.00    +0.387 HD
ENDBRANCH   4   5
ENDBRANCH  14  13
BRANCH  14  15
ATOM     15  O   UNL     1       1.184   0.667   2.762  0.00  0.00    -0.294 OA
BRANCH  15  16
ATOM     16  C   UNL     1       1.251   1.307   3.957  0.00  0.00    +0.131 A 
ATOM     17  C   UNL     1       0.100   1.460   4.726  0.00  0.00    +0.006 A 
ATOM     18  C   UNL     1       0.154   2.102   5.929  0.00  0.00    -0.036 A 
ATOM     19  C   UNL     1      -1.098   2.262   6.753  0.00  0.00    +0.104 C 
ATOM     20  C   UNL     1       1.371   2.612   6.399  0.00  0.00    -0.187 A 
ATOM     24  C   UNL     1       2.535   2.459   5.624  0.00  0.00    +0.150 A 
ATOM     27  C   UNL     1       2.466   1.801   4.408  0.00  0.00    -0.112 A 
ATOM     28  C   UNL     1       3.708   1.626   3.573  0.00  0.00    +0.118 C 
BRANCH  20  21
ATOM     21  C   UNL     1       1.432   3.302   7.690  0.00  0.00    +0.418 C 
ATOM     22  C   UNL     1       1.723   2.524   8.947  0.00  0.00    +0.075 C 
ATOM     23  O   UNL     1       1.247   4.500   7.747  0.00  0.00    -0.447 OA
ENDBRANCH  20  21
BRANCH  24  25
ATOM     25  O   UNL     1       3.719   2.949   6.068  0.00  0.00    -0.486 OA
ATOM     26  H   UNL     1       4.260   2.303   6.542  0.00  0.00    +0.391 HD
ENDBRANCH  24  25
ENDBRANCH  15  16
ENDBRANCH  14  15
TORSDOF 7
