REMARK  Name = ZINC95486218
REMARK  11 active torsions:
REMARK  status: ('A' for Active; 'I' for Inactive)
REMARK    1  A    between atoms: C1_1  and  C2_2
REMARK    2  A    between atoms: C8_8  and  O4_29
REMARK    3  A    between atoms: C10_10  and  O3_28
REMARK    4  A    between atoms: C11_11  and  C12_12
REMARK    5  A    between atoms: C13_13  and  O2_26
REMARK    6  A    between atoms: C17_17  and  C23_25
REMARK    7  A    between atoms: C18_19  and  C22_24
REMARK    8  A    between atoms: C20_21  and  O1_22
REMARK    9  A    between atoms: O1_22  and  C21_23
REMARK   10  A    between atoms: O2_26  and  C24_27
REMARK   11  A    between atoms: O4_29  and  C25_30
REMARK                            x       y       z     vdW  Elec       q    Type
REMARK                         _______ _______ _______ _____ _____    ______ ____
ROOT
ATOM     16  C   UNL     1      -0.025   0.775   2.221  0.00  0.00    -0.086 A 
ATOM     17  C   UNL     1       1.180   1.145   2.847  0.00  0.00    +0.181 A 
ATOM     20  C   UNL     1       1.192   1.575   4.143  0.00  0.00    -0.091 A 
ATOM     21  C   UNL     1      -0.007   1.653   4.865  0.00  0.00    +0.039 A 
ATOM     22  C   UNL     1      -0.043   2.092   6.202  0.00  0.00    -0.048 A 
ATOM     23  C   UNL     1      -1.244   2.142   6.841  0.00  0.00    +0.132 A 
ATOM     24  C   UNL     1      -1.293   2.610   8.273  0.00  0.00    +0.125 C 
ATOM     25  N   UNL     1      -2.373   1.791   6.239  0.00  0.00    -0.501 NA
ATOM     26  C   UNL     1      -2.414   1.373   4.995  0.00  0.00    +0.205 A 
ATOM     27  C   UNL     1      -3.731   0.990   4.371  0.00  0.00    +0.141 C 
ATOM     28  C   UNL     1      -1.231   1.284   4.247  0.00  0.00    -0.162 A 
ATOM     29  C   UNL     1      -1.229   0.847   2.909  0.00  0.00    +0.192 A 
ENDROOT
BRANCH  16  15
ATOM      1  C   UNL     1      -0.317   2.702   0.098  0.00  0.00    +0.092 C 
ATOM      2  C   UNL     1      -0.152   1.240  -0.228  0.00  0.00    -0.036 A 
ATOM      3  C   UNL     1      -0.136   0.840  -1.527  0.00  0.00    +0.002 A 
ATOM      4  C   UNL     1       0.018  -0.521  -1.845  0.00  0.00    +0.006 A 
ATOM      5  C   UNL     1       0.038  -0.954  -3.181  0.00  0.00    -0.025 A 
ATOM      6  C   UNL     1       0.189  -2.277  -3.466  0.00  0.00    +0.061 A 
ATOM      7  C   UNL     1       0.325  -3.219  -2.450  0.00  0.00    -0.105 A 
ATOM      8  C   UNL     1       0.310  -2.836  -1.128  0.00  0.00    +0.160 A 
ATOM     11  C   UNL     1       0.157  -1.473  -0.803  0.00  0.00    -0.101 A 
ATOM     12  C   UNL     1       0.138  -1.042   0.535  0.00  0.00    +0.176 A 
ATOM     15  C   UNL     1      -0.010   0.311   0.814  0.00  0.00    -0.074 A 
BRANCH   8   9
ATOM      9  O   UNL     1       0.443  -3.763  -0.145  0.00  0.00    -0.295 OA
ATOM     10  C   UNL     1       0.595  -5.124  -0.553  0.00  0.00    +0.239 C 
ENDBRANCH   8   9
BRANCH  12  13
ATOM     13  O   UNL     1       0.269  -1.940   1.546  0.00  0.00    -0.471 OA
ATOM     14  H   UNL     1       1.184  -2.096   1.817  0.00  0.00    +0.389 HD
ENDBRANCH  12  13
ENDBRANCH  16  15
BRANCH  17  18
ATOM     18  O   UNL     1       2.345   1.071   2.154  0.00  0.00    -0.305 OA
ATOM     19  C   UNL     1       3.535   1.460   2.843  0.00  0.00    +0.246 C 
ENDBRANCH  17  18
BRANCH  29  30
ATOM     30  O   UNL     1      -2.390   0.495   2.300  0.00  0.00    -0.317 OA
ATOM     31  C   UNL     1      -3.036   1.495   1.510  0.00  0.00    +0.235 C 
ENDBRANCH  29  30
TORSDOF 5
