REMARK  Name = ZINC95486198
REMARK  5 active torsions:
REMARK  status: ('A' for Active; 'I' for Inactive)
REMARK    1  A    between atoms: C1_1  and  O1_2
REMARK    2  A    between atoms: O1_2  and  C2_3
REMARK    3  A    between atoms: C7_8  and  O2_9
REMARK    4  A    between atoms: O2_9  and  C8_10
REMARK    5  A    between atoms: C28_34  and  O6_35
REMARK                            x       y       z     vdW  Elec       q    Type
REMARK                         _______ _______ _______ _____ _____    ______ ____
ROOT
ATOM      3  C   UNL     1      -1.203  -0.639   0.010  0.00  0.00    +0.175 A 
ATOM      4  C   UNL     1      -2.370   0.106   0.025  0.00  0.00    -0.072 A 
ATOM      5  C   UNL     1      -3.602  -0.528   0.080  0.00  0.00    -0.002 A 
ATOM      6  C   UNL     1      -3.641  -1.903   0.083  0.00  0.00    -0.195 A 
ATOM      7  C   UNL     1      -2.490  -2.667  -0.050  0.00  0.00    +0.154 A 
ATOM      8  O   UNL     1      -2.601  -3.981  -0.328  0.00  0.00    -0.139 OA
ATOM      9  O   UNL     1      -1.475  -4.874  -0.188  0.00  0.00    -0.078 OA
ATOM     10  C   UNL     1      -0.603  -5.036  -1.202  0.00  0.00    +0.074 A 
ATOM     11  C   UNL     1      -0.331  -4.008  -2.091  0.00  0.00    -0.005 A 
ATOM     12  C   UNL     1       0.659  -4.147  -3.043  0.00  0.00    +0.040 A 
ATOM     13  C   UNL     1       1.370  -5.328  -3.127  0.00  0.00    +0.012 A 
ATOM     14  C   UNL     1       1.036  -6.391  -2.307  0.00  0.00    -0.042 A 
ATOM     15  C   UNL     1       1.841  -7.663  -2.409  0.00  0.00    +0.097 C 
ATOM     16  C   UNL     1       1.509  -8.565  -1.218  0.00  0.00    +0.153 C 
ATOM     17  N   UNL     1       0.025  -8.731  -1.228  0.00  0.00    -0.602 NA
ATOM     18  H   UNL     1      -0.125  -9.400  -0.412  0.00  0.00    +0.324 HD
ATOM     19  C   UNL     1      -0.565  -7.478  -0.701  0.00  0.00    +0.189 C 
ATOM     20  C   UNL     1      -0.406  -7.418   0.810  0.00  0.00    +0.072 C 
ATOM     21  C   UNL     1      -1.775  -7.444   1.446  0.00  0.00    -0.059 A 
ATOM     22  C   UNL     1      -2.817  -8.103   0.818  0.00  0.00    +0.031 A 
ATOM     23  C   UNL     1      -4.085  -8.091   1.367  0.00  0.00    +0.026 A 
ATOM     24  C   UNL     1      -4.309  -7.428   2.564  0.00  0.00    +0.065 A 
ATOM     25  O   UNL     1      -5.574  -7.341   3.067  0.00  0.00    -0.239 OA
ATOM     26  C   UNL     1      -6.197  -6.145   2.838  0.00  0.00    +0.102 A 
ATOM     27  C   UNL     1      -5.441  -5.070   2.400  0.00  0.00    -0.023 A 
ATOM     28  C   UNL     1      -6.042  -3.840   2.189  0.00  0.00    -0.094 A 
ATOM     29  C   UNL     1      -5.197  -2.662   1.798  0.00  0.00    +0.115 C 
ATOM     30  C   UNL     1      -7.405  -3.693   2.376  0.00  0.00    -0.010 A 
ATOM     31  C   UNL     1      -8.164  -4.770   2.797  0.00  0.00    +0.040 A 
ATOM     32  C   UNL     1      -7.562  -5.997   3.036  0.00  0.00    +0.103 A 
ATOM     35  C   UNL     1      -3.251  -6.824   3.229  0.00  0.00    +0.003 A 
ATOM     36  C   UNL     1      -1.988  -6.825   2.664  0.00  0.00    +0.026 A 
ATOM     37  C   UNL     1       0.004  -6.282  -1.399  0.00  0.00    -0.081 A 
ATOM     38  C   UNL     1      -4.961  -2.601   0.287  0.00  0.00    +0.253 C 
ATOM     39  N   UNL     1      -6.056  -1.837  -0.334  0.00  0.00    -0.501 N 
ATOM     40  H   UNL     1      -6.936  -2.326  -0.192  0.00  0.00    +0.437 HD
ATOM     41  H   UNL     1      -5.899  -1.762  -1.336  0.00  0.00    +0.435 HD
ATOM     42  C   UNL     1      -6.137  -0.503   0.256  0.00  0.00    +0.265 C 
ATOM     43  C   UNL     1      -4.856   0.294   0.099  0.00  0.00    +0.134 C 
ATOM     44  C   UNL     1      -1.246  -2.030   0.003  0.00  0.00    +0.008 A 
ENDROOT
BRANCH   3   2
ATOM      1  C   UNL     1      -0.017   1.425   0.010  0.00  0.00    +0.257 C 
ATOM      2  O   UNL     1       0.002  -0.004   0.002  0.00  0.00    -0.291 OA
ENDBRANCH   3   2
BRANCH  32  33
ATOM     33  O   UNL     1      -8.308  -7.050   3.465  0.00  0.00    -0.484 OA
ATOM     34  H   UNL     1      -8.377  -7.117   4.427  0.00  0.00    +0.398 HD
ENDBRANCH  32  33
BRANCH  44  45
ATOM     45  O   UNL     1      -0.081  -2.723   0.112  0.00  0.00    -0.298 OA
ATOM     46  C   UNL     1       0.355  -3.056   1.432  0.00  0.00    +0.228 C 
ENDBRANCH  44  45
TORSDOF 3
