REMARK  Name = ZINC95486071
REMARK  1 active torsions:
REMARK  status: ('A' for Active; 'I' for Inactive)
REMARK    1  A    between atoms: C9_13  and  O4_29
REMARK                            x       y       z     vdW  Elec       q    Type
REMARK                         _______ _______ _______ _____ _____    ______ ____
ROOT
ATOM      1  C   UNL     1      -0.017   1.392   0.010  0.00  0.00    +0.111 A 
ATOM      2  C   UNL     1       1.236   1.983   0.001  0.00  0.00    -0.133 A 
ATOM      3  C   UNL     1       2.436   1.267   0.019  0.00  0.00    +0.158 A 
ATOM      4  N   UNL     1       3.524   2.124   0.127  0.00  0.00    -0.536 N 
ATOM      5  C   UNL     1       4.836   1.850   0.017  0.00  0.00    +0.508 C 
ATOM      6  C   UNL     1       5.816   2.987  -0.005  0.00  0.00    +0.207 C 
ATOM      9  C   UNL     1       5.206   4.302   0.468  0.00  0.00    -0.055 C 
ATOM     10  C   UNL     1       4.795   4.222   1.942  0.00  0.00    +0.063 C 
ATOM     11  C   UNL     1       3.308   3.714   1.931  0.00  0.00    +0.046 C 
ATOM     12  C   UNL     1       6.109   5.413   0.031  0.00  0.00    +0.006 C 
ATOM     13  C   UNL     1       5.973   5.834  -1.205  0.00  0.00    -0.048 C 
ATOM     14  C   UNL     1       4.940   5.367  -2.189  0.00  0.00    +0.283 C 
ATOM     15  N   UNL     1       3.797   4.750  -1.580  0.00  0.00    -0.631 NA
ATOM     16  C   UNL     1       2.951   3.764  -2.225  0.00  0.00    +0.228 C 
ATOM     17  C   UNL     1       1.563   3.815  -1.569  0.00  0.00    +0.048 C 
ATOM     18  C   UNL     1       3.842   4.584  -0.175  0.00  0.00    +0.224 C 
ATOM     19  O   UNL     1       5.221   0.702  -0.064  0.00  0.00    -0.512 OA
ATOM     20  C   UNL     1       3.010   3.472   0.441  0.00  0.00    +0.149 C 
ATOM     21  C   UNL     1       2.453  -0.136  -0.009  0.00  0.00    +0.050 A 
ATOM     22  C   UNL     1       1.196  -0.738  -0.016  0.00  0.00    +0.058 A 
ATOM     23  O   UNL     1       0.895  -2.059  -0.041  0.00  0.00    -0.305 OA
ATOM     24  C   UNL     1      -0.494  -2.131  -0.425  0.00  0.00    +0.431 C 
ATOM     25  O   UNL     1      -1.042  -0.867   0.003  0.00  0.00    -0.305 OA
ATOM     26  C   UNL     1       1.587   3.462  -0.066  0.00  0.00    +0.095 C 
ATOM     27  C   UNL     1       0.002  -0.004   0.002  0.00  0.00    +0.007 A 
ENDROOT
BRANCH   6   7
ATOM      7  O   UNL     1       6.919   2.662   0.843  0.00  0.00    -0.536 OA
ATOM      8  H   UNL     1       7.395   1.862   0.580  0.00  0.00    +0.391 HD
ENDBRANCH   6   7
TORSDOF 1
