REMARK  Name = ZINC03830747
REMARK  12 active torsions:
REMARK  status: ('A' for Active; 'I' for Inactive)
REMARK    1  A    between atoms: C1_1  and  C2_2
REMARK    2  A    between atoms: C2_2  and  C3_3
REMARK    3  A    between atoms: C9_11  and  O4_38
REMARK    4  A    between atoms: C10_12  and  O3_36
REMARK    5  A    between atoms: C15_18  and  C16_20
REMARK    6  A    between atoms: C16_20  and  C17_21
REMARK    7  A    between atoms: C20_25  and  O2_34
REMARK    8  A    between atoms: C21_26  and  O1_32
REMARK    9  A    between atoms: O1_32  and  C26_33
REMARK   10  A    between atoms: O2_34  and  C27_35
REMARK   11  A    between atoms: O3_36  and  C28_37
REMARK   12  A    between atoms: O4_38  and  C29_39
REMARK                            x       y       z     vdW  Elec       q    Type
REMARK                         _______ _______ _______ _____ _____    ______ ____
ROOT
ATOM      3  C   UNL     1      -1.433  -0.534   0.013  0.00  0.00    -0.007 C 
ATOM      4  C   UNL     1      -2.136  -0.132  -1.287  0.00  0.00    +0.260 C 
ATOM      5  N   UNL     1      -3.510  -0.647  -1.277  0.00  0.00    -0.378 N 
ATOM      6  H   UNL     1      -3.990  -0.304  -0.459  0.00  0.00    +0.422 HD
ATOM      7  C   UNL     1      -4.224  -0.196  -2.479  0.00  0.00    +0.267 C 
ATOM      8  C   UNL     1      -5.716  -0.474  -2.293  0.00  0.00    +0.124 C 
ATOM      9  C   UNL     1      -5.923  -1.905  -1.864  0.00  0.00    -0.083 A 
ATOM     10  C   UNL     1      -7.192  -2.452  -1.973  0.00  0.00    -0.020 A 
ATOM     11  C   UNL     1      -7.424  -3.761  -1.588  0.00  0.00    +0.132 A 
ATOM     14  C   UNL     1      -6.376  -4.529  -1.088  0.00  0.00    +0.118 A 
ATOM     17  C   UNL     1      -5.112  -3.978  -0.982  0.00  0.00    -0.010 A 
ATOM     18  C   UNL     1      -4.883  -2.666  -1.372  0.00  0.00    -0.125 A 
ATOM     19  C   UNL     1      -3.490  -2.111  -1.250  0.00  0.00    +0.230 C 
ATOM     20  C   UNL     1      -2.849  -2.591   0.054  0.00  0.00    +0.063 C 
ATOM     21  C   UNL     1      -1.414  -2.060   0.130  0.00  0.00    -0.003 C 
ENDROOT
BRANCH   3   2
ATOM      1  C   UNL     1      -0.019   1.526   0.010  0.00  0.00    +0.017 C 
ATOM      2  C   UNL     1       0.002  -0.004   0.002  0.00  0.00    +0.046 C 
ENDBRANCH   3   2
BRANCH  11  12
ATOM     12  O   UNL     1      -8.671  -4.294  -1.697  0.00  0.00    -0.296 OA
ATOM     13  C   UNL     1      -9.696  -3.446  -2.218  0.00  0.00    +0.253 C 
ENDBRANCH  11  12
BRANCH  14  15
ATOM     15  O   UNL     1      -6.595  -5.815  -0.705  0.00  0.00    -0.295 OA
ATOM     16  C   UNL     1      -5.472  -6.542  -0.202  0.00  0.00    +0.248 C 
ENDBRANCH  14  15
BRANCH  21  22
ATOM     22  C   UNL     1      -0.790  -2.462   1.468  0.00  0.00    +0.060 C 
BRANCH  22  23
ATOM     23  C   UNL     1      -0.656  -3.985   1.531  0.00  0.00    +0.183 C 
ATOM     24  C   UNL     1      -0.168  -4.385   2.899  0.00  0.00    -0.084 A 
ATOM     25  C   UNL     1      -0.710  -3.744   4.005  0.00  0.00    -0.038 A 
ATOM     26  C   UNL     1      -0.296  -4.080   5.281  0.00  0.00    +0.099 A 
ATOM     29  C   UNL     1       0.669  -5.067   5.456  0.00  0.00    +0.112 A 
ATOM     32  C   UNL     1       1.208  -5.702   4.351  0.00  0.00    -0.038 A 
ATOM     33  C   UNL     1       0.791  -5.359   3.073  0.00  0.00    -0.058 A 
ATOM     34  C   UNL     1       1.417  -6.071   1.901  0.00  0.00    +0.089 C 
ATOM     35  C   UNL     1       0.561  -5.869   0.650  0.00  0.00    +0.178 C 
ATOM     36  N   UNL     1       0.286  -4.431   0.500  0.00  0.00    -0.676 NA
ATOM     37  H   UNL     1      -0.064  -4.225  -0.423  0.00  0.00    +0.340 HD
BRANCH  26  27
ATOM     27  O   UNL     1      -0.831  -3.449   6.360  0.00  0.00    -0.303 OA
ATOM     28  C   UNL     1      -1.816  -2.446   6.103  0.00  0.00    +0.235 C 
ENDBRANCH  26  27
BRANCH  29  30
ATOM     30  O   UNL     1       1.080  -5.407   6.707  0.00  0.00    -0.304 OA
ATOM     31  C   UNL     1       2.074  -6.429   6.808  0.00  0.00    +0.243 C 
ENDBRANCH  29  30
ENDBRANCH  22  23
ENDBRANCH  21  22
TORSDOF 7
