REMARK  Name = ZINC95486210
REMARK  14 active torsions:
REMARK  status: ('A' for Active; 'I' for Inactive)
REMARK    1  A    between atoms: C1_1  and  N1_2
REMARK    2  A    between atoms: C6_8  and  O6_48
REMARK    3  A    between atoms: C7_9  and  O5_46
REMARK    4  A    between atoms: C15_18  and  O4_44
REMARK    5  A    between atoms: C16_19  and  O3_42
REMARK    6  A    between atoms: C17_20  and  O1_21
REMARK    7  A    between atoms: O1_21  and  C18_22
REMARK    8  A    between atoms: C24_28  and  C27_33
REMARK    9  A    between atoms: C27_33  and  C28_34
REMARK   10  A    between atoms: C31_37  and  O2_40
REMARK   11  A    between atoms: O2_40  and  C34_41
REMARK   12  A    between atoms: O3_42  and  C35_43
REMARK   13  A    between atoms: O4_44  and  C36_45
REMARK   14  A    between atoms: O5_46  and  C37_47
REMARK                            x       y       z     vdW  Elec       q    Type
REMARK                         _______ _______ _______ _____ _____    ______ ____
ROOT
ATOM      1  C   UNL     1      -0.018   1.465   0.010  0.00  0.00    +0.332 C 
ATOM      2  N   UNL     1       0.002  -0.004   0.002  0.00  0.00    -0.372 N 
ATOM      3  H   UNL     1      -0.945  -0.353   0.011  0.00  0.00    +0.434 HD
ATOM      4  C   UNL     1       0.683  -0.475  -1.205  0.00  0.00    +0.239 C 
ATOM      5  C   UNL     1       0.469  -1.982  -1.349  0.00  0.00    +0.142 C 
ATOM      6  C   UNL     1       0.840  -2.673  -0.061  0.00  0.00    -0.105 A 
ATOM      7  C   UNL     1       1.073  -4.039  -0.083  0.00  0.00    +0.052 A 
ATOM      8  C   UNL     1       1.413  -4.709   1.079  0.00  0.00    +0.108 A 
ATOM     11  C   UNL     1       1.520  -4.003   2.273  0.00  0.00    +0.124 A 
ATOM     14  C   UNL     1       1.288  -2.640   2.289  0.00  0.00    -0.030 A 
ATOM     15  C   UNL     1       0.948  -1.971   1.121  0.00  0.00    -0.088 A 
ATOM     16  C   UNL     1       2.157  -0.183  -1.156  0.00  0.00    -0.067 A 
ATOM     17  C   UNL     1       2.883  -0.243  -2.337  0.00  0.00    -0.030 A 
ATOM     18  C   UNL     1       4.243   0.017  -2.341  0.00  0.00    +0.140 A 
ATOM     21  C   UNL     1       4.889   0.341  -1.154  0.00  0.00    +0.086 A 
ATOM     24  C   UNL     1       4.157   0.445   0.008  0.00  0.00    +0.122 A 
ATOM     46  C   UNL     1       2.794   0.170   0.011  0.00  0.00    -0.118 A 
ATOM     47  C   UNL     1       2.043   0.249   1.315  0.00  0.00    +0.144 C 
ATOM     48  C   UNL     1       0.710  -0.488   1.188  0.00  0.00    +0.236 C 
ENDROOT
BRANCH   8   9
ATOM      9  O   UNL     1       1.641  -6.050   1.054  0.00  0.00    -0.480 OA
ATOM     10  H   UNL     1       2.562  -6.289   0.882  0.00  0.00    +0.398 HD
ENDBRANCH   8   9
BRANCH  11  12
ATOM     12  O   UNL     1       1.852  -4.652   3.422  0.00  0.00    -0.296 OA
ATOM     13  C   UNL     1       1.944  -3.863   4.610  0.00  0.00    +0.251 C 
ENDBRANCH  11  12
BRANCH  18  19
ATOM     19  O   UNL     1       4.945  -0.046  -3.504  0.00  0.00    -0.292 OA
ATOM     20  C   UNL     1       4.216  -0.385  -4.685  0.00  0.00    +0.256 C 
ENDBRANCH  18  19
BRANCH  21  22
ATOM     22  O   UNL     1       6.225   0.596  -1.149  0.00  0.00    -0.314 OA
ATOM     23  C   UNL     1       6.628   1.951  -1.356  0.00  0.00    +0.245 C 
ENDBRANCH  21  22
BRANCH  24  25
ATOM     25  O   UNL     1       4.784   0.775   1.169  0.00  0.00    -0.249 OA
BRANCH  25  26
ATOM     26  C   UNL     1       5.312  -0.229   1.916  0.00  0.00    +0.116 A 
ATOM     27  C   UNL     1       5.210  -1.545   1.488  0.00  0.00    -0.061 A 
ATOM     28  C   UNL     1       5.751  -2.558   2.251  0.00  0.00    +0.044 A 
ATOM     29  C   UNL     1       6.396  -2.270   3.445  0.00  0.00    -0.097 A 
ATOM     30  C   UNL     1       6.496  -0.964   3.876  0.00  0.00    -0.072 A 
ATOM     31  C   UNL     1       7.176  -0.604   5.171  0.00  0.00    +0.231 C 
ATOM     41  N   UNL     1       8.024  -1.708   5.630  0.00  0.00    -0.665 NA
ATOM     42  H   UNL     1       8.838  -1.807   5.043  0.00  0.00    +0.344 HD
ATOM     43  C   UNL     1       7.252  -2.960   5.676  0.00  0.00    +0.218 C 
ATOM     44  C   UNL     1       6.975  -3.411   4.241  0.00  0.00    +0.040 C 
ATOM     45  C   UNL     1       5.960   0.058   3.107  0.00  0.00    +0.004 A 
BRANCH  31  32
ATOM     32  C   UNL     1       8.040   0.641   4.959  0.00  0.00    +0.085 C 
BRANCH  32  33
ATOM     33  C   UNL     1       8.624   1.077   6.278  0.00  0.00    -0.113 A 
ATOM     34  C   UNL     1       7.934   1.969   7.078  0.00  0.00    +0.045 A 
ATOM     35  C   UNL     1       8.468   2.370   8.287  0.00  0.00    -0.024 A 
ATOM     36  C   UNL     1       9.698   1.878   8.698  0.00  0.00    +0.127 A 
ATOM     39  C   UNL     1      10.389   0.984   7.894  0.00  0.00    -0.080 A 
ATOM     40  C   UNL     1       9.848   0.581   6.688  0.00  0.00    +0.068 A 
BRANCH  36  37
ATOM     37  O   UNL     1      10.226   2.272   9.887  0.00  0.00    -0.319 OA
ATOM     38  C   UNL     1      11.496   1.725  10.246  0.00  0.00    +0.240 C 
ENDBRANCH  36  37
ENDBRANCH  32  33
ENDBRANCH  31  32
ENDBRANCH  25  26
ENDBRANCH  24  25
TORSDOF 9
