REMARK  Name = ZINC95486318
REMARK  8 active torsions:
REMARK  status: ('A' for Active; 'I' for Inactive)
REMARK    1  A    between atoms: C1_1  and  C2_2
REMARK    2  A    between atoms: C7_8  and  C12_16
REMARK    3  A    between atoms: C8_9  and  O1_15
REMARK    4  A    between atoms: C10_11  and  C11_14
REMARK    5  A    between atoms: C17_22  and  O2_31
REMARK    6  A    between atoms: C19_24  and  C23_30
REMARK    7  A    between atoms: C21_27  and  C22_29
REMARK    8  A    between atoms: O2_31  and  C24_32
REMARK                            x       y       z     vdW  Elec       q    Type
REMARK                         _______ _______ _______ _____ _____    ______ ____
ROOT
ATOM      1  C   UNL     1      -0.037   1.488  -0.217  0.00  0.00    +0.035 C 
ATOM      2  C   UNL     1      -0.064  -0.042  -0.246  0.00  0.00    +0.124 C 
ATOM      3  C   UNL     1      -1.471  -0.537   0.088  0.00  0.00    +0.090 C 
ATOM      4  C   UNL     1      -1.454  -2.030   0.300  0.00  0.00    -0.053 A 
ATOM      5  C   UNL     1      -2.658  -2.717   0.257  0.00  0.00    -0.010 A 
ATOM      6  C   UNL     1      -2.692  -4.083   0.449  0.00  0.00    +0.044 A 
ATOM      7  C   UNL     1      -1.519  -4.774   0.687  0.00  0.00    -0.098 A 
ATOM     22  C   UNL     1      -0.314  -4.091   0.729  0.00  0.00    +0.113 A 
ATOM     25  C   UNL     1      -0.281  -2.714   0.532  0.00  0.00    -0.096 A 
ATOM     26  C   UNL     1       1.052  -2.015   0.575  0.00  0.00    +0.228 C 
ATOM     27  C   UNL     1       1.795  -2.263  -0.739  0.00  0.00    -0.003 C 
ATOM     28  N   UNL     1       0.873  -0.572   0.758  0.00  0.00    -0.675 NA
ATOM     29  H   UNL     1       1.757  -0.087   0.719  0.00  0.00    +0.346 HD
ENDROOT
BRANCH   7   8
ATOM      8  C   UNL     1      -1.550  -6.270   0.901  0.00  0.00    +0.099 C 
ATOM      9  C   UNL     1      -2.538  -6.601   1.984  0.00  0.00    -0.026 A 
ATOM     10  C   UNL     1      -2.529  -5.815   3.131  0.00  0.00    -0.025 A 
ATOM     11  C   UNL     1      -3.420  -6.049   4.159  0.00  0.00    +0.039 A 
ATOM     12  C   UNL     1      -4.317  -7.092   4.062  0.00  0.00    -0.086 A 
ATOM     13  C   UNL     1      -4.311  -7.899   2.936  0.00  0.00    +0.126 A 
ATOM     16  C   UNL     1      -3.421  -7.653   1.890  0.00  0.00    -0.092 A 
ATOM     17  C   UNL     1      -3.458  -8.581   0.710  0.00  0.00    +0.036 C 
ATOM     18  C   UNL     1      -4.793  -8.464  -0.026  0.00  0.00    +0.029 C 
ATOM     19  C   UNL     1      -2.297  -8.385  -0.245  0.00  0.00    +0.025 C 
ATOM     20  C   UNL     1      -1.890  -6.934  -0.425  0.00  0.00    -0.010 C 
ATOM     21  C   UNL     1      -2.940  -6.118  -1.175  0.00  0.00    +0.025 C 
BRANCH  13  14
ATOM     14  O   UNL     1      -5.174  -8.947   2.876  0.00  0.00    -0.314 OA
ATOM     15  C   UNL     1      -6.038  -9.142   3.997  0.00  0.00    +0.235 C 
ENDBRANCH  13  14
ENDBRANCH   7   8
BRANCH  22  23
ATOM     23  O   UNL     1       0.840  -4.769   0.963  0.00  0.00    -0.491 OA
ATOM     24  H   UNL     1       1.276  -5.092   0.163  0.00  0.00    +0.385 HD
ENDBRANCH  22  23
TORSDOF 3
