REMARK  Name = ZINC95486352
REMARK  6 active torsions:
REMARK  status: ('A' for Active; 'I' for Inactive)
REMARK    1  A    between atoms: C3_3  and  O6_22
REMARK    2  A    between atoms: C4_4  and  O5_21
REMARK    3  A    between atoms: C6_6  and  C7_7
REMARK    4  A    between atoms: C8_8  and  O4_20
REMARK    5  A    between atoms: C13_14  and  O3_18
REMARK    6  A    between atoms: C15_16  and  O2_17
REMARK                            x       y       z     vdW  Elec       q    Type
REMARK                         _______ _______ _______ _____ _____    ______ ____
ROOT
ATOM     11  C   UNL     1      -1.259  -0.758   0.011  0.00  0.00    -0.088 C 
ATOM     12  C   UNL     1      -1.554  -1.514  -1.065  0.00  0.00    +0.043 C 
ATOM     15  C   UNL     1      -2.818  -2.264  -1.105  0.00  0.00    +0.413 C 
ATOM     16  C   UNL     1      -3.876  -1.880  -0.150  0.00  0.00    -0.204 A 
ATOM     17  C   UNL     1      -3.550  -1.090   0.956  0.00  0.00    +0.003 A 
ATOM     18  C   UNL     1      -4.537  -0.724   1.832  0.00  0.00    -0.024 A 
ATOM     19  C   UNL     1      -5.850  -1.137   1.634  0.00  0.00    +0.169 A 
ATOM     22  C   UNL     1      -6.181  -1.929   0.544  0.00  0.00    -0.045 A 
ATOM     23  C   UNL     1      -5.196  -2.306  -0.353  0.00  0.00    +0.195 A 
ATOM     26  O   UNL     1      -2.986  -3.172  -1.899  0.00  0.00    -0.433 OA
ATOM     27  C   UNL     1      -2.137  -0.648   1.214  0.00  0.00    +0.187 C 
ENDROOT
BRANCH  11  10
ATOM      1  C   UNL     1      -0.017   1.395   0.010  0.00  0.00    +0.036 A 
ATOM      2  C   UNL     1       1.168   2.100   0.002  0.00  0.00    +0.006 A 
ATOM      3  C   UNL     1       2.381   1.425  -0.013  0.00  0.00    +0.084 A 
ATOM      6  C   UNL     1       2.408   0.031  -0.021  0.00  0.00    +0.082 A 
ATOM      9  C   UNL     1       1.226  -0.683  -0.014  0.00  0.00    +0.032 A 
ATOM     10  C   UNL     1       0.002  -0.004   0.002  0.00  0.00    -0.035 A 
BRANCH   3   4
ATOM      4  O   UNL     1       3.545   2.126  -0.020  0.00  0.00    -0.488 OA
ATOM      5  H   UNL     1       3.890   2.324   0.861  0.00  0.00    +0.388 HD
ENDBRANCH   3   4
BRANCH   6   7
ATOM      7  O   UNL     1       3.599  -0.625  -0.037  0.00  0.00    -0.486 OA
ATOM      8  H   UNL     1       3.952  -0.820   0.842  0.00  0.00    +0.387 HD
ENDBRANCH   6   7
ENDBRANCH  11  10
BRANCH  12  13
ATOM     13  O   UNL     1      -0.688  -1.581  -2.110  0.00  0.00    -0.454 OA
ATOM     14  H   UNL     1      -0.988  -2.148  -2.834  0.00  0.00    +0.404 HD
ENDBRANCH  12  13
BRANCH  19  20
ATOM     20  O   UNL     1      -6.814  -0.763   2.513  0.00  0.00    -0.494 OA
ATOM     21  H   UNL     1      -7.249   0.071   2.288  0.00  0.00    +0.402 HD
ENDBRANCH  19  20
BRANCH  23  24
ATOM     24  O   UNL     1      -5.506  -3.082  -1.422  0.00  0.00    -0.482 OA
ATOM     25  H   UNL     1      -5.437  -4.031  -1.252  0.00  0.00    +0.404 HD
ENDBRANCH  23  24
TORSDOF 6
