REMARK  Name = ZINC95486194
REMARK  12 active torsions:
REMARK  status: ('A' for Active; 'I' for Inactive)
REMARK    1  A    between atoms: C1_1  and  C2_2
REMARK    2  A    between atoms: C5_5  and  C19_24
REMARK    3  A    between atoms: C6_6  and  O5_23
REMARK    4  A    between atoms: C7_7  and  C8_8
REMARK    5  A    between atoms: C8_8  and  O2_10
REMARK    6  A    between atoms: O2_10  and  C9_11
REMARK    7  A    between atoms: C11_13  and  C18_22
REMARK    8  A    between atoms: C12_14  and  C16_19
REMARK    9  A    between atoms: C13_15  and  O3_18
REMARK   10  A    between atoms: C14_16  and  C15_17
REMARK   11  A    between atoms: C16_19  and  C17_21
REMARK   12  A    between atoms: C19_24  and  C20_26
REMARK                            x       y       z     vdW  Elec       q    Type
REMARK                         _______ _______ _______ _____ _____    ______ ____
ROOT
ATOM     14  C   UNL     1       1.463  -0.761   2.879  0.00  0.00    +0.552 C 
ATOM     29  O   UNL     1       1.833  -1.310   3.898  0.00  0.00    -0.493 OA
ENDROOT
BRANCH  14  13
ATOM      1  C   UNL     1      -1.090  -1.978   2.306  0.00  0.00    +0.077 C 
ATOM      2  C   UNL     1       0.064  -2.137   1.350  0.00  0.00    +0.019 A 
ATOM      3  C   UNL     1      -0.102  -2.863   0.193  0.00  0.00    -0.140 A 
ATOM      4  C   UNL     1       0.953  -3.018  -0.698  0.00  0.00    +0.329 A 
ATOM      5  O   UNL     1       0.778  -3.735  -1.834  0.00  0.00    -0.689 OA
ATOM      6  C   UNL     1       2.201  -2.433  -0.421  0.00  0.00    -0.338 A 
ATOM     10  C   UNL     1       2.373  -1.691   0.758  0.00  0.00    +0.225 A 
ATOM     13  C   UNL     1       1.296  -1.540   1.642  0.00  0.00    -0.285 A 
BRANCH   6   7
ATOM      7  C   UNL     1       3.315  -2.596  -1.358  0.00  0.00    +0.453 C 
ATOM      8  C   UNL     1       4.304  -3.716  -1.165  0.00  0.00    +0.053 C 
ATOM      9  O   UNL     1       3.441  -1.829  -2.290  0.00  0.00    -0.481 OA
ENDBRANCH   6   7
BRANCH  10  11
ATOM     11  O   UNL     1       3.569  -1.122   1.037  0.00  0.00    -0.503 OA
ATOM     12  H   UNL     1       3.666  -0.224   0.693  0.00  0.00    +0.386 HD
ENDBRANCH  10  11
ENDBRANCH  14  13
BRANCH  14  15
ATOM     15  O   UNL     1       1.205   0.563   2.882  0.00  0.00    -0.297 OA
BRANCH  15  16
ATOM     16  C   UNL     1       1.268   1.222   4.067  0.00  0.00    +0.129 A 
ATOM     17  C   UNL     1       0.112   1.400   4.823  0.00  0.00    +0.011 A 
ATOM     18  C   UNL     1       0.162   2.060   6.016  0.00  0.00    -0.032 A 
ATOM     19  C   UNL     1      -1.095   2.247   6.826  0.00  0.00    +0.106 C 
ATOM     20  C   UNL     1       1.381   2.565   6.488  0.00  0.00    -0.185 A 
ATOM     24  C   UNL     1       2.550   2.387   5.727  0.00  0.00    +0.151 A 
ATOM     27  C   UNL     1       2.484   1.710   4.521  0.00  0.00    -0.115 A 
ATOM     28  C   UNL     1       3.732   1.508   3.700  0.00  0.00    +0.114 C 
BRANCH  20  21
ATOM     21  C   UNL     1       1.438   3.275   7.769  0.00  0.00    +0.415 C 
ATOM     22  C   UNL     1       1.734   2.518   9.038  0.00  0.00    +0.076 C 
ATOM     23  O   UNL     1       1.246   4.473   7.807  0.00  0.00    -0.443 OA
ENDBRANCH  20  21
BRANCH  24  25
ATOM     25  O   UNL     1       3.736   2.871   6.173  0.00  0.00    -0.485 OA
ATOM     26  H   UNL     1       4.234   2.248   6.719  0.00  0.00    +0.392 HD
ENDBRANCH  24  25
ENDBRANCH  15  16
ENDBRANCH  14  15
TORSDOF 7
