REMARK  Name = ZINC95485967
REMARK  12 active torsions:
REMARK  status: ('A' for Active; 'I' for Inactive)
REMARK    1  A    between atoms: C1_1  and  C2_2
REMARK    2  A    between atoms: C4_4  and  O4_32
REMARK    3  A    between atoms: C7_7  and  C8_8
REMARK    4  A    between atoms: C8_8  and  C9_9
REMARK    5  A    between atoms: C9_9  and  C10_10
REMARK    6  A    between atoms: C11_11  and  C12_12
REMARK    7  A    between atoms: C11_11  and  C13_13
REMARK    8  A    between atoms: C21_23  and  C22_25
REMARK    9  A    between atoms: C22_25  and  C23_26
REMARK   10  A    between atoms: C23_26  and  C24_27
REMARK   11  A    between atoms: C25_28  and  C26_29
REMARK   12  A    between atoms: C25_28  and  C27_30
REMARK                            x       y       z     vdW  Elec       q    Type
REMARK                         _______ _______ _______ _____ _____    ______ ____
ROOT
ATOM      1  C   UNL     1       4.994   0.471   2.935  0.00  0.00    +0.076 C 
ATOM      2  C   UNL     1       4.538  -0.938   2.656  0.00  0.00    -0.048 A 
ATOM      3  C   UNL     1       5.011  -1.599   1.528  0.00  0.00    -0.101 A 
ATOM      4  C   UNL     1       4.610  -2.888   1.248  0.00  0.00    +0.180 A 
ATOM      7  C   UNL     1       3.709  -3.536   2.116  0.00  0.00    -0.179 A 
ATOM      8  C   UNL     1       3.235  -2.855   3.265  0.00  0.00    +0.055 A 
ATOM      9  C   UNL     1       2.342  -3.502   4.140  0.00  0.00    -0.160 A 
ATOM     10  C   UNL     1       1.927  -4.774   3.896  0.00  0.00    +0.051 A 
ATOM     11  C   UNL     1       0.994  -5.416   4.892  0.00  0.00    +0.004 C 
ATOM     18  C   UNL     1       0.336  -6.630   4.287  0.00  0.00    +0.386 C 
ATOM     19  O   UNL     1      -0.852  -6.817   4.397  0.00  0.00    -0.461 OA
ATOM     20  C   UNL     1       1.216  -7.609   3.533  0.00  0.00    +0.004 C 
ATOM     21  C   UNL     1       1.909  -6.818   2.444  0.00  0.00    +0.405 C 
ATOM     22  O   UNL     1       2.076  -7.296   1.342  0.00  0.00    -0.455 OA
ATOM     23  C   UNL     1       2.373  -5.459   2.750  0.00  0.00    -0.381 A 
ATOM     24  C   UNL     1       3.269  -4.847   1.863  0.00  0.00    +0.343 A 
ATOM     25  O   UNL     1       3.708  -5.514   0.770  0.00  0.00    -0.615 OA
ATOM     26  C   UNL     1       3.672  -1.545   3.515  0.00  0.00    -0.133 A 
ENDROOT
BRANCH   4   5
ATOM      5  O   UNL     1       5.077  -3.526   0.145  0.00  0.00    -0.477 OA
ATOM      6  H   UNL     1       5.892  -4.025   0.295  0.00  0.00    +0.384 HD
ENDBRANCH   4   5
BRANCH  11  12
ATOM     12  C   UNL     1       1.787  -5.835   6.131  0.00  0.00    +0.061 C 
BRANCH  12  13
ATOM     13  C   UNL     1       0.827  -6.372   7.194  0.00  0.00    +0.042 C 
BRANCH  13  14
ATOM     14  C   UNL     1       1.609  -6.785   8.415  0.00  0.00    -0.046 C 
ATOM     15  C   UNL     1       1.276  -6.321   9.594  0.00  0.00    -0.142 C 
ATOM     16  C   UNL     1       2.166  -6.577  10.783  0.00  0.00    +0.069 C 
ATOM     17  C   UNL     1       0.004  -5.530   9.761  0.00  0.00    +0.070 C 
ENDBRANCH  13  14
ENDBRANCH  12  13
ENDBRANCH  11  12
BRANCH  26  27
ATOM     27  C   UNL     1       3.178  -0.807   4.733  0.00  0.00    +0.073 C 
BRANCH  27  28
ATOM     28  C   UNL     1       1.897  -0.047   4.384  0.00  0.00    +0.052 C 
BRANCH  28  29
ATOM     29  C   UNL     1       1.403   0.692   5.601  0.00  0.00    -0.055 C 
ATOM     30  C   UNL     1       0.170   0.525   6.013  0.00  0.00    -0.140 C 
ATOM     31  C   UNL     1      -0.286   1.159   7.302  0.00  0.00    +0.066 C 
ATOM     32  C   UNL     1      -0.792  -0.299   5.197  0.00  0.00    +0.071 C 
ENDBRANCH  28  29
ENDBRANCH  27  28
ENDBRANCH  26  27
TORSDOF 7
