REMARK  Name = ZINC00900216
REMARK  6 active torsions:
REMARK  status: ('A' for Active; 'I' for Inactive)
REMARK    1  A    between atoms: C1_1  and  O1_2
REMARK    2  A    between atoms: O1_2  and  C2_3
REMARK    3  A    between atoms: C7_8  and  O2_9
REMARK    4  A    between atoms: O2_9  and  C8_10
REMARK    5  A    between atoms: C11_14  and  O3_15
REMARK    6  A    between atoms: O3_15  and  C12_16
REMARK                            x       y       z     vdW  Elec       q    Type
REMARK                         _______ _______ _______ _____ _____    ______ ____
ROOT
ATOM      3  C   UNL     1       0.606  -0.608  -1.057  0.00  0.00    +0.120 A 
ATOM      4  C   UNL     1       1.161   0.155  -2.042  0.00  0.00    -0.010 A 
ATOM      5  C   UNL     1       1.786  -0.469  -3.135  0.00  0.00    -0.124 A 
ATOM      6  C   UNL     1       1.835  -1.884  -3.207  0.00  0.00    +0.203 A 
ATOM      7  N   UNL     1       2.425  -2.492  -4.241  0.00  0.00    -0.475 NA
ATOM      8  C   UNL     1       2.980  -1.811  -5.227  0.00  0.00    +0.309 A 
ATOM      9  C   UNL     1       2.968  -0.399  -5.220  0.00  0.00    -0.202 A 
ATOM     10  C   UNL     1       3.663   0.008  -6.449  0.00  0.00    -0.030 A 
ATOM     11  C   UNL     1       4.020  -1.124  -7.067  0.00  0.00    +0.246 A 
ATOM     12  O   UNL     1       3.620  -2.192  -6.352  0.00  0.00    -0.192 OA
ATOM     13  C   UNL     1       1.253  -2.640  -2.174  0.00  0.00    -0.026 A 
ATOM     14  C   UNL     1       2.369   0.291  -4.170  0.00  0.00    +0.208 A 
ATOM     17  C   UNL     1       0.657  -2.008  -1.121  0.00  0.00    +0.159 A 
ENDROOT
BRANCH   3   2
ATOM      1  C   UNL     1      -0.017   1.425   0.010  0.00  0.00    +0.245 C 
ATOM      2  O   UNL     1       0.002  -0.004   0.002  0.00  0.00    -0.300 OA
ENDBRANCH   3   2
BRANCH  14  15
ATOM     15  O   UNL     1       2.345   1.646  -4.144  0.00  0.00    -0.326 OA
ATOM     16  C   UNL     1       3.442   2.301  -3.503  0.00  0.00    +0.244 C 
ENDBRANCH  14  15
BRANCH  17  18
ATOM     18  O   UNL     1       0.102  -2.745  -0.124  0.00  0.00    -0.298 OA
ATOM     19  C   UNL     1       0.185  -4.167  -0.245  0.00  0.00    +0.251 C 
ENDBRANCH  17  18
TORSDOF 3
