REMARK  Name = ZINC05998557
REMARK  6 active torsions:
REMARK  status: ('A' for Active; 'I' for Inactive)
REMARK    1  A    between atoms: C1_1  and  O1_2
REMARK    2  A    between atoms: O1_2  and  C2_3
REMARK    3  A    between atoms: C6_9  and  C11_16
REMARK    4  A    between atoms: C10_13  and  O4_14
REMARK    5  A    between atoms: C14_19  and  O7_23
REMARK    6  A    between atoms: C15_20  and  O6_22
REMARK                            x       y       z     vdW  Elec       q    Type
REMARK                         _______ _______ _______ _____ _____    ______ ____
ROOT
ATOM      3  C   UNL     1       0.612  -0.532   1.099  0.00  0.00    -0.170 A 
ATOM      4  C   UNL     1       0.755  -1.927   1.221  0.00  0.00    +0.344 A 
ATOM      5  C   UNL     1       1.374  -2.478   2.346  0.00  0.00    -0.184 A 
ATOM      6  C   UNL     1       1.851  -1.654   3.347  0.00  0.00    +0.210 A 
ATOM      7  O   UNL     1       2.452  -2.179   4.437  0.00  0.00    -0.218 OA
ATOM      8  C   UNL     1       2.923  -1.395   5.420  0.00  0.00    +0.172 A 
ATOM     19  C   UNL     1       2.814  -0.021   5.360  0.00  0.00    -0.113 A 
ATOM     20  C   UNL     1       2.202   0.578   4.257  0.00  0.00    +0.366 A 
ATOM     21  O   UNL     1       2.085   1.922   4.176  0.00  0.00    -0.572 OA
ATOM     22  C   UNL     1       1.710  -0.254   3.227  0.00  0.00    -0.330 A 
ATOM     23  O   UNL     1       0.295  -2.728   0.257  0.00  0.00    -0.649 OA
ATOM     24  C   UNL     1       1.089   0.299   2.088  0.00  0.00    +0.258 A 
ENDROOT
BRANCH   8   9
ATOM      9  C   UNL     1       3.570  -2.016   6.589  0.00  0.00    -0.042 A 
ATOM     10  C   UNL     1       4.061  -1.216   7.626  0.00  0.00    +0.067 A 
ATOM     11  C   UNL     1       4.666  -1.799   8.718  0.00  0.00    +0.011 A 
ATOM     12  C   UNL     1       4.789  -3.180   8.793  0.00  0.00    +0.094 A 
ATOM     15  C   UNL     1       4.302  -3.984   7.763  0.00  0.00    +0.079 A 
ATOM     18  C   UNL     1       3.689  -3.408   6.668  0.00  0.00    +0.053 A 
BRANCH  12  13
ATOM     13  O   UNL     1       5.387  -3.749   9.872  0.00  0.00    -0.487 OA
ATOM     14  H   UNL     1       4.778  -3.962  10.592  0.00  0.00    +0.389 HD
ENDBRANCH  12  13
BRANCH  15  16
ATOM     16  O   UNL     1       4.426  -5.336   7.840  0.00  0.00    -0.485 OA
ATOM     17  H   UNL     1       3.680  -5.776   8.270  0.00  0.00    +0.388 HD
ENDBRANCH  15  16
ENDBRANCH   8   9
BRANCH   3   2
ATOM      1  C   UNL     1      -1.385  -0.278  -0.170  0.00  0.00    +0.192 C 
ATOM      2  O   UNL     1       0.007  -0.004  -0.001  0.00  0.00    -0.319 OA
ENDBRANCH   3   2
BRANCH  24  25
ATOM     25  O   UNL     1       0.957   1.646   1.969  0.00  0.00    -0.440 OA
ATOM     26  H   UNL     1       0.447   1.925   1.196  0.00  0.00    +0.387 HD
ENDBRANCH  24  25
TORSDOF 5
