REMARK  Name = ZINC05452752
REMARK  11 active torsions:
REMARK  status: ('A' for Active; 'I' for Inactive)
REMARK    1  A    between atoms: C1_1  and  C2_2
REMARK    2  A    between atoms: C2_2  and  C3_3
REMARK    3  A    between atoms: C2_2  and  C4_4
REMARK    4  A    between atoms: C4_4  and  C5_5
REMARK    5  A    between atoms: C5_5  and  C6_7
REMARK    6  A    between atoms: C8_9  and  C21_25
REMARK    7  A    between atoms: C11_12  and  O2_13
REMARK    8  A    between atoms: C12_14  and  C15_19
REMARK    9  A    between atoms: C21_25  and  C22_26
REMARK   10  A    between atoms: C23_27  and  C24_28
REMARK   11  A    between atoms: C23_27  and  C25_29
REMARK                            x       y       z     vdW  Elec       q    Type
REMARK                         _______ _______ _______ _____ _____    ______ ____
ROOT
ATOM      5  C   UNL     1      -3.381   1.704  -3.195  0.00  0.00    -0.359 A 
ATOM      6  C   UNL     1      -2.543   2.192  -2.171  0.00  0.00    +0.373 A 
ATOM      7  O   UNL     1      -1.811   3.313  -2.377  0.00  0.00    -0.611 OA
ATOM      8  C   UNL     1      -2.461   1.532  -0.961  0.00  0.00    -0.257 A 
ATOM     14  C   UNL     1      -3.211   0.385  -0.733  0.00  0.00    +0.227 A 
ATOM     15  C   UNL     1      -4.056  -0.111  -1.744  0.00  0.00    -0.356 A 
ATOM     16  C   UNL     1      -4.841  -1.327  -1.482  0.00  0.00    +0.103 A 
ATOM     23  C   UNL     1      -4.708  -1.929  -0.243  0.00  0.00    -0.175 A 
ATOM     24  C   UNL     1      -3.842  -1.367   0.708  0.00  0.00    +0.518 A 
ATOM     25  O   UNL     1      -3.731  -1.903   1.797  0.00  0.00    -0.502 OA
ATOM     26  O   UNL     1      -3.133  -0.256   0.452  0.00  0.00    -0.275 OA
ATOM     27  C   UNL     1      -4.143   0.546  -2.976  0.00  0.00    +0.308 A 
ENDROOT
BRANCH  16  17
ATOM     17  C   UNL     1      -5.744  -1.889  -2.510  0.00  0.00    -0.071 A 
ATOM     18  C   UNL     1      -7.103  -2.050  -2.237  0.00  0.00    +0.046 A 
ATOM     19  C   UNL     1      -7.940  -2.570  -3.203  0.00  0.00    +0.024 A 
ATOM     20  C   UNL     1      -7.434  -2.942  -4.435  0.00  0.00    +0.024 A 
ATOM     21  C   UNL     1      -6.086  -2.789  -4.710  0.00  0.00    +0.028 A 
ATOM     22  C   UNL     1      -5.239  -2.265  -3.756  0.00  0.00    +0.036 A 
ENDBRANCH  16  17
BRANCH   5   4
ATOM      4  C   UNL     1      -3.459   2.404  -4.477  0.00  0.00    +0.403 C 
ATOM     30  O   UNL     1      -2.798   3.405  -4.663  0.00  0.00    -0.454 OA
BRANCH   4   3
ATOM      3  C   UNL     1      -4.361   1.883  -5.566  0.00  0.00    +0.034 C 
BRANCH   3   2
ATOM      1  C   UNL     1      -5.074   2.196  -7.940  0.00  0.00    +0.007 C 
ATOM      2  C   UNL     1      -4.257   2.792  -6.792  0.00  0.00    -0.020 C 
ATOM     31  C   UNL     1      -4.801   4.179  -6.446  0.00  0.00    +0.011 C 
ENDBRANCH   3   2
ENDBRANCH   4   3
ENDBRANCH   5   4
BRANCH  27  28
ATOM     28  O   UNL     1      -4.955   0.070  -3.949  0.00  0.00    -0.529 OA
ATOM     29  H   UNL     1      -5.551  -0.838  -3.772  0.00  0.00    +0.402 HD
ENDBRANCH  27  28
BRANCH   8   9
ATOM      9  C   UNL     1      -1.557   2.062   0.122  0.00  0.00    +0.125 C 
BRANCH   9  10
ATOM     10  C   UNL     1      -0.190   1.442  -0.017  0.00  0.00    -0.039 C 
ATOM     11  C   UNL     1       0.871   2.207  -0.099  0.00  0.00    -0.150 C 
ATOM     12  C   UNL     1       0.717   3.705  -0.160  0.00  0.00    +0.073 C 
ATOM     13  C   UNL     1       2.245   1.589  -0.132  0.00  0.00    +0.059 C 
ENDBRANCH   9  10
ENDBRANCH   8   9
TORSDOF 7
