REMARK  Name = ZINC85849252
REMARK  9 active torsions:
REMARK  status: ('A' for Active; 'I' for Inactive)
REMARK    1  A    between atoms: C1_1  and  N1_2
REMARK    2  A    between atoms: C6_7  and  O6_46
REMARK    3  A    between atoms: C7_8  and  O5_45
REMARK    4  A    between atoms: C22_25  and  O3_29
REMARK    5  A    between atoms: C23_26  and  O2_27
REMARK    6  A    between atoms: O2_27  and  C24_28
REMARK    7  A    between atoms: O3_29  and  C25_30
REMARK    8  A    between atoms: N2_33  and  C36_44
REMARK    9  A    between atoms: O6_46  and  C37_47
REMARK                            x       y       z     vdW  Elec       q    Type
REMARK                         _______ _______ _______ _____ _____    ______ ____
ROOT
ATOM      1  C   UNL     1      -0.018   1.465   0.010  0.00  0.00    +0.318 C 
ATOM      2  N   UNL     1       0.002  -0.004   0.002  0.00  0.00    -0.380 N 
ATOM      3  H   UNL     1      -0.943  -0.358  -0.003  0.00  0.00    +0.431 HD
ATOM      4  C   UNL     1       0.721  -0.485  -1.187  0.00  0.00    +0.268 C 
ATOM      5  C   UNL     1       2.045   0.267  -1.310  0.00  0.00    +0.125 C 
ATOM      6  C   UNL     1       2.774   0.322   0.006  0.00  0.00    -0.027 A 
ATOM      7  C   UNL     1       4.107   0.702   0.029  0.00  0.00    -0.066 A 
ATOM      8  C   UNL     1       4.794   0.766   1.231  0.00  0.00    +0.160 A 
ATOM     11  C   UNL     1       4.145   0.465   2.425  0.00  0.00    +0.032 A 
ATOM     14  C   UNL     1       2.810   0.090   2.403  0.00  0.00    +0.171 A 
ATOM     15  O   UNL     1       2.109  -0.144   3.524  0.00  0.00    -0.252 OA
ATOM     16  C   UNL     1       2.493  -0.872   4.585  0.00  0.00    +0.103 A 
ATOM     17  C   UNL     1       2.572  -2.256   4.526  0.00  0.00    +0.005 A 
ATOM     18  C   UNL     1       2.748  -2.988   5.686  0.00  0.00    +0.024 A 
ATOM     19  C   UNL     1       2.852  -2.341   6.902  0.00  0.00    -0.068 A 
ATOM     20  C   UNL     1       2.864  -0.958   6.953  0.00  0.00    +0.023 A 
ATOM     21  C   UNL     1       2.979  -3.123   8.182  0.00  0.00    +0.096 C 
ATOM     22  C   UNL     1       2.230  -4.457   8.060  0.00  0.00    +0.244 C 
ATOM     23  N   UNL     1       2.917  -5.449   8.863  0.00  0.00    -0.569 NA
ATOM     24  C   UNL     1       3.251  -6.635   8.062  0.00  0.00    +0.204 C 
ATOM     25  C   UNL     1       2.355  -5.828  10.140  0.00  0.00    +0.200 C 
ATOM     26  C   UNL     1       1.542  -4.710  10.791  0.00  0.00    +0.096 C 
ATOM     27  C   UNL     1       0.455  -4.307   9.820  0.00  0.00    -0.024 A 
ATOM     28  C   UNL     1      -0.834  -4.049  10.220  0.00  0.00    -0.048 A 
ATOM     29  C   UNL     1      -1.810  -3.781   9.269  0.00  0.00    +0.135 A 
ATOM     32  C   UNL     1      -1.484  -3.800   7.917  0.00  0.00    +0.029 A 
ATOM     35  C   UNL     1      -0.174  -4.076   7.528  0.00  0.00    +0.133 A 
ATOM     36  O   UNL     1       0.149  -4.157   6.223  0.00  0.00    -0.257 OA
ATOM     37  C   UNL     1       0.083  -3.123   5.364  0.00  0.00    +0.162 A 
ATOM     38  C   UNL     1       0.306  -3.402   4.018  0.00  0.00    -0.007 A 
ATOM     39  C   UNL     1       0.273  -2.388   3.090  0.00  0.00    +0.008 A 
ATOM     40  C   UNL     1       0.019  -1.087   3.491  0.00  0.00    -0.093 A 
ATOM     41  C   UNL     1      -0.216  -0.805   4.823  0.00  0.00    +0.066 A 
ATOM     42  C   UNL     1       0.006   0.003   2.450  0.00  0.00    +0.122 C 
ATOM     43  C   UNL     1      -0.183  -1.824   5.760  0.00  0.00    -0.031 A 
ATOM     44  C   UNL     1       0.808  -4.274   8.486  0.00  0.00    -0.134 A 
ATOM     45  C   UNL     1       2.692  -0.224   5.801  0.00  0.00    +0.012 A 
ATOM     46  C   UNL     1       2.136  -0.007   1.182  0.00  0.00    -0.181 A 
ATOM     47  C   UNL     1       0.710  -0.497   1.188  0.00  0.00    +0.229 C 
ENDROOT
BRANCH   8   9
ATOM      9  O   UNL     1       6.106   1.123   1.244  0.00  0.00    -0.295 OA
ATOM     10  C   UNL     1       6.710   1.419  -0.017  0.00  0.00    +0.256 C 
ENDBRANCH   8   9
BRANCH  11  12
ATOM     12  O   UNL     1       4.817   0.537   3.606  0.00  0.00    -0.466 OA
ATOM     13  H   UNL     1       4.773   1.404   4.031  0.00  0.00    +0.391 HD
ENDBRANCH  11  12
BRANCH  29  30
ATOM     30  O   UNL     1      -3.083  -3.502   9.659  0.00  0.00    -0.301 OA
ATOM     31  C   UNL     1      -3.345  -3.501  11.063  0.00  0.00    +0.248 C 
ENDBRANCH  29  30
BRANCH  32  33
ATOM     33  O   UNL     1      -2.438  -3.549   6.979  0.00  0.00    -0.315 OA
ATOM     34  C   UNL     1      -3.170  -4.671   6.481  0.00  0.00    +0.224 C 
ENDBRANCH  32  33
TORSDOF 4
