REMARK  Name = ZINC95486023
REMARK  10 active torsions:
REMARK  status: ('A' for Active; 'I' for Inactive)
REMARK    1  A    between atoms: C1_1  and  C2_2
REMARK    2  A    between atoms: C6_6  and  C24_30
REMARK    3  A    between atoms: C7_7  and  C13_15
REMARK    4  A    between atoms: C8_8  and  O2_14
REMARK    5  A    between atoms: C10_10  and  O1_12
REMARK    6  A    between atoms: O1_12  and  C12_13
REMARK    7  A    between atoms: C14_16  and  O4_29
REMARK    8  A    between atoms: C18_20  and  O3_21
REMARK    9  A    between atoms: O3_21  and  C19_22
REMARK   10  A    between atoms: C21_25  and  C23_28
REMARK                            x       y       z     vdW  Elec       q    Type
REMARK                         _______ _______ _______ _____ _____    ______ ____
ROOT
ATOM      1  C   UNL     1      -0.018   1.503   0.010  0.00  0.00    +0.093 C 
ATOM      2  C   UNL     1       0.002  -0.004   0.002  0.00  0.00    -0.031 A 
ATOM      3  C   UNL     1       0.005  -0.667  -1.187  0.00  0.00    -0.028 A 
ATOM      4  C   UNL     1       0.024  -2.072  -1.207  0.00  0.00    +0.011 A 
ATOM      5  C   UNL     1       0.029  -2.779  -2.424  0.00  0.00    +0.004 A 
ATOM      6  C   UNL     1       0.047  -4.137  -2.423  0.00  0.00    -0.033 A 
ATOM      7  C   UNL     1       0.051  -4.881  -3.734  0.00  0.00    +0.095 C 
ATOM      8  C   UNL     1       0.062  -4.857  -1.219  0.00  0.00    -0.076 A 
ATOM     24  C   UNL     1       0.058  -4.192  -0.001  0.00  0.00    +0.166 A 
ATOM     27  C   UNL     1       0.040  -2.785   0.017  0.00  0.00    -0.105 A 
ATOM     28  C   UNL     1       0.036  -2.072   1.233  0.00  0.00    +0.161 A 
ATOM     31  C   UNL     1       0.023  -0.695   1.210  0.00  0.00    -0.100 A 
ENDROOT
BRANCH   8   9
ATOM      9  C   UNL     1       0.082  -6.339  -1.248  0.00  0.00    -0.085 A 
ATOM     10  C   UNL     1      -1.119  -7.056  -1.263  0.00  0.00    +0.161 A 
ATOM     13  C   UNL     1      -1.106  -8.445  -1.291  0.00  0.00    -0.009 A 
ATOM     14  C   UNL     1       0.089  -9.124  -1.304  0.00  0.00    -0.034 A 
ATOM     15  C   UNL     1       1.301  -8.421  -1.290  0.00  0.00    -0.151 A 
ATOM     16  C   UNL     1       2.559  -9.184  -1.304  0.00  0.00    +0.361 C 
ATOM     17  N   UNL     1       2.558 -10.417  -1.692  0.00  0.00    -0.506 NA
ATOM     18  C   UNL     1       1.343 -11.090  -2.140  0.00  0.00    +0.147 C 
ATOM     19  C   UNL     1       1.515 -12.601  -1.968  0.00  0.00    +0.055 C 
ATOM     20  C   UNL     1       0.129 -10.630  -1.335  0.00  0.00    +0.075 C 
ATOM     21  C   UNL     1       1.300  -7.023  -1.268  0.00  0.00    +0.160 A 
BRANCH  10  11
ATOM     11  O   UNL     1      -2.303  -6.391  -1.249  0.00  0.00    -0.484 OA
ATOM     12  H   UNL     1      -2.646  -6.181  -2.128  0.00  0.00    +0.393 HD
ENDBRANCH  10  11
BRANCH  21  22
ATOM     22  O   UNL     1       2.470  -6.338  -1.260  0.00  0.00    -0.324 OA
ATOM     23  C   UNL     1       3.036  -6.035   0.017  0.00  0.00    +0.231 C 
ENDBRANCH  21  22
ENDBRANCH   8   9
BRANCH  24  25
ATOM     25  O   UNL     1       0.072  -4.892   1.163  0.00  0.00    -0.471 OA
ATOM     26  H   UNL     1       0.959  -5.083   1.496  0.00  0.00    +0.381 HD
ENDBRANCH  24  25
BRANCH  28  29
ATOM     29  O   UNL     1       0.051  -2.737   2.417  0.00  0.00    -0.296 OA
ATOM     30  C   UNL     1       0.046  -1.945   3.606  0.00  0.00    +0.240 C 
ENDBRANCH  28  29
TORSDOF 5
