REMARK  Name = ZINC95486166
REMARK  13 active torsions:
REMARK  status: ('A' for Active; 'I' for Inactive)
REMARK    1  A    between atoms: C1_1  and  C2_2
REMARK    2  A    between atoms: C6_7  and  O5_34
REMARK    3  A    between atoms: C7_8  and  C14_18
REMARK    4  A    between atoms: C8_9  and  O1_16
REMARK    5  A    between atoms: C10_11  and  C12_15
REMARK    6  A    between atoms: N1_13  and  C11_14
REMARK    7  A    between atoms: O1_16  and  C13_17
REMARK    8  A    between atoms: C19_23  and  O4_32
REMARK    9  A    between atoms: C21_25  and  O3_30
REMARK   10  A    between atoms: C23_27  and  O2_28
REMARK   11  A    between atoms: O2_28  and  C24_29
REMARK   12  A    between atoms: O3_30  and  C25_31
REMARK   13  A    between atoms: O4_32  and  C26_33
REMARK                            x       y       z     vdW  Elec       q    Type
REMARK                         _______ _______ _______ _____ _____    ______ ____
ROOT
ATOM      1  C   UNL     1       0.026   1.573  -0.111  0.00  0.00    +0.038 C 
ATOM      2  C   UNL     1       0.036   0.043  -0.088  0.00  0.00    +0.124 C 
ATOM      3  C   UNL     1      -1.398  -0.479   0.003  0.00  0.00    +0.098 C 
ATOM      4  C   UNL     1      -1.390  -1.963   0.267  0.00  0.00    -0.039 A 
ATOM      5  C   UNL     1      -2.554  -2.680   0.029  0.00  0.00    -0.022 A 
ATOM      6  C   UNL     1      -2.602  -4.043   0.258  0.00  0.00    +0.136 A 
ATOM      9  C   UNL     1      -1.466  -4.704   0.735  0.00  0.00    -0.064 A 
ATOM     26  C   UNL     1      -0.297  -3.978   0.971  0.00  0.00    +0.134 A 
ATOM     29  C   UNL     1      -0.263  -2.608   0.733  0.00  0.00    -0.100 A 
ATOM     30  C   UNL     1       1.025  -1.871   0.992  0.00  0.00    +0.221 C 
ATOM     31  C   UNL     1       2.001  -2.140  -0.155  0.00  0.00    +0.009 C 
ATOM     32  N   UNL     1       0.785  -0.429   1.088  0.00  0.00    -0.528 NA
ATOM     33  C   UNL     1       2.046   0.310   1.241  0.00  0.00    +0.191 C 
ENDROOT
BRANCH   9  10
ATOM     10  C   UNL     1      -1.502  -6.162   0.988  0.00  0.00    -0.118 A 
ATOM     11  C   UNL     1      -1.886  -6.656   2.257  0.00  0.00    +0.075 A 
ATOM     12  C   UNL     1      -2.239  -5.782   3.297  0.00  0.00    -0.038 A 
ATOM     13  C   UNL     1      -2.606  -6.282   4.510  0.00  0.00    +0.079 A 
ATOM     14  C   UNL     1      -2.638  -7.654   4.740  0.00  0.00    -0.120 A 
ATOM     15  C   UNL     1      -2.299  -8.542   3.744  0.00  0.00    +0.178 A 
ATOM     18  C   UNL     1      -1.915  -8.053   2.480  0.00  0.00    -0.124 A 
ATOM     19  C   UNL     1      -1.562  -8.933   1.436  0.00  0.00    +0.210 A 
ATOM     22  C   UNL     1      -1.191  -8.430   0.209  0.00  0.00    -0.176 A 
ATOM     23  C   UNL     1      -1.165  -7.056  -0.021  0.00  0.00    +0.202 A 
BRANCH  15  16
ATOM     16  O   UNL     1      -2.333  -9.879   3.979  0.00  0.00    -0.292 OA
ATOM     17  C   UNL     1      -2.731 -10.299   5.286  0.00  0.00    +0.239 C 
ENDBRANCH  15  16
BRANCH  19  20
ATOM     20  O   UNL     1      -1.587 -10.275   1.641  0.00  0.00    -0.285 OA
ATOM     21  C   UNL     1      -1.216 -11.106   0.540  0.00  0.00    +0.240 C 
ENDBRANCH  19  20
BRANCH  23  24
ATOM     24  O   UNL     1      -0.800  -6.585  -1.242  0.00  0.00    -0.304 OA
ATOM     25  C   UNL     1      -0.465  -7.555  -2.237  0.00  0.00    +0.238 C 
ENDBRANCH  23  24
ENDBRANCH   9  10
BRANCH   6   7
ATOM      7  O   UNL     1      -3.747  -4.735   0.021  0.00  0.00    -0.488 OA
ATOM      8  H   UNL     1      -3.817  -5.085  -0.878  0.00  0.00    +0.389 HD
ENDBRANCH   6   7
BRANCH  26  27
ATOM     27  O   UNL     1       0.812  -4.612   1.435  0.00  0.00    -0.326 OA
ATOM     28  C   UNL     1       0.999  -4.639   2.852  0.00  0.00    +0.223 C 
ENDBRANCH  26  27
TORSDOF 6
