REMARK  Name = ZINC95486320
REMARK  5 active torsions:
REMARK  status: ('A' for Active; 'I' for Inactive)
REMARK    1  A    between atoms: C1_1  and  C2_2
REMARK    2  A    between atoms: C10_11  and  C11_14
REMARK    3  A    between atoms: C16_21  and  O4_29
REMARK    4  A    between atoms: C22_27  and  O3_28
REMARK    5  A    between atoms: O4_29  and  C23_30
REMARK                            x       y       z     vdW  Elec       q    Type
REMARK                         _______ _______ _______ _____ _____    ______ ____
ROOT
ATOM      1  C   UNL     1      -0.019   1.526   0.010  0.00  0.00    +0.039 C 
ATOM      2  C   UNL     1       0.002  -0.004   0.002  0.00  0.00    +0.124 C 
ATOM      3  C   UNL     1      -1.431  -0.537   0.023  0.00  0.00    +0.101 C 
ATOM      4  C   UNL     1      -1.421  -2.026   0.259  0.00  0.00    -0.041 A 
ATOM      5  C   UNL     1      -2.566  -2.753  -0.035  0.00  0.00    +0.011 A 
ATOM      6  C   UNL     1      -2.604  -4.112   0.157  0.00  0.00    +0.044 A 
ATOM      7  C   UNL     1      -1.486  -4.797   0.662  0.00  0.00    -0.086 A 
ATOM      8  C   UNL     1      -0.348  -4.047   0.969  0.00  0.00    +0.130 A 
ATOM      9  O   UNL     1       0.724  -4.668   1.509  0.00  0.00    -0.309 OA
ATOM     10  C   UNL     1       0.529  -5.314   2.652  0.00  0.00    +0.542 C 
ATOM     11  C   UNL     1      -0.051  -6.635   2.766  0.00  0.00    -0.217 A 
ATOM     12  C   UNL     1       0.340  -7.479   3.802  0.00  0.00    +0.177 A 
ATOM     13  C   UNL     1      -0.184  -8.752   3.920  0.00  0.00    -0.109 A 
ATOM     14  C   UNL     1      -1.083  -9.227   2.990  0.00  0.00    +0.209 A 
ATOM     17  C   UNL     1      -1.488  -8.430   1.902  0.00  0.00    -0.116 A 
ATOM     18  C   UNL     1      -2.292  -8.996   0.891  0.00  0.00    +0.167 A 
ATOM     21  C   UNL     1      -2.723  -8.207  -0.153  0.00  0.00    -0.019 A 
ATOM     22  C   UNL     1      -2.405  -6.865  -0.188  0.00  0.00    +0.084 A 
ATOM     23  C   UNL     1      -1.064  -7.077   1.802  0.00  0.00    +0.057 A 
ATOM     24  O   UNL     1       0.864  -4.756   3.678  0.00  0.00    -0.449 OA
ATOM     25  C   UNL     1      -1.618  -6.263   0.804  0.00  0.00    -0.062 A 
ATOM     26  C   UNL     1      -0.312  -2.675   0.759  0.00  0.00    -0.071 A 
ATOM     27  C   UNL     1       0.960  -1.934   1.084  0.00  0.00    +0.229 C 
ATOM     28  C   UNL     1       1.982  -2.171  -0.029  0.00  0.00    +0.008 C 
ATOM     29  N   UNL     1       0.705  -0.496   1.198  0.00  0.00    -0.675 NA
ATOM     30  H   UNL     1       1.562   0.015   1.349  0.00  0.00    +0.350 HD
ENDROOT
BRANCH  14  15
ATOM     15  O   UNL     1      -1.585 -10.479   3.125  0.00  0.00    -0.291 OA
ATOM     16  C   UNL     1      -1.138 -11.240   4.249  0.00  0.00    +0.254 C 
ENDBRANCH  14  15
BRANCH  18  19
ATOM     19  O   UNL     1      -2.639 -10.307   0.947  0.00  0.00    -0.477 OA
ATOM     20  H   UNL     1      -3.464 -10.476   1.422  0.00  0.00    +0.397 HD
ENDBRANCH  18  19
TORSDOF 2
