REMARK  Name = ZINC00058188
REMARK  5 active torsions:
REMARK  status: ('A' for Active; 'I' for Inactive)
REMARK    1  A    between atoms: C1_1  and  O1_2
REMARK    2  A    between atoms: O1_2  and  C2_3
REMARK    3  A    between atoms: C9_11  and  C10_12
REMARK    4  A    between atoms: C11_14  and  C12_15
REMARK    5  A    between atoms: C12_15  and  C13_16
REMARK                            x       y       z     vdW  Elec       q    Type
REMARK                         _______ _______ _______ _____ _____    ______ ____
ROOT
ATOM      3  C   UNL     1       0.624  -0.622   1.039  0.00  0.00    +0.175 A 
ATOM      4  C   UNL     1       1.957  -1.023   0.927  0.00  0.00    -0.170 A 
ATOM      5  C   UNL     1       2.970  -0.929  -0.132  0.00  0.00    -0.038 A 
ATOM      6  C   UNL     1       4.077  -1.502   0.360  0.00  0.00    +0.190 A 
ATOM      7  O   UNL     1       3.855  -1.940   1.612  0.00  0.00    -0.198 OA
ATOM      8  C   UNL     1       2.591  -1.674   1.998  0.00  0.00    +0.060 A 
ATOM      9  C   UNL     1       1.882  -1.917   3.173  0.00  0.00    -0.002 A 
ATOM     10  C   UNL     1       0.582  -1.528   3.289  0.00  0.00    +0.093 A 
ATOM     11  C   UNL     1      -0.067  -0.872   2.231  0.00  0.00    -0.113 A 
ENDROOT
BRANCH  11  12
ATOM     12  C   UNL     1      -1.470  -0.452   2.373  0.00  0.00    +0.328 C 
ATOM     13  O   UNL     1      -2.125   0.082   1.319  0.00  0.00    -0.606 OA
ATOM     14  C   UNL     1      -2.110  -0.602   3.570  0.00  0.00    -0.432 C 
BRANCH  14  15
ATOM     15  C   UNL     1      -3.481  -0.310   3.676  0.00  0.00    +0.404 C 
ATOM     16  O   UNL     1      -4.099   0.077   2.699  0.00  0.00    -0.513 OA
BRANCH  15  17
ATOM     17  C   UNL     1      -4.175  -0.473   4.973  0.00  0.00    -0.115 A 
ATOM     18  C   UNL     1      -3.469  -0.910   6.095  0.00  0.00    +0.039 A 
ATOM     19  C   UNL     1      -4.122  -1.059   7.302  0.00  0.00    -0.022 A 
ATOM     20  C   UNL     1      -5.472  -0.776   7.401  0.00  0.00    -0.013 A 
ATOM     21  C   UNL     1      -6.178  -0.342   6.292  0.00  0.00    -0.021 A 
ATOM     22  C   UNL     1      -5.536  -0.184   5.081  0.00  0.00    +0.037 A 
ENDBRANCH  15  17
ENDBRANCH  14  15
ENDBRANCH  11  12
BRANCH   3   2
ATOM      1  C   UNL     1       0.195   1.420  -0.096  0.00  0.00    +0.221 C 
ATOM      2  O   UNL     1       0.008   0.007   0.007  0.00  0.00    -0.306 OA
ENDBRANCH   3   2
TORSDOF 4
