REMARK  Name = ZINC00035526
REMARK  12 active torsions:
REMARK  status: ('A' for Active; 'I' for Inactive)
REMARK    1  A    between atoms: C1_1  and  C2_2
REMARK    2  A    between atoms: C2_2  and  C3_3
REMARK    3  A    between atoms: C2_2  and  C4_4
REMARK    4  A    between atoms: C2_2  and  O6_26
REMARK    5  A    between atoms: C4_4  and  C5_6
REMARK    6  A    between atoms: C4_4  and  O5_25
REMARK    7  A    between atoms: C5_6  and  O1_7
REMARK    8  A    between atoms: O1_7  and  C6_8
REMARK    9  A    between atoms: C11_13  and  O2_14
REMARK   10  A    between atoms: O2_14  and  C12_15
REMARK   11  A    between atoms: C15_19  and  O3_20
REMARK   12  A    between atoms: O3_20  and  C16_21
REMARK                            x       y       z     vdW  Elec       q    Type
REMARK                         _______ _______ _______ _____ _____    ______ ____
ROOT
ATOM     10  C   UNL     1      -2.906  -3.910   0.108  0.00  0.00    +0.144 A 
ATOM     11  C   UNL     1      -1.788  -4.727   0.297  0.00  0.00    -0.043 A 
ATOM     12  C   UNL     1      -1.919  -6.078   0.385  0.00  0.00    +0.102 A 
ATOM     13  C   UNL     1      -3.191  -6.667   0.286  0.00  0.00    -0.156 A 
ATOM     14  C   UNL     1      -4.335  -5.851   0.094  0.00  0.00    +0.207 A 
ATOM     15  N   UNL     1      -5.551  -6.398  -0.002  0.00  0.00    -0.467 NA
ATOM     16  C   UNL     1      -5.738  -7.702   0.075  0.00  0.00    +0.322 A 
ATOM     17  C   UNL     1      -4.644  -8.575   0.265  0.00  0.00    -0.210 A 
ATOM     18  C   UNL     1      -5.218  -9.926   0.302  0.00  0.00    -0.028 A 
ATOM     19  C   UNL     1      -6.538  -9.774   0.141  0.00  0.00    +0.247 A 
ATOM     20  O   UNL     1      -6.846  -8.471   0.008  0.00  0.00    -0.191 OA
ATOM     21  C   UNL     1      -3.353  -8.065   0.373  0.00  0.00    +0.222 A 
ATOM     24  C   UNL     1      -4.170  -4.454   0.012  0.00  0.00    +0.064 A 
ENDROOT
BRANCH  21  22
ATOM     22  O   UNL     1      -2.289  -8.885   0.555  0.00  0.00    -0.326 OA
ATOM     23  C   UNL     1      -1.923  -9.181   1.904  0.00  0.00    +0.248 C 
ENDBRANCH  21  22
BRANCH  24  25
ATOM     25  O   UNL     1      -5.250  -3.647  -0.167  0.00  0.00    -0.302 OA
ATOM     26  C   UNL     1      -5.628  -3.358  -1.515  0.00  0.00    +0.222 C 
ENDBRANCH  24  25
BRANCH  10   9
ATOM      9  O   UNL     1      -2.746  -2.563   0.023  0.00  0.00    -0.286 OA
BRANCH   9   8
ATOM      8  C   UNL     1      -1.413  -2.059   0.130  0.00  0.00    +0.177 C 
BRANCH   8   5
ATOM      5  C   UNL     1      -1.433  -0.534   0.013  0.00  0.00    +0.246 C 
BRANCH   5   2
ATOM      1  C   UNL     1      -0.019   1.526   0.010  0.00  0.00    +0.031 C 
ATOM      2  C   UNL     1       0.002  -0.004   0.002  0.00  0.00    +0.100 C 
ATOM     27  C   UNL     1       0.742  -0.511   1.242  0.00  0.00    +0.015 C 
BRANCH   2   3
ATOM      3  O   UNL     1       0.671  -0.465  -1.174  0.00  0.00    -0.557 OA
ATOM      4  H   UNL     1       1.588  -0.167  -1.247  0.00  0.00    +0.384 HD
ENDBRANCH   2   3
ENDBRANCH   5   2
BRANCH   5   6
ATOM      6  O   UNL     1      -2.137   0.021   1.126  0.00  0.00    -0.537 OA
ATOM      7  H   UNL     1      -1.747  -0.195   1.985  0.00  0.00    +0.374 HD
ENDBRANCH   5   6
ENDBRANCH   8   5
ENDBRANCH   9   8
ENDBRANCH  10   9
TORSDOF 8
