REMARK  Name = ZINC95486019
REMARK  12 active torsions:
REMARK  status: ('A' for Active; 'I' for Inactive)
REMARK    1  A    between atoms: C1_1  and  C2_2
REMARK    2  A    between atoms: C5_6  and  C15_20
REMARK    3  A    between atoms: C6_7  and  O2_18
REMARK    4  A    between atoms: C8_9  and  O1_16
REMARK    5  A    between atoms: C10_11  and  C12_15
REMARK    6  A    between atoms: N1_13  and  C11_14
REMARK    7  A    between atoms: O1_16  and  C13_17
REMARK    8  A    between atoms: O2_18  and  C14_19
REMARK    9  A    between atoms: C18_23  and  O4_32
REMARK   10  A    between atoms: C24_29  and  O3_30
REMARK   11  A    between atoms: O3_30  and  C25_31
REMARK   12  A    between atoms: O4_32  and  C26_33
REMARK                            x       y       z     vdW  Elec       q    Type
REMARK                         _______ _______ _______ _____ _____    ______ ____
ROOT
ATOM      1  C   UNL     1      -0.300   1.552   0.248  0.00  0.00    +0.039 C 
ATOM      2  C   UNL     1      -0.130   0.036   0.127  0.00  0.00    +0.124 C 
ATOM      3  C   UNL     1       0.688  -0.291  -1.123  0.00  0.00    +0.107 C 
ATOM      4  C   UNL     1       1.067  -1.750  -1.123  0.00  0.00    +0.025 A 
ATOM      5  C   UNL     1       1.494  -2.326  -2.324  0.00  0.00    -0.113 A 
ATOM     20  C   UNL     1       1.859  -3.675  -2.364  0.00  0.00    +0.183 A 
ATOM     23  C   UNL     1       1.796  -4.436  -1.209  0.00  0.00    -0.165 A 
ATOM     24  C   UNL     1       1.370  -3.858  -0.025  0.00  0.00    +0.177 A 
ATOM     27  C   UNL     1       1.003  -2.514   0.018  0.00  0.00    -0.141 A 
ATOM     28  C   UNL     1       0.536  -1.942   1.332  0.00  0.00    +0.186 C 
ATOM     29  C   UNL     1       1.438  -2.457   2.455  0.00  0.00    +0.052 C 
ATOM     30  N   UNL     1       0.586  -0.478   1.305  0.00  0.00    -0.529 NA
ATOM     31  C   UNL     1       0.039   0.093   2.543  0.00  0.00    +0.190 C 
ENDROOT
BRANCH   5   6
ATOM      6  C   UNL     1       1.561  -1.506  -3.555  0.00  0.00    -0.064 A 
ATOM      7  C   UNL     1       2.723  -0.827  -3.878  0.00  0.00    +0.082 A 
ATOM      8  C   UNL     1       2.797  -0.055  -5.030  0.00  0.00    -0.104 A 
ATOM      9  C   UNL     1       1.717   0.056  -5.879  0.00  0.00    +0.167 A 
ATOM     12  C   UNL     1       0.518  -0.622  -5.581  0.00  0.00    -0.094 A 
ATOM     13  C   UNL     1      -0.602  -0.528  -6.430  0.00  0.00    +0.166 A 
ATOM     16  C   UNL     1      -1.751  -1.219  -6.114  0.00  0.00    -0.112 A 
ATOM     17  C   UNL     1      -1.821  -1.991  -4.959  0.00  0.00    +0.062 A 
ATOM     18  C   UNL     1      -0.754  -2.095  -4.118  0.00  0.00    -0.026 A 
ATOM     19  C   UNL     1       0.437  -1.416  -4.412  0.00  0.00    +0.037 A 
BRANCH   9  10
ATOM     10  O   UNL     1       1.808   0.816  -7.000  0.00  0.00    -0.291 OA
ATOM     11  C   UNL     1       3.053   1.475  -7.238  0.00  0.00    +0.237 C 
ENDBRANCH   9  10
BRANCH  13  14
ATOM     14  O   UNL     1      -0.544   0.224  -7.559  0.00  0.00    -0.291 OA
ATOM     15  C   UNL     1      -1.721   0.271  -8.369  0.00  0.00    +0.237 C 
ENDBRANCH  13  14
ENDBRANCH   5   6
BRANCH  20  21
ATOM     21  O   UNL     1       2.273  -4.236  -3.530  0.00  0.00    -0.302 OA
ATOM     22  C   UNL     1       2.630  -5.620  -3.493  0.00  0.00    +0.236 C 
ENDBRANCH  20  21
BRANCH  24  25
ATOM     25  O   UNL     1       1.309  -4.609   1.106  0.00  0.00    -0.301 OA
ATOM     26  C   UNL     1       1.698  -5.979   0.997  0.00  0.00    +0.230 C 
ENDBRANCH  24  25
TORSDOF 5
