REMARK  Name = ZINC95486108
REMARK  16 active torsions:
REMARK  status: ('A' for Active; 'I' for Inactive)
REMARK    1  A    between atoms: C1_1  and  C2_2
REMARK    2  A    between atoms: C2_2  and  C3_3
REMARK    3  A    between atoms: C2_2  and  C4_4
REMARK    4  A    between atoms: C5_5  and  C6_6
REMARK    5  A    between atoms: C6_6  and  C7_7
REMARK    6  A    between atoms: C11_13  and  C26_31
REMARK    7  A    between atoms: C13_16  and  C22_27
REMARK    8  A    between atoms: C14_17  and  C15_19
REMARK    9  A    between atoms: C15_19  and  C16_20
REMARK   10  A    between atoms: C16_20  and  C17_21
REMARK   11  A    between atoms: C18_22  and  C19_23
REMARK   12  A    between atoms: C18_22  and  C20_24
REMARK   13  A    between atoms: C23_28  and  C24_29
REMARK   14  A    between atoms: C23_28  and  C25_30
REMARK   15  A    between atoms: C26_31  and  C27_33
REMARK   16  A    between atoms: C31_37  and  O4_39
REMARK                            x       y       z     vdW  Elec       q    Type
REMARK                         _______ _______ _______ _____ _____    ______ ____
ROOT
ATOM      6  C   UNL     1       3.097  -2.198  -3.110  0.00  0.00    -0.013 C 
ATOM      7  C   UNL     1       3.149  -0.694  -2.830  0.00  0.00    +0.072 C 
ATOM      8  C   UNL     1       4.485  -0.380  -2.128  0.00  0.00    +0.005 C 
ATOM      9  C   UNL     1       4.561  -1.255  -0.900  0.00  0.00    +0.115 C 
ATOM     10  C   UNL     1       5.119  -2.476  -0.922  0.00  0.00    -0.233 C 
ATOM     22  C   UNL     1       5.737  -3.038  -2.133  0.00  0.00    +0.410 C 
ATOM     23  C   UNL     1       5.569  -2.296  -3.443  0.00  0.00    -0.096 C 
ATOM     28  O   UNL     1       6.367  -4.073  -2.084  0.00  0.00    -0.395 OA
ATOM     29  C   UNL     1       5.584  -0.790  -3.098  0.00  0.00    +0.384 C 
ATOM     30  O   UNL     1       6.395  -0.009  -3.532  0.00  0.00    -0.427 OA
ATOM     31  C   UNL     1       4.210  -2.593  -4.078  0.00  0.00    +0.030 C 
ENDROOT
BRANCH  23  24
ATOM     24  C   UNL     1       6.674  -2.646  -4.406  0.00  0.00    -0.038 C 
ATOM     25  C   UNL     1       6.794  -3.873  -4.848  0.00  0.00    -0.087 C 
ATOM     26  C   UNL     1       7.976  -4.255  -5.701  0.00  0.00    +0.079 C 
ATOM     27  C   UNL     1       5.750  -4.903  -4.503  0.00  0.00    +0.077 C 
ENDBRANCH  23  24
BRANCH  10  11
ATOM     11  C   UNL     1       5.112  -3.284   0.315  0.00  0.00    +0.453 C 
ATOM     21  O   UNL     1       5.621  -2.847   1.329  0.00  0.00    -0.487 OA
BRANCH  11  12
ATOM     12  C   UNL     1       4.490  -4.621   0.319  0.00  0.00    -0.297 A 
ATOM     13  C   UNL     1       3.983  -5.162  -0.867  0.00  0.00    +0.082 A 
ATOM     14  C   UNL     1       3.402  -6.411  -0.861  0.00  0.00    -0.162 A 
ATOM     15  C   UNL     1       3.317  -7.136   0.321  0.00  0.00    +0.285 A 
ATOM     16  O   UNL     1       2.743  -8.366   0.322  0.00  0.00    -0.691 OA
ATOM     17  C   UNL     1       3.820  -6.602   1.507  0.00  0.00    -0.065 A 
ATOM     20  C   UNL     1       4.409  -5.353   1.508  0.00  0.00    +0.082 A 
BRANCH  17  18
ATOM     18  O   UNL     1       3.735  -7.314   2.663  0.00  0.00    -0.489 OA
ATOM     19  H   UNL     1       4.496  -7.887   2.829  0.00  0.00    +0.357 HD
ENDBRANCH  17  18
ENDBRANCH  11  12
ENDBRANCH  10  11
BRANCH   6   5
ATOM      5  C   UNL     1       1.741  -2.552  -3.725  0.00  0.00    +0.067 C 
BRANCH   5   4
ATOM      3  C   UNL     1      -0.355  -1.520  -3.018  0.00  0.00    -0.053 C 
ATOM      4  C   UNL     1       0.651  -2.303  -2.716  0.00  0.00    -0.035 C 
BRANCH   3   2
ATOM      1  C   UNL     1      -1.521   0.225  -1.697  0.00  0.00    +0.019 C 
ATOM      2  C   UNL     1      -1.446  -1.271  -2.008  0.00  0.00    +0.004 C 
ATOM     38  C   UNL     1      -2.786  -1.741  -2.578  0.00  0.00    +0.018 C 
ENDBRANCH   3   2
ENDBRANCH   5   4
ENDBRANCH   6   5
BRANCH  31  32
ATOM     32  C   UNL     1       4.034  -1.827  -5.391  0.00  0.00    +0.034 C 
BRANCH  32  33
ATOM     33  C   UNL     1       4.983  -2.400  -6.446  0.00  0.00    +0.055 C 
BRANCH  33  34
ATOM     34  C   UNL     1       4.696  -1.759  -7.780  0.00  0.00    -0.056 C 
ATOM     35  C   UNL     1       4.294  -2.494  -8.787  0.00  0.00    -0.141 C 
ATOM     36  C   UNL     1       4.097  -1.871 -10.144  0.00  0.00    +0.066 C 
ATOM     37  C   UNL     1       4.029  -3.965  -8.587  0.00  0.00    +0.071 C 
ENDBRANCH  33  34
ENDBRANCH  32  33
ENDBRANCH  31  32
TORSDOF 10
