REMARK  Name = ZINC00900237
REMARK  2 active torsions:
REMARK  status: ('A' for Active; 'I' for Inactive)
REMARK    1  A    between atoms: C1_1  and  O1_2
REMARK    2  A    between atoms: O1_2  and  C2_3
REMARK                            x       y       z     vdW  Elec       q    Type
REMARK                         _______ _______ _______ _____ _____    ______ ____
ROOT
ATOM      3  C   UNL     1       5.007  -0.634   2.272  0.00  0.00    +0.350 A 
ATOM      4  C   UNL     1       5.372  -1.863   2.813  0.00  0.00    -0.195 A 
ATOM      5  C   UNL     1       6.579  -2.371   3.479  0.00  0.00    +0.042 A 
ATOM      6  C   UNL     1       6.329  -3.651   3.777  0.00  0.00    +0.280 A 
ATOM      7  O   UNL     1       5.094  -3.993   3.366  0.00  0.00    -0.172 OA
ATOM      8  C   UNL     1       4.472  -2.949   2.778  0.00  0.00    +0.348 A 
ATOM      9  N   UNL     1       3.226  -2.878   2.234  0.00  0.00    -0.492 N 
ATOM     10  H   UNL     1       2.590  -3.684   2.221  0.00  0.00    +0.476 HD
ATOM     11  C   UNL     1       2.868  -1.657   1.703  0.00  0.00    +0.233 A 
ATOM     12  C   UNL     1       1.586  -1.544   1.138  0.00  0.00    +0.011 A 
ATOM     13  C   UNL     1       1.179  -0.358   0.598  0.00  0.00    +0.161 A 
ATOM     14  O   UNL     1       0.002  -0.004   0.002  0.00  0.00    -0.281 OA
ATOM     15  C   UNL     1      -0.017   1.435   0.010  0.00  0.00    +0.474 C 
ATOM     16  O   UNL     1       1.375   1.801  -0.001  0.00  0.00    -0.284 OA
ATOM     17  C   UNL     1       2.030   0.761   0.596  0.00  0.00    +0.053 A 
ATOM     18  C   UNL     1       3.280   0.683   1.137  0.00  0.00    +0.133 A 
ATOM     19  C   UNL     1       3.722  -0.525   1.702  0.00  0.00    -0.119 A 
ENDROOT
BRANCH   3   2
ATOM      1  C   UNL     1       5.792   1.284   3.432  0.00  0.00    +0.299 C 
ATOM      2  O   UNL     1       5.856   0.422   2.293  0.00  0.00    -0.317 OA
ENDBRANCH   3   2
TORSDOF 1
