REMARK  Name = ZINC00135449
REMARK  7 active torsions:
REMARK  status: ('A' for Active; 'I' for Inactive)
REMARK    1  A    between atoms: C1_1  and  N1_2
REMARK    2  A    between atoms: C6_7  and  O4_25
REMARK    3  A    between atoms: C7_8  and  O3_23
REMARK    4  A    between atoms: C15_17  and  O2_21
REMARK    5  A    between atoms: C16_18  and  O1_20
REMARK    6  A    between atoms: O2_21  and  C18_22
REMARK    7  A    between atoms: O3_23  and  C19_24
REMARK                            x       y       z     vdW  Elec       q    Type
REMARK                         _______ _______ _______ _____ _____    ______ ____
ROOT
ATOM      1  C   UNL     1       0.662   1.496  -0.055  0.00  0.00    +0.198 C 
ATOM      2  N   UNL     1       0.448   0.043  -0.025  0.00  0.00    -0.535 NA
ATOM      3  C   UNL     1       0.837  -0.572  -1.295  0.00  0.00    +0.178 C 
ATOM      4  C   UNL     1       0.385  -2.021  -1.356  0.00  0.00    +0.093 C 
ATOM      5  C   UNL     1       0.526  -2.720  -0.033  0.00  0.00    -0.049 A 
ATOM      6  C   UNL     1       0.290  -4.090   0.009  0.00  0.00    +0.003 A 
ATOM      7  C   UNL     1       0.425  -4.797   1.189  0.00  0.00    +0.095 A 
ATOM     10  C   UNL     1       0.796  -4.134   2.353  0.00  0.00    +0.078 A 
ATOM     13  C   UNL     1       1.012  -2.758   2.318  0.00  0.00    -0.037 A 
ATOM     14  C   UNL     1       1.402  -2.030   3.549  0.00  0.00    -0.019 A 
ATOM     15  C   UNL     1       1.894  -2.719   4.655  0.00  0.00    -0.012 A 
ATOM     16  C   UNL     1       2.268  -2.018   5.788  0.00  0.00    +0.096 A 
ATOM     19  C   UNL     1       2.154  -0.631   5.818  0.00  0.00    +0.084 A 
ATOM     22  C   UNL     1       1.658   0.052   4.718  0.00  0.00    +0.033 A 
ATOM     23  C   UNL     1       1.275  -0.643   3.589  0.00  0.00    -0.089 A 
ATOM     24  C   UNL     1       0.716   0.087   2.398  0.00  0.00    +0.106 C 
ATOM     25  C   UNL     1       0.886  -2.053   1.118  0.00  0.00    -0.056 A 
ATOM     26  C   UNL     1       1.170  -0.574   1.098  0.00  0.00    +0.192 C 
ENDROOT
BRANCH   7   8
ATOM      8  O   UNL     1       0.196  -6.138   1.211  0.00  0.00    -0.490 OA
ATOM      9  H   UNL     1       0.980  -6.674   1.032  0.00  0.00    +0.394 HD
ENDBRANCH   7   8
BRANCH  10  11
ATOM     11  O   UNL     1       0.945  -4.822   3.516  0.00  0.00    -0.327 OA
ATOM     12  C   UNL     1      -0.236  -5.058   4.286  0.00  0.00    +0.231 C 
ENDBRANCH  10  11
BRANCH  16  17
ATOM     17  O   UNL     1       2.747  -2.685   6.872  0.00  0.00    -0.307 OA
ATOM     18  C   UNL     1       2.837  -4.107   6.772  0.00  0.00    +0.239 C 
ENDBRANCH  16  17
BRANCH  19  20
ATOM     20  O   UNL     1       2.529   0.057   6.930  0.00  0.00    -0.486 OA
ATOM     21  H   UNL     1       3.457   0.330   6.928  0.00  0.00    +0.388 HD
ENDBRANCH  19  20
TORSDOF 4
