REMARK  Name = ZINC95485929
REMARK  9 active torsions:
REMARK  status: ('A' for Active; 'I' for Inactive)
REMARK    1  A    between atoms: C1_1  and  C2_2
REMARK    2  A    between atoms: C2_2  and  C3_3
REMARK    3  A    between atoms: C3_3  and  C23_29
REMARK    4  A    between atoms: C4_4  and  C5_5
REMARK    5  A    between atoms: C5_5  and  C6_6
REMARK    6  A    between atoms: C10_10  and  O2_14
REMARK    7  A    between atoms: C11_11  and  O1_12
REMARK    8  A    between atoms: O1_12  and  C12_13
REMARK    9  A    between atoms: O2_14  and  C13_15
REMARK                            x       y       z     vdW  Elec       q    Type
REMARK                         _______ _______ _______ _____ _____    ______ ____
ROOT
ATOM      7  C   UNL     1      -3.650  -0.333  -2.104  0.00  0.00    +0.030 A 
ATOM      8  C   UNL     1      -4.283   0.825  -1.648  0.00  0.00    -0.234 A 
ATOM      9  C   UNL     1      -4.874   1.721  -2.552  0.00  0.00    +0.202 A 
ATOM     10  O   UNL     1      -5.504   2.833  -2.120  0.00  0.00    -0.235 OA
ATOM     11  C   UNL     1      -5.330   3.312  -0.870  0.00  0.00    +0.224 A 
ATOM     12  C   UNL     1      -5.713   4.610  -0.575  0.00  0.00    -0.151 A 
ATOM     13  C   UNL     1      -5.549   5.118   0.708  0.00  0.00    +0.138 A 
ATOM     14  C   UNL     1      -4.992   4.312   1.717  0.00  0.00    -0.267 A 
ATOM     15  C   UNL     1      -4.598   3.004   1.435  0.00  0.00    +0.377 A 
ATOM     16  O   UNL     1      -4.060   2.224   2.405  0.00  0.00    -0.639 OA
ATOM     17  C   UNL     1      -4.970   5.149   2.924  0.00  0.00    +0.001 A 
ATOM     18  C   UNL     1      -5.486   6.332   2.566  0.00  0.00    +0.117 A 
ATOM     19  O   UNL     1      -5.825   6.315   1.264  0.00  0.00    -0.200 OA
ATOM     20  C   UNL     1      -4.764   2.509   0.140  0.00  0.00    -0.393 A 
ATOM     21  C   UNL     1      -4.810   1.447  -3.913  0.00  0.00    -0.096 A 
ATOM     22  C   UNL     1      -4.180   0.300  -4.362  0.00  0.00    +0.163 A 
ATOM     25  C   UNL     1      -4.344   1.137  -0.205  0.00  0.00    +0.442 A 
ATOM     26  O   UNL     1      -4.064   0.313   0.647  0.00  0.00    -0.442 OA
ATOM     27  C   UNL     1      -3.595  -0.590  -3.459  0.00  0.00    +0.024 A 
ENDROOT
BRANCH  22  23
ATOM     23  O   UNL     1      -4.124   0.041  -5.694  0.00  0.00    -0.300 OA
ATOM     24  C   UNL     1      -4.735   0.994  -6.566  0.00  0.00    +0.239 C 
ENDBRANCH  22  23
BRANCH  27  28
ATOM     28  O   UNL     1      -2.976  -1.713  -3.913  0.00  0.00    -0.314 OA
ATOM     29  C   UNL     1      -3.781  -2.885  -4.054  0.00  0.00    +0.209 C 
ENDBRANCH  27  28
BRANCH   7   6
ATOM      6  C   UNL     1      -3.025  -1.292  -1.124  0.00  0.00    +0.131 C 
BRANCH   6   5
ATOM      3  C   UNL     1      -3.914  -3.522  -0.681  0.00  0.00    -0.155 C 
ATOM      4  C   UNL     1      -2.604  -4.081  -1.171  0.00  0.00    +0.068 C 
ATOM      5  C   UNL     1      -4.082  -2.226  -0.593  0.00  0.00    +0.001 C 
BRANCH   3   2
ATOM      1  C   UNL     1      -5.832  -4.841  -1.537  0.00  0.00    +0.014 C 
ATOM      2  C   UNL     1      -5.032  -4.455  -0.291  0.00  0.00    +0.047 C 
ENDBRANCH   3   2
ENDBRANCH   6   5
ENDBRANCH   7   6
TORSDOF 5
