REMARK  Name = ZINC03871576
REMARK  3 active torsions:
REMARK  status: ('A' for Active; 'I' for Inactive)
REMARK    1  A    between atoms: C3_3  and  O5_20
REMARK    2  A    between atoms: C6_6  and  C7_7
REMARK    3  A    between atoms: C11_11  and  O3_18
REMARK                            x       y       z     vdW  Elec       q    Type
REMARK                         _______ _______ _______ _____ _____    ______ ____
ROOT
ATOM      9  C   UNL     1      -1.262  -0.760   0.011  0.00  0.00    +0.173 A 
ATOM     10  C   UNL     1      -1.224  -2.139   0.009  0.00  0.00    -0.121 A 
ATOM     11  C   UNL     1      -2.416  -2.867   0.017  0.00  0.00    +0.365 A 
ATOM     12  O   UNL     1      -2.402  -4.218   0.015  0.00  0.00    -0.578 OA
ATOM     13  C   UNL     1      -3.637  -2.155   0.028  0.00  0.00    -0.341 A 
ATOM     14  C   UNL     1      -4.871  -2.839   0.037  0.00  0.00    +0.265 A 
ATOM     17  C   UNL     1      -6.038  -2.132   0.048  0.00  0.00    -0.262 A 
ATOM     18  C   UNL     1      -6.016  -0.728   0.049  0.00  0.00    +0.361 A 
ATOM     19  C   UNL     1      -4.798  -0.039   0.039  0.00  0.00    -0.194 A 
ATOM     20  O   UNL     1      -7.163  -0.046   0.059  0.00  0.00    -0.667 OA
ATOM     21  C   UNL     1      -3.610  -0.743   0.029  0.00  0.00    +0.211 A 
ATOM     22  O   UNL     1      -2.427  -0.092   0.026  0.00  0.00    -0.220 OA
ENDROOT
BRANCH   9   8
ATOM      1  C   UNL     1      -0.017   1.395   0.010  0.00  0.00    +0.075 A 
ATOM      2  C   UNL     1       1.167   2.097   0.002  0.00  0.00    -0.013 A 
ATOM      3  C   UNL     1       2.380   1.418  -0.014  0.00  0.00    +0.117 A 
ATOM      6  C   UNL     1       2.404   0.028  -0.021  0.00  0.00    -0.011 A 
ATOM      7  C   UNL     1       1.225  -0.683  -0.014  0.00  0.00    +0.071 A 
ATOM      8  C   UNL     1       0.002  -0.004   0.002  0.00  0.00    -0.061 A 
BRANCH   3   4
ATOM      4  O   UNL     1       3.545   2.115  -0.022  0.00  0.00    -0.499 OA
ATOM      5  H   UNL     1       3.892   2.312   0.859  0.00  0.00    +0.392 HD
ENDBRANCH   3   4
ENDBRANCH   9   8
BRANCH  14  15
ATOM     15  O   UNL     1      -4.897  -4.195   0.035  0.00  0.00    -0.448 OA
ATOM     16  H   UNL     1      -5.788  -4.572   0.042  0.00  0.00    +0.383 HD
ENDBRANCH  14  15
TORSDOF 3
