REMARK  Name = ZINC95486149
REMARK  11 active torsions:
REMARK  status: ('A' for Active; 'I' for Inactive)
REMARK    1  A    between atoms: C1_1  and  C2_2
REMARK    2  A    between atoms: C6_6  and  O1_8
REMARK    3  A    between atoms: O1_8  and  C8_9
REMARK    4  A    between atoms: C9_10  and  O4_31
REMARK    5  A    between atoms: C11_12  and  C24_30
REMARK    6  A    between atoms: C12_13  and  C13_14
REMARK    7  A    between atoms: C14_15  and  O3_29
REMARK    8  A    between atoms: C16_17  and  O2_28
REMARK    9  A    between atoms: C20_21  and  C23_27
REMARK   10  A    between atoms: C21_24  and  C22_26
REMARK   11  A    between atoms: O4_31  and  C25_32
REMARK                            x       y       z     vdW  Elec       q    Type
REMARK                         _______ _______ _______ _____ _____    ______ ____
ROOT
ATOM     16  C   UNL     1      -0.228  -2.289  -4.180  0.00  0.00    -0.062 A 
ATOM     17  C   UNL     1      -1.358  -2.000  -4.952  0.00  0.00    +0.137 A 
ATOM     20  C   UNL     1      -1.218  -1.283  -6.127  0.00  0.00    -0.043 A 
ATOM     21  C   UNL     1       0.038  -0.858  -6.531  0.00  0.00    +0.133 A 
ATOM     24  C   UNL     1       1.166  -1.145  -5.764  0.00  0.00    -0.142 A 
ATOM     25  C   UNL     1       2.506  -0.662  -6.255  0.00  0.00    +0.230 C 
ATOM     26  C   UNL     1       2.363   0.764  -6.791  0.00  0.00    +0.041 C 
ATOM     27  N   UNL     1       3.483  -0.660  -5.158  0.00  0.00    -0.670 NA
ATOM     28  H   UNL     1       3.280   0.065  -4.486  0.00  0.00    +0.343 HD
ATOM     29  C   UNL     1       3.516  -1.982  -4.513  0.00  0.00    +0.171 C 
ATOM     30  C   UNL     1       3.627  -3.075  -5.578  0.00  0.00    +0.032 C 
ATOM     31  C   UNL     1       2.223  -2.168  -3.720  0.00  0.00    +0.052 C 
ATOM     32  C   UNL     1       1.034  -1.849  -4.590  0.00  0.00    -0.029 A 
ENDROOT
BRANCH  16  15
ATOM      1  C   UNL     1      -1.024   1.142  -0.415  0.00  0.00    +0.092 C 
ATOM      2  C   UNL     1      -0.920  -0.361  -0.457  0.00  0.00    -0.020 A 
ATOM      3  C   UNL     1      -0.699  -0.986  -1.648  0.00  0.00    -0.045 A 
ATOM      4  C   UNL     1      -0.601  -2.384  -1.698  0.00  0.00    +0.045 A 
ATOM      5  C   UNL     1      -0.734  -3.136  -0.506  0.00  0.00    -0.105 A 
ATOM      6  C   UNL     1      -0.635  -4.540  -0.556  0.00  0.00    +0.177 A 
ATOM      9  C   UNL     1      -0.410  -5.170  -1.761  0.00  0.00    -0.107 A 
ATOM     10  C   UNL     1      -0.278  -4.438  -2.935  0.00  0.00    +0.002 A 
ATOM     11  C   UNL     1      -0.032  -5.156  -4.237  0.00  0.00    +0.095 C 
ATOM     12  C   UNL     1      -0.964  -2.465   0.711  0.00  0.00    +0.176 A 
ATOM     15  C   UNL     1      -0.370  -3.057  -2.922  0.00  0.00    -0.090 A 
ATOM     33  C   UNL     1      -1.048  -1.090   0.722  0.00  0.00    -0.113 A 
BRANCH   6   7
ATOM      7  O   UNL     1      -0.761  -5.272   0.581  0.00  0.00    -0.290 OA
ATOM      8  C   UNL     1      -0.650  -6.691   0.454  0.00  0.00    +0.239 C 
ENDBRANCH   6   7
BRANCH  12  13
ATOM     13  O   UNL     1      -1.095  -3.168   1.866  0.00  0.00    -0.290 OA
ATOM     14  C   UNL     1      -1.326  -2.417   3.059  0.00  0.00    +0.239 C 
ENDBRANCH  12  13
ENDBRANCH  16  15
BRANCH  17  18
ATOM     18  O   UNL     1      -2.585  -2.422  -4.551  0.00  0.00    -0.488 OA
ATOM     19  H   UNL     1      -3.054  -1.790  -3.988  0.00  0.00    +0.390 HD
ENDBRANCH  17  18
BRANCH  21  22
ATOM     22  O   UNL     1       0.171  -0.155  -7.686  0.00  0.00    -0.491 OA
ATOM     23  H   UNL     1       0.011   0.794  -7.590  0.00  0.00    +0.391 HD
ENDBRANCH  21  22
TORSDOF 5
