REMARK  Name = ZINC95485889
REMARK  16 active torsions:
REMARK  status: ('A' for Active; 'I' for Inactive)
REMARK    1  A    between atoms: C1_1  and  N1_2
REMARK    2  A    between atoms: C6_7  and  O6_49
REMARK    3  A    between atoms: C7_8  and  C18_21
REMARK    4  A    between atoms: C10_11  and  C11_13
REMARK    5  A    between atoms: C11_13  and  C12_14
REMARK    6  A    between atoms: C15_17  and  O1_20
REMARK    7  A    between atoms: C18_21  and  C19_22
REMARK    8  A    between atoms: C23_26  and  O3_30
REMARK    9  A    between atoms: C24_27  and  O2_28
REMARK   10  A    between atoms: O2_28  and  C25_29
REMARK   11  A    between atoms: O3_30  and  C26_31
REMARK   12  A    between atoms: C30_36  and  O5_47
REMARK   13  A    between atoms: C31_37  and  O4_46
REMARK   14  A    between atoms: N2_44  and  C37_45
REMARK   15  A    between atoms: O5_47  and  C38_48
REMARK   16  A    between atoms: O6_49  and  C39_50
REMARK                            x       y       z     vdW  Elec       q    Type
REMARK                         _______ _______ _______ _____ _____    ______ ____
ROOT
ATOM     12  C   UNL     1       1.690  -4.470   4.123  0.00  0.00    -0.061 A 
ATOM     13  C   UNL     1       0.791  -3.907   5.030  0.00  0.00    -0.050 A 
ATOM     14  C   UNL     1      -0.002  -4.711   5.800  0.00  0.00    -0.113 A 
ATOM     15  C   UNL     1      -1.027  -4.249   6.784  0.00  0.00    +0.298 C 
ATOM     16  C   UNL     1      -1.976  -3.214   6.284  0.00  0.00    -0.101 A 
ATOM     17  C   UNL     1      -3.311  -3.457   6.049  0.00  0.00    -0.011 A 
ATOM     18  C   UNL     1      -4.128  -2.426   5.608  0.00  0.00    +0.125 A 
ATOM     21  C   UNL     1      -3.603  -1.152   5.406  0.00  0.00    +0.115 A 
ATOM     24  C   UNL     1      -2.253  -0.915   5.636  0.00  0.00    +0.060 A 
ATOM     25  C   UNL     1      -1.454  -1.945   6.060  0.00  0.00    -0.105 A 
ATOM     26  C   UNL     1       0.026  -1.826   6.278  0.00  0.00    +0.074 C 
ATOM     27  C   UNL     1       0.396  -2.440   7.620  0.00  0.00    +0.259 C 
ATOM     28  N   UNL     1      -0.296  -3.666   7.926  0.00  0.00    -0.377 N 
ATOM     29  H   UNL     1       0.389  -4.334   8.248  0.00  0.00    +0.425 HD
ATOM     30  C   UNL     1      -1.248  -3.412   9.016  0.00  0.00    +0.317 C 
ATOM     31  C   UNL     1       0.116  -6.100   5.671  0.00  0.00    -0.054 A 
ATOM     32  C   UNL     1       1.004  -6.663   4.779  0.00  0.00    +0.117 A 
ATOM     35  C   UNL     1       0.766  -2.415   5.105  0.00  0.00    +0.105 C 
ATOM     36  C   UNL     1       1.797  -5.839   3.986  0.00  0.00    +0.123 A 
ENDROOT
BRANCH  18  19
ATOM     19  O   UNL     1      -5.447  -2.660   5.373  0.00  0.00    -0.294 OA
ATOM     20  C   UNL     1      -5.920  -3.989   5.600  0.00  0.00    +0.250 C 
ENDBRANCH  18  19
BRANCH  21  22
ATOM     22  O   UNL     1      -4.410  -0.142   4.985  0.00  0.00    -0.477 OA
ATOM     23  H   UNL     1      -4.823   0.358   5.703  0.00  0.00    +0.395 HD
ENDBRANCH  21  22
BRANCH  32  33
ATOM     33  O   UNL     1       1.100  -8.015   4.671  0.00  0.00    -0.297 OA
ATOM     34  C   UNL     1       0.249  -8.796   5.514  0.00  0.00    +0.245 C 
ENDBRANCH  32  33
BRANCH  36  37
ATOM     37  O   UNL     1       2.670  -6.375   3.092  0.00  0.00    -0.295 OA
ATOM     38  C   UNL     1       3.992  -6.650   3.560  0.00  0.00    +0.229 C 
ENDBRANCH  36  37
BRANCH  12  11
ATOM     11  C   UNL     1       2.552  -3.569   3.277  0.00  0.00    +0.146 C 
BRANCH  11  10
ATOM      1  C   UNL     1      -2.202   0.230  -0.911  0.00  0.00    +0.191 C 
ATOM      2  N   UNL     1      -1.378  -0.971  -0.723  0.00  0.00    -0.524 NA
ATOM      3  C   UNL     1      -0.577  -1.254  -1.925  0.00  0.00    +0.176 C 
ATOM      4  C   UNL     1      -0.035  -2.680  -1.822  0.00  0.00    +0.085 C 
ATOM      5  C   UNL     1       0.628  -2.883  -0.484  0.00  0.00    -0.015 A 
ATOM      6  C   UNL     1       1.482  -3.964  -0.328  0.00  0.00    -0.084 A 
ATOM      7  C   UNL     1       2.108  -4.190   0.887  0.00  0.00    +0.151 A 
ATOM     10  C   UNL     1       1.877  -3.329   1.950  0.00  0.00    -0.122 A 
ATOM     39  C   UNL     1       1.029  -2.254   1.791  0.00  0.00    +0.047 A 
ATOM     40  C   UNL     1       0.404  -2.026   0.573  0.00  0.00    -0.103 A 
ATOM     41  C   UNL     1      -0.506  -0.832   0.447  0.00  0.00    +0.187 C 
BRANCH   7   8
ATOM      8  O   UNL     1       2.944  -5.251   1.037  0.00  0.00    -0.288 OA
ATOM      9  C   UNL     1       3.133  -6.094  -0.102  0.00  0.00    +0.232 C 
ENDBRANCH   7   8
BRANCH  41  42
ATOM     42  C   UNL     1      -1.367  -0.718   1.707  0.00  0.00    +0.076 C 
BRANCH  42  43
ATOM     43  C   UNL     1      -2.275  -1.917   1.806  0.00  0.00    -0.061 A 
ATOM     44  C   UNL     1      -3.524  -1.886   1.215  0.00  0.00    +0.050 A 
ATOM     45  C   UNL     1      -4.359  -2.984   1.304  0.00  0.00    -0.021 A 
ATOM     46  C   UNL     1      -3.941  -4.117   1.987  0.00  0.00    +0.098 A 
ATOM     49  C   UNL     1      -2.687  -4.145   2.578  0.00  0.00    -0.036 A 
ATOM     50  C   UNL     1      -1.854  -3.047   2.481  0.00  0.00    +0.026 A 
BRANCH  46  47
ATOM     47  O   UNL     1      -4.760  -5.198   2.076  0.00  0.00    -0.506 OA
ATOM     48  H   UNL     1      -4.653  -5.833   1.355  0.00  0.00    +0.389 HD
ENDBRANCH  46  47
ENDBRANCH  42  43
ENDBRANCH  41  42
ENDBRANCH  11  10
ENDBRANCH  12  11
TORSDOF 10
