REMARK  Name = ZINC05430812
REMARK  12 active torsions:
REMARK  status: ('A' for Active; 'I' for Inactive)
REMARK    1  A    between atoms: C1_1  and  C2_2
REMARK    2  A    between atoms: C2_2  and  C24_30
REMARK    3  A    between atoms: C3_3  and  C4_4
REMARK    4  A    between atoms: C4_4  and  C5_5
REMARK    5  A    between atoms: C6_6  and  O6_29
REMARK    6  A    between atoms: C10_10  and  O1_11
REMARK    7  A    between atoms: C13_14  and  C19_23
REMARK    8  A    between atoms: C14_15  and  O4_21
REMARK    9  A    between atoms: O4_21  and  C18_22
REMARK   10  A    between atoms: C19_23  and  C20_24
REMARK   11  A    between atoms: C21_25  and  C22_26
REMARK   12  A    between atoms: C21_25  and  C23_27
REMARK                            x       y       z     vdW  Elec       q    Type
REMARK                         _______ _______ _______ _____ _____    ______ ____
ROOT
ATOM      6  C   UNL     1      -1.045  -0.278   3.356  0.00  0.00    -0.182 A 
ATOM      7  C   UNL     1      -2.430  -0.316   3.219  0.00  0.00    +0.187 A 
ATOM     10  C   UNL     1      -3.184  -1.253   3.910  0.00  0.00    -0.049 A 
ATOM     11  C   UNL     1      -2.563  -2.166   4.747  0.00  0.00    +0.194 A 
ATOM     12  C   UNL     1      -1.162  -2.133   4.891  0.00  0.00    -0.227 A 
ATOM     13  C   UNL     1      -0.526  -3.064   5.746  0.00  0.00    +0.380 A 
ATOM     14  O   UNL     1       0.814  -3.058   5.902  0.00  0.00    -0.549 OA
ATOM     15  C   UNL     1      -1.329  -4.000   6.430  0.00  0.00    -0.320 A 
ATOM     16  C   UNL     1      -0.743  -4.947   7.293  0.00  0.00    +0.048 A 
ATOM     22  C   UNL     1      -1.526  -5.845   7.949  0.00  0.00    -0.064 A 
ATOM     25  C   UNL     1      -2.927  -5.832   7.768  0.00  0.00    +0.328 A 
ATOM     26  C   UNL     1      -3.518  -4.897   6.914  0.00  0.00    -0.181 A 
ATOM     27  O   UNL     1      -3.688  -6.715   8.414  0.00  0.00    -0.645 OA
ATOM     28  C   UNL     1      -2.730  -3.981   6.243  0.00  0.00    +0.201 A 
ATOM     29  O   UNL     1      -3.300  -3.076   5.419  0.00  0.00    -0.227 OA
ATOM     30  C   UNL     1      -0.405  -1.181   4.181  0.00  0.00    +0.224 A 
ENDROOT
BRANCH   7   8
ATOM      8  O   UNL     1      -3.048   0.574   2.402  0.00  0.00    -0.487 OA
ATOM      9  H   UNL     1      -3.145   0.268   1.490  0.00  0.00    +0.394 HD
ENDBRANCH   7   8
BRANCH  22  23
ATOM     23  O   UNL     1      -0.958  -6.759   8.782  0.00  0.00    -0.314 OA
ATOM     24  C   UNL     1      -1.051  -8.132   8.398  0.00  0.00    +0.191 C 
ENDBRANCH  22  23
BRANCH  30  31
ATOM     31  O   UNL     1       0.945  -1.147   4.310  0.00  0.00    -0.463 OA
ATOM     32  H   UNL     1       1.258  -0.576   5.024  0.00  0.00    +0.395 HD
ENDBRANCH  30  31
BRANCH   6   5
ATOM      5  C   UNL     1      -0.243   0.748   2.598  0.00  0.00    +0.127 C 
BRANCH   5   4
ATOM      1  C   UNL     1      -0.851   2.166   0.239  0.00  0.00    +0.073 C 
ATOM      2  C   UNL     1      -0.172   0.823   0.159  0.00  0.00    -0.143 C 
ATOM      3  C   UNL     1       0.136   0.214  -1.185  0.00  0.00    +0.070 C 
ATOM      4  C   UNL     1       0.151   0.186   1.257  0.00  0.00    -0.039 C 
ENDBRANCH   5   4
ENDBRANCH   6   5
BRANCH  16  17
ATOM     17  C   UNL     1       0.751  -4.965   7.489  0.00  0.00    +0.121 C 
BRANCH  17  18
ATOM     18  C   UNL     1       1.136  -3.930   8.515  0.00  0.00    +0.001 C 
ATOM     19  C   UNL     1       1.752  -4.293   9.612  0.00  0.00    -0.169 C 
ATOM     20  C   UNL     1       2.216  -3.249  10.596  0.00  0.00    +0.059 C 
ATOM     21  C   UNL     1       1.998  -5.753   9.891  0.00  0.00    +0.067 C 
ENDBRANCH  17  18
ENDBRANCH  16  17
TORSDOF 7
