REMARK  Name = ZINC95486316
REMARK  8 active torsions:
REMARK  status: ('A' for Active; 'I' for Inactive)
REMARK    1  A    between atoms: C1_1  and  C2_2
REMARK    2  A    between atoms: C7_8  and  C12_16
REMARK    3  A    between atoms: C8_9  and  O1_15
REMARK    4  A    between atoms: C10_11  and  C11_14
REMARK    5  A    between atoms: C17_21  and  O4_29
REMARK    6  A    between atoms: C19_23  and  O3_27
REMARK    7  A    between atoms: C21_25  and  O2_26
REMARK    8  A    between atoms: O3_27  and  C22_28
REMARK                            x       y       z     vdW  Elec       q    Type
REMARK                         _______ _______ _______ _____ _____    ______ ____
ROOT
ATOM      8  C   UNL     1      -1.541  -6.237   0.882  0.00  0.00    -0.100 A 
ATOM      9  C   UNL     1      -1.975  -6.760   2.123  0.00  0.00    +0.030 A 
ATOM     10  C   UNL     1      -2.375  -5.911   3.166  0.00  0.00    +0.011 A 
ATOM     11  C   UNL     1      -2.789  -6.438   4.352  0.00  0.00    +0.049 A 
ATOM     12  C   UNL     1      -2.823  -7.815   4.551  0.00  0.00    -0.027 A 
ATOM     13  C   UNL     1      -2.438  -8.680   3.551  0.00  0.00    +0.144 A 
ATOM     16  C   UNL     1      -2.005  -8.162   2.314  0.00  0.00    -0.106 A 
ATOM     17  C   UNL     1      -1.605  -9.017   1.267  0.00  0.00    +0.177 A 
ATOM     20  C   UNL     1      -1.187  -8.486   0.068  0.00  0.00    -0.117 A 
ATOM     21  C   UNL     1      -1.157  -7.107  -0.131  0.00  0.00    +0.167 A 
ENDROOT
BRANCH   8   7
ATOM      1  C   UNL     1      -0.019   1.526   0.010  0.00  0.00    +0.036 C 
ATOM      2  C   UNL     1       0.002  -0.004   0.002  0.00  0.00    +0.124 C 
ATOM      3  C   UNL     1      -1.431  -0.537   0.023  0.00  0.00    +0.092 C 
ATOM      4  C   UNL     1      -1.422  -2.027   0.256  0.00  0.00    -0.050 A 
ATOM      5  C   UNL     1      -2.571  -2.747  -0.044  0.00  0.00    -0.001 A 
ATOM      6  C   UNL     1      -2.618  -4.110   0.154  0.00  0.00    +0.044 A 
ATOM      7  C   UNL     1      -1.502  -4.774   0.662  0.00  0.00    -0.057 A 
ATOM     24  C   UNL     1      -0.346  -4.048   0.962  0.00  0.00    +0.121 A 
ATOM     27  C   UNL     1      -0.311  -2.674   0.755  0.00  0.00    -0.095 A 
ATOM     28  C   UNL     1       0.960  -1.934   1.082  0.00  0.00    +0.228 C 
ATOM     29  C   UNL     1       1.984  -2.172  -0.029  0.00  0.00    -0.002 C 
ATOM     30  N   UNL     1       0.705  -0.496   1.198  0.00  0.00    -0.675 NA
ATOM     31  H   UNL     1       1.562   0.015   1.349  0.00  0.00    +0.347 HD
BRANCH  24  25
ATOM     25  O   UNL     1       0.746  -4.686   1.458  0.00  0.00    -0.486 OA
ATOM     26  H   UNL     1       1.358  -5.003   0.779  0.00  0.00    +0.381 HD
ENDBRANCH  24  25
ENDBRANCH   8   7
BRANCH  13  14
ATOM     14  O   UNL     1      -2.475 -10.022   3.755  0.00  0.00    -0.480 OA
ATOM     15  H   UNL     1      -3.316 -10.434   3.514  0.00  0.00    +0.392 HD
ENDBRANCH  13  14
BRANCH  17  18
ATOM     18  O   UNL     1      -1.631 -10.363   1.442  0.00  0.00    -0.292 OA
ATOM     19  C   UNL     1      -1.211 -11.169   0.339  0.00  0.00    +0.242 C 
ENDBRANCH  17  18
BRANCH  21  22
ATOM     22  O   UNL     1      -0.745  -6.609  -1.326  0.00  0.00    -0.489 OA
ATOM     23  H   UNL     1       0.206  -6.442  -1.376  0.00  0.00    +0.388 HD
ENDBRANCH  21  22
TORSDOF 5
