REMARK  Name = ZINC95486346
REMARK  11 active torsions:
REMARK  status: ('A' for Active; 'I' for Inactive)
REMARK    1  A    between atoms: C1_1  and  O1_2
REMARK    2  A    between atoms: O1_2  and  C2_3
REMARK    3  A    between atoms: C7_8  and  O2_9
REMARK    4  A    between atoms: C12_15  and  O6_27
REMARK    5  A    between atoms: C13_16  and  O4_24
REMARK    6  A    between atoms: C14_17  and  O3_22
REMARK    7  A    between atoms: O3_22  and  C18_23
REMARK    8  A    between atoms: O4_24  and  C19_25
REMARK    9  A    between atoms: C19_25  and  O5_26
REMARK   10  A    between atoms: O6_27  and  C20_28
REMARK   11  A    between atoms: C20_28  and  O7_29
REMARK                            x       y       z     vdW  Elec       q    Type
REMARK                         _______ _______ _______ _____ _____    ______ ____
ROOT
ATOM      3  C   UNL     1      -0.536  -0.307   1.862  0.00  0.00    +0.098 A 
ATOM      4  C   UNL     1       0.300   0.403   2.706  0.00  0.00    -0.018 A 
ATOM      5  C   UNL     1       1.211  -0.276   3.508  0.00  0.00    -0.017 A 
ATOM      6  C   UNL     1       1.262  -1.669   3.484  0.00  0.00    -0.090 A 
ATOM      7  C   UNL     1       2.203  -2.396   4.406  0.00  0.00    +0.109 C 
ATOM      8  C   UNL     1       3.510  -1.622   4.558  0.00  0.00    +0.236 C 
ATOM      9  C   UNL     1       3.244  -0.192   4.951  0.00  0.00    -0.087 A 
ATOM     10  C   UNL     1       4.099   0.479   5.798  0.00  0.00    -0.083 A 
ATOM     11  C   UNL     1       5.343  -0.156   6.351  0.00  0.00    +0.055 C 
ATOM     12  C   UNL     1       5.592  -1.541   5.777  0.00  0.00    +0.224 C 
ATOM     13  C   UNL     1       3.823   1.811   6.127  0.00  0.00    +0.086 A 
ATOM     16  C   UNL     1       2.713   2.462   5.609  0.00  0.00    +0.078 A 
ATOM     21  C   UNL     1       1.859   1.789   4.746  0.00  0.00    +0.109 A 
ATOM     26  N   UNL     1       4.326  -2.257   5.602  0.00  0.00    -0.673 NA
ATOM     27  H   UNL     1       3.817  -2.320   6.471  0.00  0.00    +0.346 HD
ATOM     28  C   UNL     1       0.432  -2.373   2.636  0.00  0.00    +0.038 A 
ATOM     29  C   UNL     1       2.125   0.460   4.415  0.00  0.00    -0.047 A 
ATOM     30  C   UNL     1      -0.470  -1.698   1.828  0.00  0.00    +0.084 A 
ENDROOT
BRANCH   3   2
ATOM      1  C   UNL     1      -1.438   1.778   1.160  0.00  0.00    +0.239 C 
ATOM      2  O   UNL     1      -1.426   0.352   1.072  0.00  0.00    -0.306 OA
ENDBRANCH   3   2
BRANCH  13  14
ATOM     14  O   UNL     1       4.655   2.471   6.976  0.00  0.00    -0.330 OA
ATOM     15  C   UNL     1       4.360   2.384   8.371  0.00  0.00    +0.232 C 
ENDBRANCH  13  14
BRANCH  30  31
ATOM     31  O   UNL     1      -1.289  -2.395   0.995  0.00  0.00    -0.486 OA
ATOM     32  H   UNL     1      -0.916  -2.552   0.117  0.00  0.00    +0.388 HD
ENDBRANCH  30  31
BRANCH  16  17
ATOM     17  O   UNL     1       2.462   3.757   5.946  0.00  0.00    -0.287 OA
BRANCH  17  18
ATOM     18  C   UNL     1       3.072   4.766   5.138  0.00  0.00    +0.387 C 
BRANCH  18  19
ATOM     19  O   UNL     1       2.384   4.857   3.889  0.00  0.00    -0.582 OA
ATOM     20  H   UNL     1       2.744   5.524   3.289  0.00  0.00    +0.391 HD
ENDBRANCH  18  19
ENDBRANCH  17  18
ENDBRANCH  16  17
BRANCH  21  22
ATOM     22  O   UNL     1       0.772   2.420   4.228  0.00  0.00    -0.290 OA
BRANCH  22  23
ATOM     23  C   UNL     1      -0.413   2.433   5.026  0.00  0.00    +0.379 C 
BRANCH  23  24
ATOM     24  O   UNL     1      -0.266   3.384   6.083  0.00  0.00    -0.573 OA
ATOM     25  H   UNL     1      -1.035   3.445   6.666  0.00  0.00    +0.391 HD
ENDBRANCH  23  24
ENDBRANCH  22  23
ENDBRANCH  21  22
TORSDOF 9
