REMARK  Name = ZINC95486293
REMARK  7 active torsions:
REMARK  status: ('A' for Active; 'I' for Inactive)
REMARK    1  A    between atoms: C1_1  and  O1_2
REMARK    2  A    between atoms: O1_2  and  C2_3
REMARK    3  A    between atoms: C5_6  and  O2_9
REMARK    4  A    between atoms: O2_9  and  C8_10
REMARK    5  A    between atoms: C9_11  and  O7_23
REMARK    6  A    between atoms: C12_15  and  O6_22
REMARK    7  A    between atoms: C14_17  and  O5_21
REMARK                            x       y       z     vdW  Elec       q    Type
REMARK                         _______ _______ _______ _____ _____    ______ ____
ROOT
ATOM      8  C   UNL     1       2.557  -3.785  -4.250  0.00  0.00    +0.219 A 
ATOM      9  C   UNL     1       3.252  -4.395  -5.246  0.00  0.00    -0.066 A 
ATOM     12  C   UNL     1       3.385  -5.803  -5.243  0.00  0.00    +0.439 A 
ATOM     13  C   UNL     1       2.750  -6.541  -4.139  0.00  0.00    -0.259 A 
ATOM     14  C   UNL     1       2.830  -7.937  -4.056  0.00  0.00    +0.226 A 
ATOM     17  C   UNL     1       2.220  -8.592  -3.003  0.00  0.00    -0.050 A 
ATOM     18  C   UNL     1       1.531  -7.869  -2.035  0.00  0.00    +0.197 A 
ATOM     21  C   UNL     1       1.447  -6.488  -2.111  0.00  0.00    -0.028 A 
ATOM     22  C   UNL     1       2.053  -5.813  -3.160  0.00  0.00    +0.195 A 
ATOM     23  O   UNL     1       4.003  -6.384  -6.122  0.00  0.00    -0.428 OA
ATOM     24  O   UNL     1       1.986  -4.468  -3.246  0.00  0.00    -0.232 OA
ENDROOT
BRANCH   9  10
ATOM     10  O   UNL     1       3.817  -3.654  -6.241  0.00  0.00    -0.444 OA
ATOM     11  H   UNL     1       3.670  -2.702  -6.155  0.00  0.00    +0.400 HD
ENDBRANCH   9  10
BRANCH  14  15
ATOM     15  O   UNL     1       3.503  -8.641  -5.002  0.00  0.00    -0.471 OA
ATOM     16  H   UNL     1       4.439  -8.773  -4.802  0.00  0.00    +0.405 HD
ENDBRANCH  14  15
BRANCH  18  19
ATOM     19  O   UNL     1       0.935  -8.523  -1.005  0.00  0.00    -0.486 OA
ATOM     20  H   UNL     1       1.503  -8.642  -0.232  0.00  0.00    +0.404 HD
ENDBRANCH  18  19
BRANCH   8   7
ATOM      7  O   UNL     1       2.440  -2.439  -4.269  0.00  0.00    -0.215 OA
BRANCH   7   6
ATOM      3  C   UNL     1       0.604  -0.607  -1.058  0.00  0.00    +0.145 A 
ATOM      4  C   UNL     1       1.908  -1.064  -0.943  0.00  0.00    -0.057 A 
ATOM      5  C   UNL     1       2.523  -1.677  -2.017  0.00  0.00    +0.063 A 
ATOM      6  C   UNL     1       1.835  -1.836  -3.211  0.00  0.00    +0.023 A 
ATOM     25  C   UNL     1       0.530  -1.379  -3.326  0.00  0.00    +0.079 A 
ATOM     26  C   UNL     1      -0.086  -0.770  -2.250  0.00  0.00    +0.006 A 
BRANCH   3   2
ATOM      1  C   UNL     1       0.768   0.132   1.196  0.00  0.00    +0.247 C 
ATOM      2  O   UNL     1      -0.001  -0.003  -0.000  0.00  0.00    -0.311 OA
ENDBRANCH   3   2
ENDBRANCH   7   6
ENDBRANCH   8   7
TORSDOF 6
