REMARK  Name = ZINC95486070
REMARK  0 active torsions:
REMARK  status: ('A' for Active; 'I' for Inactive)
REMARK                            x       y       z     vdW  Elec       q    Type
REMARK                         _______ _______ _______ _____ _____    ______ ____
ROOT
ATOM      1  C   UNL     1      -0.017   1.378   0.010  0.00  0.00    +0.015 A 
ATOM      2  C   UNL     1       1.167   2.094   0.002  0.00  0.00    +0.058 A 
ATOM      3  C   UNL     1       2.376   1.424  -0.025  0.00  0.00    +0.017 A 
ATOM      4  C   UNL     1       2.395   0.040  -0.030  0.00  0.00    +0.144 A 
ATOM      5  C   UNL     1       1.207  -0.682  -0.005  0.00  0.00    -0.122 A 
ATOM      6  C   UNL     1       1.219  -2.187   0.048  0.00  0.00    +0.076 C 
ATOM      7  C   UNL     1       1.261  -2.601   1.538  0.00  0.00    +0.083 C 
ATOM      8  C   UNL     1       2.536  -2.072   2.190  0.00  0.00    +0.254 C 
ATOM      9  N   UNL     1       3.751  -2.513   1.490  0.00  0.00    -0.370 N 
ATOM     10  H   UNL     1       4.555  -2.080   1.919  0.00  0.00    +0.421 HD
ATOM     11  C   UNL     1       3.901  -3.970   1.591  0.00  0.00    +0.319 C 
ATOM     12  C   UNL     1       5.107  -4.412   0.808  0.00  0.00    -0.016 C 
ATOM     13  C   UNL     1       5.525  -3.777  -0.252  0.00  0.00    +0.044 C 
ATOM     14  C   UNL     1       4.861  -2.558  -0.782  0.00  0.00    -0.025 C 
ATOM     15  C   UNL     1       5.764  -1.316  -0.735  0.00  0.00    +0.112 C 
ATOM     16  C   UNL     1       4.809  -0.176  -0.433  0.00  0.00    +0.519 C 
ATOM     17  O   UNL     1       5.092   1.003  -0.483  0.00  0.00    -0.458 OA
ATOM     18  C   UNL     1       4.263  -2.756  -2.183  0.00  0.00    +0.081 C 
ATOM     19  C   UNL     1       2.702  -2.498  -2.073  0.00  0.00    +0.078 C 
ATOM     20  C   UNL     1       3.683  -2.120   0.103  0.00  0.00    +0.237 C 
ATOM     21  C   UNL     1       2.452  -2.784  -0.593  0.00  0.00    +0.030 C 
ATOM     22  N   UNL     1       3.601  -0.668  -0.102  0.00  0.00    -0.551 N 
ATOM     23  C   UNL     1       0.002  -0.004   0.002  0.00  0.00    +0.054 A 
ENDROOT
TORSDOF 0
