REMARK  Name = ZINC95486020
REMARK  12 active torsions:
REMARK  status: ('A' for Active; 'I' for Inactive)
REMARK    1  A    between atoms: C1_1  and  C2_2
REMARK    2  A    between atoms: C8_8  and  O4_34
REMARK    3  A    between atoms: C10_10  and  O3_33
REMARK    4  A    between atoms: C11_11  and  C12_12
REMARK    5  A    between atoms: C13_14  and  O2_31
REMARK    6  A    between atoms: C17_19  and  C21_26
REMARK    7  A    between atoms: N1_21  and  C20_25
REMARK    8  A    between atoms: C18_22  and  C19_24
REMARK    9  A    between atoms: C23_28  and  O1_29
REMARK   10  A    between atoms: O1_29  and  C24_30
REMARK   11  A    between atoms: O2_31  and  C25_32
REMARK   12  A    between atoms: O4_34  and  C26_35
REMARK                            x       y       z     vdW  Elec       q    Type
REMARK                         _______ _______ _______ _____ _____    ______ ____
ROOT
ATOM     16  C   UNL     1      -0.440   0.081   2.445  0.00  0.00    +0.090 C 
ATOM     17  C   UNL     1       0.844   0.086   3.272  0.00  0.00    +0.244 C 
ATOM     20  C   UNL     1       1.134  -1.305   3.789  0.00  0.00    -0.217 C 
ATOM     21  C   UNL     1       0.132  -2.085   4.170  0.00  0.00    +0.016 C 
ATOM     22  C   UNL     1      -1.256  -1.611   4.033  0.00  0.00    -0.199 C 
ATOM     23  C   UNL     1       0.362  -3.468   4.725  0.00  0.00    +0.120 C 
ATOM     24  C   UNL     1       1.773  -3.943   4.380  0.00  0.00    +0.167 C 
ATOM     25  C   UNL     1       2.087  -5.227   5.149  0.00  0.00    +0.092 C 
ATOM     26  N   UNL     1       2.724  -2.888   4.766  0.00  0.00    -0.380 N 
ATOM     27  H   UNL     1       2.531  -2.587   5.709  0.00  0.00    +0.424 HD
ATOM     28  C   UNL     1       4.096  -3.407   4.682  0.00  0.00    +0.322 C 
ATOM     29  C   UNL     1       2.570  -1.757   3.847  0.00  0.00    +0.223 C 
ATOM     30  C   UNL     1       3.443  -0.596   4.328  0.00  0.00    +0.089 C 
ATOM     31  C   UNL     1      -1.541  -0.585   3.230  0.00  0.00    +0.233 C 
ENDROOT
BRANCH  16  15
ATOM      1  C   UNL     1       1.442   1.092   0.517  0.00  0.00    +0.095 C 
ATOM      2  C   UNL     1       0.701  -0.188   0.230  0.00  0.00    -0.052 A 
ATOM      3  C   UNL     1       0.936  -0.852  -0.936  0.00  0.00    +0.017 A 
ATOM      4  C   UNL     1       0.251  -2.047  -1.213  0.00  0.00    +0.003 A 
ATOM      5  C   UNL     1       0.475  -2.752  -2.408  0.00  0.00    -0.020 A 
ATOM      6  C   UNL     1      -0.202  -3.908  -2.651  0.00  0.00    +0.069 A 
ATOM      7  C   UNL     1      -1.120  -4.410  -1.732  0.00  0.00    -0.092 A 
ATOM      8  C   UNL     1      -1.367  -3.747  -0.551  0.00  0.00    +0.152 A 
ATOM     11  C   UNL     1      -0.681  -2.549  -0.272  0.00  0.00    -0.104 A 
ATOM     12  C   UNL     1      -0.904  -1.842   0.926  0.00  0.00    +0.161 A 
ATOM     15  C   UNL     1      -0.208  -0.677   1.163  0.00  0.00    -0.121 A 
BRANCH   8   9
ATOM      9  O   UNL     1      -2.266  -4.245   0.338  0.00  0.00    -0.301 OA
ATOM     10  C   UNL     1      -2.922  -5.464  -0.016  0.00  0.00    +0.245 C 
ENDBRANCH   8   9
BRANCH  12  13
ATOM     13  O   UNL     1      -1.793  -2.307   1.840  0.00  0.00    -0.464 OA
ATOM     14  H   UNL     1      -1.434  -2.986   2.428  0.00  0.00    +0.385 HD
ENDBRANCH  12  13
ENDBRANCH  16  15
BRANCH  17  18
ATOM     18  O   UNL     1       0.693   0.979   4.377  0.00  0.00    -0.369 OA
ATOM     19  C   UNL     1       1.174   2.301   4.127  0.00  0.00    +0.210 C 
ENDBRANCH  17  18
BRANCH  31  32
ATOM     32  O   UNL     1      -2.816  -0.143   3.120  0.00  0.00    -0.297 OA
ATOM     33  C   UNL     1      -3.808  -0.822   3.894  0.00  0.00    +0.256 C 
ENDBRANCH  31  32
TORSDOF 5
