REMARK  Name = ZINC33832344
REMARK  2 active torsions:
REMARK  status: ('A' for Active; 'I' for Inactive)
REMARK    1  A    between atoms: C9_12  and  O4_25
REMARK    2  A    between atoms: C10_14  and  O3_24
REMARK                            x       y       z     vdW  Elec       q    Type
REMARK                         _______ _______ _______ _____ _____    ______ ____
ROOT
ATOM      1  C   UNL     1      -0.017   1.380   0.010  0.00  0.00    +0.040 A 
ATOM      2  C   UNL     1       1.205   2.053   0.002  0.00  0.00    -0.097 A 
ATOM      3  C   UNL     1       2.400   1.357  -0.034  0.00  0.00    -0.062 A 
ATOM      4  C   UNL     1       3.691   2.093  -0.143  0.00  0.00    +0.028 C 
ATOM      5  C   UNL     1       4.894   1.415   0.490  0.00  0.00    +0.200 C 
ATOM      8  C   UNL     1       6.176   2.190   0.194  0.00  0.00    +0.179 C 
ATOM     11  C   UNL     1       5.953   3.618  -0.214  0.00  0.00    -0.060 C 
ATOM     12  C   UNL     1       4.801   4.199  -0.144  0.00  0.00    -0.113 C 
ATOM     13  C   UNL     1       4.277   5.535  -0.602  0.00  0.00    +0.089 C 
ATOM     14  C   UNL     1       2.790   5.229  -0.913  0.00  0.00    +0.233 C 
ATOM     15  N   UNL     1       2.422   4.201   0.045  0.00  0.00    -0.643 NA
ATOM     16  C   UNL     1       3.594   3.484   0.496  0.00  0.00    +0.255 C 
ATOM     17  C   UNL     1       2.427  -0.036  -0.017  0.00  0.00    +0.085 A 
ATOM     18  C   UNL     1       1.216  -0.709  -0.004  0.00  0.00    +0.022 A 
ATOM     19  O   UNL     1       0.950  -2.034   0.005  0.00  0.00    -0.305 OA
ATOM     20  C   UNL     1      -0.433  -2.153  -0.389  0.00  0.00    +0.428 C 
ATOM     21  O   UNL     1      -1.017  -0.893   0.003  0.00  0.00    -0.307 OA
ATOM     22  C   UNL     1       1.159   3.559   0.059  0.00  0.00    +0.321 C 
ATOM     23  C   UNL     1       0.002  -0.004   0.002  0.00  0.00    +0.032 A 
ENDROOT
BRANCH   5   6
ATOM      6  O   UNL     1       5.016   0.091  -0.033  0.00  0.00    -0.538 OA
ATOM      7  H   UNL     1       5.764  -0.406   0.325  0.00  0.00    +0.379 HD
ENDBRANCH   5   6
BRANCH   8   9
ATOM      9  O   UNL     1       6.877   1.524  -0.858  0.00  0.00    -0.548 OA
ATOM     10  H   UNL     1       7.707   1.952  -1.109  0.00  0.00    +0.380 HD
ENDBRANCH   8   9
TORSDOF 2
