REMARK  Name = ZINC95486319
REMARK  8 active torsions:
REMARK  status: ('A' for Active; 'I' for Inactive)
REMARK    1  A    between atoms: C1_1  and  C2_2
REMARK    2  A    between atoms: C7_8  and  C12_16
REMARK    3  A    between atoms: C8_9  and  O1_15
REMARK    4  A    between atoms: C10_11  and  C11_14
REMARK    5  A    between atoms: C17_22  and  O3_31
REMARK    6  A    between atoms: C19_24  and  C22_30
REMARK    7  A    between atoms: C21_27  and  O2_29
REMARK    8  A    between atoms: O3_31  and  C23_32
REMARK                            x       y       z     vdW  Elec       q    Type
REMARK                         _______ _______ _______ _____ _____    ______ ____
ROOT
ATOM      1  C   UNL     1      -2.148   1.826   2.543  0.00  0.00    +0.035 C 
ATOM      2  C   UNL     1      -1.813   0.373   2.203  0.00  0.00    +0.124 C 
ATOM      3  C   UNL     1      -3.105  -0.413   1.976  0.00  0.00    +0.089 C 
ATOM      4  C   UNL     1      -2.801  -1.886   1.879  0.00  0.00    -0.053 A 
ATOM      5  C   UNL     1      -3.759  -2.724   1.327  0.00  0.00    -0.016 A 
ATOM      6  C   UNL     1      -3.526  -4.080   1.223  0.00  0.00    +0.078 A 
ATOM      7  C   UNL     1      -2.331  -4.610   1.671  0.00  0.00    -0.101 A 
ATOM     23  C   UNL     1      -1.372  -3.777   2.221  0.00  0.00    +0.110 A 
ATOM     26  C   UNL     1      -1.607  -2.408   2.324  0.00  0.00    -0.101 A 
ATOM     27  C   UNL     1      -0.530  -1.539   2.918  0.00  0.00    +0.228 C 
ATOM     28  C   UNL     1       0.570  -1.315   1.879  0.00  0.00    -0.004 C 
ATOM     29  N   UNL     1      -1.079  -0.241   3.321  0.00  0.00    -0.675 NA
ATOM     30  H   UNL     1      -0.352   0.373   3.657  0.00  0.00    +0.346 HD
ENDROOT
BRANCH   7   8
ATOM      8  C   UNL     1      -2.073  -6.091   1.561  0.00  0.00    +0.111 C 
ATOM      9  C   UNL     1      -3.114  -6.837   2.356  0.00  0.00    -0.024 A 
ATOM     10  C   UNL     1      -3.466  -6.326   3.599  0.00  0.00    -0.023 A 
ATOM     11  C   UNL     1      -4.408  -6.963   4.380  0.00  0.00    +0.038 A 
ATOM     12  C   UNL     1      -5.008  -8.122   3.925  0.00  0.00    -0.085 A 
ATOM     13  C   UNL     1      -4.662  -8.633   2.686  0.00  0.00    +0.125 A 
ATOM     16  C   UNL     1      -3.713  -7.986   1.896  0.00  0.00    -0.090 A 
ATOM     17  C   UNL     1      -3.394  -8.585   0.551  0.00  0.00    +0.044 C 
ATOM     18  C   UNL     1      -4.516  -8.246  -0.432  0.00  0.00    +0.033 C 
ATOM     19  C   UNL     1      -2.073  -8.034   0.017  0.00  0.00    -0.004 C 
ATOM     20  C   UNL     1      -2.123  -6.504   0.092  0.00  0.00    +0.175 C 
BRANCH  13  14
ATOM     14  O   UNL     1      -5.252  -9.772   2.236  0.00  0.00    -0.314 OA
ATOM     15  C   UNL     1      -6.216 -10.385   3.095  0.00  0.00    +0.235 C 
ENDBRANCH  13  14
BRANCH  20  21
ATOM     21  O   UNL     1      -3.335  -6.032  -0.500  0.00  0.00    -0.547 OA
ATOM     22  H   UNL     1      -3.432  -6.260  -1.435  0.00  0.00    +0.374 HD
ENDBRANCH  20  21
ENDBRANCH   7   8
BRANCH  23  24
ATOM     24  O   UNL     1      -0.196  -4.297   2.662  0.00  0.00    -0.492 OA
ATOM     25  H   UNL     1       0.498  -4.327   1.990  0.00  0.00    +0.384 HD
ENDBRANCH  23  24
TORSDOF 4
