REMARK  Name = ZINC95486188
REMARK  20 active torsions:
REMARK  status: ('A' for Active; 'I' for Inactive)
REMARK    1  A    between atoms: C1_1  and  C2_2
REMARK    2  A    between atoms: C5_5  and  C37_48
REMARK    3  A    between atoms: C7_7  and  C13_15
REMARK    4  A    between atoms: C8_8  and  O2_14
REMARK    5  A    between atoms: C10_10  and  O1_12
REMARK    6  A    between atoms: O1_12  and  C12_13
REMARK    7  A    between atoms: C15_17  and  C25_29
REMARK    8  A    between atoms: C18_20  and  C24_28
REMARK    9  A    between atoms: C20_22  and  O4_26
REMARK   10  A    between atoms: C22_24  and  O3_25
REMARK   11  A    between atoms: O4_26  and  C23_27
REMARK   12  A    between atoms: C26_30  and  O6_47
REMARK   13  A    between atoms: C28_32  and  O5_46
REMARK   14  A    between atoms: C32_38  and  C36_45
REMARK   15  A    between atoms: N1_40  and  C35_44
REMARK   16  A    between atoms: C33_41  and  C34_43
REMARK   17  A    between atoms: C41_52  and  O8_55
REMARK   18  A    between atoms: C42_53  and  O7_54
REMARK   19  A    between atoms: C43_56  and  C47_63
REMARK   20  A    between atoms: C44_59  and  C46_62
REMARK                            x       y       z     vdW  Elec       q    Type
REMARK                         _______ _______ _______ _____ _____    ______ ____
ROOT
ATOM      1  C   UNL     1      -0.018   1.503   0.010  0.00  0.00    +0.093 C 
ATOM      2  C   UNL     1       0.002  -0.004   0.002  0.00  0.00    -0.015 A 
ATOM      3  C   UNL     1       0.005  -0.668  -1.188  0.00  0.00    -0.057 A 
ATOM      4  C   UNL     1       0.024  -2.070  -1.208  0.00  0.00    +0.026 A 
ATOM      5  C   UNL     1       0.029  -2.781  -2.434  0.00  0.00    -0.090 A 
ATOM     24  C   UNL     1       0.048  -4.162  -2.425  0.00  0.00    +0.092 A 
ATOM     25  C   UNL     1       0.063  -4.868  -1.216  0.00  0.00    -0.086 A 
ATOM     58  C   UNL     1       0.059  -4.192  -0.002  0.00  0.00    +0.198 A 
ATOM     61  C   UNL     1       0.040  -2.785   0.014  0.00  0.00    -0.108 A 
ATOM     62  C   UNL     1       0.036  -2.073   1.230  0.00  0.00    +0.175 A 
ATOM     65  C   UNL     1       0.023  -0.695   1.209  0.00  0.00    -0.104 A 
ENDROOT
BRANCH   5   6
ATOM      6  C   UNL     1       0.012  -2.046  -3.720  0.00  0.00    -0.025 A 
ATOM      7  C   UNL     1       1.216  -1.687  -4.335  0.00  0.00    -0.066 A 
ATOM      8  C   UNL     1       1.201  -1.003  -5.529  0.00  0.00    -0.123 A 
ATOM      9  C   UNL     1       2.473  -0.589  -6.221  0.00  0.00    +0.232 C 
ATOM     10  C   UNL     1       2.327  -0.820  -7.726  0.00  0.00    +0.097 C 
ATOM     11  N   UNL     1       3.610  -1.368  -5.721  0.00  0.00    -0.504 N 
ATOM     12  H   UNL     1       4.465  -1.010  -6.118  0.00  0.00    +0.431 HD
ATOM     13  H   UNL     1       3.495  -2.337  -5.980  0.00  0.00    +0.428 HD
ATOM     14  C   UNL     1       3.661  -1.253  -4.255  0.00  0.00    +0.173 C 
ATOM     15  C   UNL     1       4.997  -1.797  -3.744  0.00  0.00    +0.095 C 
ATOM     16  C   UNL     1      -0.011  -0.674  -6.122  0.00  0.00    +0.038 A 
ATOM     17  C   UNL     1      -1.209  -1.024  -5.524  0.00  0.00    +0.098 A 
ATOM     20  C   UNL     1       2.511  -2.068  -3.663  0.00  0.00    +0.133 C 
ATOM     21  C   UNL     1      -1.204  -1.717  -4.319  0.00  0.00    +0.127 A 
BRANCH  17  18
ATOM     18  O   UNL     1      -2.388  -0.694  -6.115  0.00  0.00    -0.485 OA
ATOM     19  H   UNL     1      -2.724  -1.366  -6.725  0.00  0.00    +0.402 HD
ENDBRANCH  17  18
BRANCH  21  22
ATOM     22  O   UNL     1      -2.377  -2.068  -3.727  0.00  0.00    -0.478 OA
ATOM     23  H   UNL     1      -2.724  -1.402  -3.118  0.00  0.00    +0.403 HD
ENDBRANCH  21  22
ENDBRANCH   5   6
BRANCH  25  26
ATOM     26  C   UNL     1       0.082  -6.350  -1.231  0.00  0.00    -0.098 A 
ATOM     27  C   UNL     1       1.196  -7.016  -1.753  0.00  0.00    +0.047 A 
ATOM     28  C   UNL     1       1.240  -8.403  -1.778  0.00  0.00    -0.011 A 
ATOM     46  C   UNL     1       0.102  -9.159  -1.251  0.00  0.00    +0.021 A 
ATOM     47  C   UNL     1       0.099 -10.559  -1.253  0.00  0.00    -0.018 A 
ATOM     48  C   UNL     1      -0.974 -11.238  -0.755  0.00  0.00    -0.033 A 
ATOM     49  C   UNL     1      -0.968 -12.745  -0.763  0.00  0.00    +0.091 C 
ATOM     50  C   UNL     1      -2.074 -10.559  -0.240  0.00  0.00    -0.099 A 
ATOM     51  C   UNL     1      -2.107  -9.183  -0.221  0.00  0.00    +0.160 A 
ATOM     54  C   UNL     1      -1.010  -8.457  -0.729  0.00  0.00    -0.103 A 
ATOM     55  C   UNL     1      -1.003  -7.050  -0.722  0.00  0.00    +0.177 A 
BRANCH  28  29
ATOM     29  C   UNL     1       2.408  -9.102  -2.326  0.00  0.00    -0.182 C 
ATOM     30  C   UNL     1       3.305  -9.707  -1.501  0.00  0.00    +0.171 C 
ATOM     33  C   UNL     1       4.487 -10.364  -2.065  0.00  0.00    -0.187 C 
ATOM     34  C   UNL     1       4.891 -10.070  -3.312  0.00  0.00    +0.161 C 
ATOM     37  C   UNL     1       4.134  -9.043  -4.102  0.00  0.00    +0.071 C 
ATOM     38  C   UNL     1       4.344  -9.206  -5.605  0.00  0.00    +0.189 C 
ATOM     39  C   UNL     1       3.808 -10.567  -6.054  0.00  0.00    -0.001 C 
ATOM     40  N   UNL     1       3.619  -8.134  -6.305  0.00  0.00    -0.534 NA
ATOM     41  C   UNL     1       3.900  -8.157  -7.747  0.00  0.00    +0.189 C 
ATOM     42  C   UNL     1       2.176  -8.200  -6.050  0.00  0.00    +0.120 C 
ATOM     43  C   UNL     1       1.479  -7.069  -6.807  0.00  0.00    +0.031 C 
ATOM     44  C   UNL     1       1.895  -8.056  -4.549  0.00  0.00    +0.056 C 
ATOM     45  C   UNL     1       2.635  -9.168  -3.810  0.00  0.00    +0.066 C 
BRANCH  30  31
ATOM     31  O   UNL     1       3.104  -9.701  -0.158  0.00  0.00    -0.465 OA
ATOM     32  H   UNL     1       3.794 -10.156   0.344  0.00  0.00    +0.394 HD
ENDBRANCH  30  31
BRANCH  34  35
ATOM     35  O   UNL     1       5.968 -10.692  -3.848  0.00  0.00    -0.467 OA
ATOM     36  H   UNL     1       6.385 -11.335  -3.259  0.00  0.00    +0.403 HD
ENDBRANCH  34  35
ENDBRANCH  28  29
BRANCH  51  52
ATOM     52  O   UNL     1      -3.186  -8.530   0.284  0.00  0.00    -0.294 OA
ATOM     53  C   UNL     1      -4.257  -9.335   0.781  0.00  0.00    +0.239 C 
ENDBRANCH  51  52
BRANCH  55  56
ATOM     56  O   UNL     1      -2.067  -6.372  -0.218  0.00  0.00    -0.467 OA
ATOM     57  H   UNL     1      -2.752  -6.173  -0.871  0.00  0.00    +0.384 HD
ENDBRANCH  55  56
ENDBRANCH  25  26
BRANCH  58  59
ATOM     59  O   UNL     1       0.073  -4.886   1.164  0.00  0.00    -0.461 OA
ATOM     60  H   UNL     1       0.960  -5.076   1.499  0.00  0.00    +0.390 HD
ENDBRANCH  58  59
BRANCH  62  63
ATOM     63  O   UNL     1       0.051  -2.739   2.414  0.00  0.00    -0.290 OA
ATOM     64  C   UNL     1       0.046  -1.948   3.604  0.00  0.00    +0.246 C 
ENDBRANCH  62  63
TORSDOF 11
