REMARK  Name = ZINC95486344
REMARK  9 active torsions:
REMARK  status: ('A' for Active; 'I' for Inactive)
REMARK    1  A    between atoms: C1_1  and  O1_2
REMARK    2  A    between atoms: O1_2  and  C2_3
REMARK    3  A    between atoms: C7_8  and  O2_9
REMARK    4  A    between atoms: C12_15  and  O5_25
REMARK    5  A    between atoms: C13_16  and  O3_22
REMARK    6  A    between atoms: O3_22  and  C18_23
REMARK    7  A    between atoms: C18_23  and  O4_24
REMARK    8  A    between atoms: O5_25  and  C19_26
REMARK    9  A    between atoms: C19_26  and  O6_27
REMARK                            x       y       z     vdW  Elec       q    Type
REMARK                         _______ _______ _______ _____ _____    ______ ____
ROOT
ATOM      3  C   UNL     1       0.626  -0.619   1.042  0.00  0.00    +0.097 A 
ATOM      4  C   UNL     1       1.201   0.137   2.050  0.00  0.00    -0.020 A 
ATOM      5  C   UNL     1       1.843  -0.497   3.108  0.00  0.00    -0.020 A 
ATOM      6  C   UNL     1       1.882  -1.890   3.170  0.00  0.00    -0.086 A 
ATOM      7  C   UNL     1       2.518  -2.565   4.354  0.00  0.00    +0.106 C 
ATOM      8  C   UNL     1       3.739  -1.781   4.828  0.00  0.00    +0.234 C 
ATOM      9  C   UNL     1       3.391  -0.333   5.057  0.00  0.00    -0.131 A 
ATOM     10  C   UNL     1       3.982   0.384   6.074  0.00  0.00    -0.034 A 
ATOM     11  C   UNL     1       5.014  -0.219   6.986  0.00  0.00    +0.046 C 
ATOM     12  C   UNL     1       5.396  -1.631   6.576  0.00  0.00    +0.222 C 
ATOM     13  C   UNL     1       3.642   1.726   6.244  0.00  0.00    -0.057 A 
ATOM     14  C   UNL     1       2.733   2.348   5.407  0.00  0.00    +0.136 A 
ATOM     19  C   UNL     1       2.144   1.630   4.372  0.00  0.00    +0.069 A 
ATOM     24  N   UNL     1       4.222  -2.358   6.090  0.00  0.00    -0.673 NA
ATOM     25  H   UNL     1       3.489  -2.377   6.783  0.00  0.00    +0.345 HD
ATOM     26  C   UNL     1       1.314  -2.639   2.160  0.00  0.00    +0.037 A 
ATOM     27  C   UNL     1       2.475   0.287   4.196  0.00  0.00    -0.013 A 
ATOM     28  C   UNL     1       0.683  -2.009   1.098  0.00  0.00    +0.085 A 
ENDROOT
BRANCH   3   2
ATOM      1  C   UNL     1      -0.017   1.425   0.010  0.00  0.00    +0.239 C 
ATOM      2  O   UNL     1       0.002  -0.004   0.002  0.00  0.00    -0.306 OA
ENDBRANCH   3   2
BRANCH  28  29
ATOM     29  O   UNL     1       0.122  -2.751   0.106  0.00  0.00    -0.486 OA
ATOM     30  H   UNL     1       0.724  -2.952  -0.623  0.00  0.00    +0.389 HD
ENDBRANCH  28  29
BRANCH  14  15
ATOM     15  O   UNL     1       2.417   3.657   5.596  0.00  0.00    -0.271 OA
BRANCH  15  16
ATOM     16  C   UNL     1       3.061   4.330   6.679  0.00  0.00    +0.392 C 
BRANCH  16  17
ATOM     17  O   UNL     1       4.417   4.611   6.327  0.00  0.00    -0.589 OA
ATOM     18  H   UNL     1       4.916   5.068   7.017  0.00  0.00    +0.399 HD
ENDBRANCH  16  17
ENDBRANCH  15  16
ENDBRANCH  14  15
BRANCH  19  20
ATOM     20  O   UNL     1       1.254   2.233   3.540  0.00  0.00    -0.299 OA
BRANCH  20  21
ATOM     21  C   UNL     1      -0.123   2.184   3.917  0.00  0.00    +0.377 C 
BRANCH  21  22
ATOM     22  O   UNL     1      -0.357   3.103   4.987  0.00  0.00    -0.582 OA
ATOM     23  H   UNL     1      -1.273   3.123   5.295  0.00  0.00    +0.393 HD
ENDBRANCH  21  22
ENDBRANCH  20  21
ENDBRANCH  19  20
TORSDOF 8
