REMARK  Name = ZINC00607911
REMARK  9 active torsions:
REMARK  status: ('A' for Active; 'I' for Inactive)
REMARK    1  A    between atoms: C1_1  and  N1_2
REMARK    2  A    between atoms: C6_7  and  O4_26
REMARK    3  A    between atoms: C7_8  and  O3_24
REMARK    4  A    between atoms: C15_17  and  O2_22
REMARK    5  A    between atoms: C16_18  and  O1_20
REMARK    6  A    between atoms: O1_20  and  C18_21
REMARK    7  A    between atoms: O2_22  and  C19_23
REMARK    8  A    between atoms: O3_24  and  C20_25
REMARK    9  A    between atoms: O4_26  and  C21_27
REMARK                            x       y       z     vdW  Elec       q    Type
REMARK                         _______ _______ _______ _____ _____    ______ ____
ROOT
ATOM      1  C   UNL     1       0.662   1.496  -0.055  0.00  0.00    +0.196 C 
ATOM      2  N   UNL     1       0.448   0.043  -0.025  0.00  0.00    -0.535 NA
ATOM      3  C   UNL     1       0.837  -0.571  -1.295  0.00  0.00    +0.177 C 
ATOM      4  C   UNL     1       0.385  -2.021  -1.355  0.00  0.00    +0.090 C 
ATOM      5  C   UNL     1       0.526  -2.720  -0.033  0.00  0.00    -0.023 A 
ATOM      6  C   UNL     1       0.290  -4.090   0.009  0.00  0.00    -0.069 A 
ATOM      7  C   UNL     1       0.425  -4.797   1.189  0.00  0.00    +0.119 A 
ATOM     10  C   UNL     1       0.796  -4.134   2.353  0.00  0.00    +0.068 A 
ATOM     13  C   UNL     1       1.012  -2.758   2.318  0.00  0.00    -0.005 A 
ATOM     14  C   UNL     1       1.402  -2.030   3.549  0.00  0.00    -0.050 A 
ATOM     15  C   UNL     1       1.894  -2.719   4.655  0.00  0.00    +0.017 A 
ATOM     16  C   UNL     1       2.268  -2.018   5.788  0.00  0.00    +0.091 A 
ATOM     19  C   UNL     1       2.154  -0.631   5.818  0.00  0.00    +0.111 A 
ATOM     22  C   UNL     1       1.658   0.052   4.718  0.00  0.00    -0.036 A 
ATOM     23  C   UNL     1       1.275  -0.643   3.589  0.00  0.00    -0.061 A 
ATOM     24  C   UNL     1       0.716   0.087   2.398  0.00  0.00    +0.103 C 
ATOM     25  C   UNL     1       0.886  -2.053   1.118  0.00  0.00    -0.089 A 
ATOM     26  C   UNL     1       1.170  -0.574   1.098  0.00  0.00    +0.194 C 
ENDROOT
BRANCH   7   8
ATOM      8  O   UNL     1       0.196  -6.138   1.211  0.00  0.00    -0.306 OA
ATOM      9  C   UNL     1      -0.182  -6.752  -0.022  0.00  0.00    +0.240 C 
ENDBRANCH   7   8
BRANCH  10  11
ATOM     11  O   UNL     1       0.945  -4.822   3.516  0.00  0.00    -0.319 OA
ATOM     12  C   UNL     1      -0.236  -5.058   4.286  0.00  0.00    +0.222 C 
ENDBRANCH  10  11
BRANCH  16  17
ATOM     17  O   UNL     1       2.748  -2.685   6.872  0.00  0.00    -0.306 OA
ATOM     18  C   UNL     1       2.837  -4.107   6.772  0.00  0.00    +0.238 C 
ENDBRANCH  16  17
BRANCH  19  20
ATOM     20  O   UNL     1       2.530   0.057   6.930  0.00  0.00    -0.304 OA
ATOM     21  C   UNL     1       2.386   1.478   6.893  0.00  0.00    +0.237 C 
ENDBRANCH  19  20
TORSDOF 4
