REMARK  Name = ZINC95486018
REMARK  16 active torsions:
REMARK  status: ('A' for Active; 'I' for Inactive)
REMARK    1  A    between atoms: C1_1  and  C2_2
REMARK    2  A    between atoms: C4_4  and  O5_35
REMARK    3  A    between atoms: C7_7  and  C8_8
REMARK    4  A    between atoms: C9_9  and  O2_25
REMARK    5  A    between atoms: C11_11  and  O1_23
REMARK    6  A    between atoms: C15_15  and  C20_22
REMARK    7  A    between atoms: N1_17  and  C19_21
REMARK    8  A    between atoms: C16_18  and  C17_19
REMARK    9  A    between atoms: C16_18  and  C18_20
REMARK   10  A    between atoms: O1_23  and  C21_24
REMARK   11  A    between atoms: O2_25  and  C22_26
REMARK   12  A    between atoms: C24_28  and  O4_33
REMARK   13  A    between atoms: C26_30  and  O3_31
REMARK   14  A    between atoms: O3_31  and  C27_32
REMARK   15  A    between atoms: O4_33  and  C28_34
REMARK   16  A    between atoms: O5_35  and  C29_36
REMARK                            x       y       z     vdW  Elec       q    Type
REMARK                         _______ _______ _______ _____ _____    ______ ____
ROOT
ATOM     18  C   UNL     1      -0.232   0.173   2.195  0.00  0.00    -0.104 A 
ATOM     19  C   UNL     1       1.025   0.593   2.644  0.00  0.00    +0.182 A 
ATOM     22  C   UNL     1       1.130   1.271   3.845  0.00  0.00    -0.167 A 
ATOM     23  C   UNL     1      -0.006   1.528   4.595  0.00  0.00    +0.177 A 
ATOM     26  C   UNL     1      -1.259   1.111   4.151  0.00  0.00    -0.133 A 
ATOM     27  C   UNL     1      -2.459   1.413   5.011  0.00  0.00    +0.163 C 
ATOM     28  C   UNL     1      -2.344   2.838   5.555  0.00  0.00    +0.055 C 
ATOM     29  C   UNL     1      -2.502   0.428   6.182  0.00  0.00    +0.007 C 
ATOM     30  N   UNL     1      -3.694   1.307   4.222  0.00  0.00    -0.517 NA
ATOM     31  C   UNL     1      -4.877   1.512   5.069  0.00  0.00    +0.187 C 
ATOM     32  C   UNL     1      -3.748  -0.000   3.548  0.00  0.00    +0.123 C 
ATOM     33  C   UNL     1      -5.143  -0.224   2.962  0.00  0.00    +0.036 C 
ATOM     34  C   UNL     1      -2.711  -0.010   2.425  0.00  0.00    +0.105 C 
ATOM     35  C   UNL     1      -1.375   0.444   2.953  0.00  0.00    +0.024 A 
ENDROOT
BRANCH  18  17
ATOM      1  C   UNL     1      -0.631   1.648  -0.240  0.00  0.00    +0.094 C 
ATOM      2  C   UNL     1      -0.545   0.143  -0.269  0.00  0.00    +0.004 A 
ATOM      3  C   UNL     1      -0.654  -0.528  -1.480  0.00  0.00    -0.115 A 
ATOM      4  C   UNL     1      -0.580  -1.902  -1.538  0.00  0.00    +0.181 A 
ATOM      7  C   UNL     1      -0.390  -2.645  -0.355  0.00  0.00    -0.128 A 
ATOM      8  C   UNL     1      -0.277  -1.968   0.882  0.00  0.00    +0.077 A 
ATOM      9  C   UNL     1      -0.088  -2.706   2.059  0.00  0.00    -0.063 A 
ATOM     10  C   UNL     1      -0.014  -4.080   1.997  0.00  0.00    +0.182 A 
ATOM     13  C   UNL     1      -0.124  -4.746   0.775  0.00  0.00    -0.182 A 
ATOM     14  C   UNL     1      -0.310  -4.051  -0.386  0.00  0.00    +0.208 A 
ATOM     17  C   UNL     1      -0.352  -0.554   0.911  0.00  0.00    -0.078 A 
BRANCH   4   5
ATOM      5  O   UNL     1      -0.689  -2.540  -2.731  0.00  0.00    -0.292 OA
ATOM      6  C   UNL     1      -0.881  -1.724  -3.888  0.00  0.00    +0.237 C 
ENDBRANCH   4   5
BRANCH  10  11
ATOM     11  O   UNL     1       0.170  -4.795   3.138  0.00  0.00    -0.312 OA
ATOM     12  C   UNL     1       0.239  -6.217   3.008  0.00  0.00    +0.238 C 
ENDBRANCH  10  11
BRANCH  14  15
ATOM     15  O   UNL     1      -0.416  -4.714  -1.567  0.00  0.00    -0.287 OA
ATOM     16  C   UNL     1      -0.326  -6.139  -1.521  0.00  0.00    +0.238 C 
ENDBRANCH  14  15
ENDBRANCH  18  17
BRANCH  19  20
ATOM     20  O   UNL     1       2.135   0.335   1.905  0.00  0.00    -0.301 OA
ATOM     21  C   UNL     1       3.383   0.794   2.427  0.00  0.00    +0.234 C 
ENDBRANCH  19  20
BRANCH  23  24
ATOM     24  O   UNL     1       0.103   2.193   5.775  0.00  0.00    -0.300 OA
ATOM     25  C   UNL     1       1.415   2.594   6.175  0.00  0.00    +0.228 C 
ENDBRANCH  23  24
TORSDOF 6
