REMARK  Name = ZINC95485884
REMARK  8 active torsions:
REMARK  status: ('A' for Active; 'I' for Inactive)
REMARK    1  A    between atoms: C1_1  and  C2_2
REMARK    2  A    between atoms: C4_4  and  C18_23
REMARK    3  A    between atoms: C4_4  and  C19_24
REMARK    4  A    between atoms: C6_6  and  C8_9
REMARK    5  A    between atoms: C8_9  and  C9_10
REMARK    6  A    between atoms: C11_12  and  C16_19
REMARK    7  A    between atoms: C11_12  and  C17_20
REMARK    8  A    between atoms: C13_14  and  C15_17
REMARK                            x       y       z     vdW  Elec       q    Type
REMARK                         _______ _______ _______ _____ _____    ______ ____
ROOT
ATOM     11  C   UNL     1       1.233  -0.998   1.676  0.00  0.00    +0.109 C 
ENDROOT
BRANCH  11  10
ATOM      1  C   UNL     1       0.230   0.091  -3.037  0.00  0.00    +0.083 C 
ATOM      2  C   UNL     1      -0.408   0.195  -1.650  0.00  0.00    -0.041 C 
ATOM      3  C   UNL     1      -1.571  -0.769  -1.548  0.00  0.00    +0.378 C 
ATOM      4  O   UNL     1      -1.993  -1.337  -2.526  0.00  0.00    -0.407 OA
ATOM      5  C   UNL     1      -2.189  -1.003  -0.186  0.00  0.00    -0.158 C 
ATOM      6  C   UNL     1      -3.156  -2.187  -0.254  0.00  0.00    +0.087 C 
ATOM      7  C   UNL     1      -2.939   0.252   0.264  0.00  0.00    +0.100 C 
ATOM      8  C   UNL     1      -1.073  -1.309   0.790  0.00  0.00    +0.381 C 
ATOM      9  O   UNL     1      -1.133  -2.271   1.519  0.00  0.00    -0.414 OA
ATOM     10  C   UNL     1       0.120  -0.377   0.829  0.00  0.00    -0.036 C 
ATOM     24  C   UNL     1       0.607  -0.179  -0.591  0.00  0.00    +0.380 C 
ATOM     25  O   UNL     1       1.774  -0.316  -0.871  0.00  0.00    -0.407 OA
ENDBRANCH  11  10
BRANCH  11  12
ATOM     12  C   UNL     1       0.787  -1.061   3.138  0.00  0.00    -0.036 C 
ATOM     13  C   UNL     1       1.832  -1.784   3.961  0.00  0.00    +0.383 C 
ATOM     14  O   UNL     1       2.740  -2.375   3.428  0.00  0.00    -0.405 OA
ATOM     15  C   UNL     1       1.708  -1.747   5.469  0.00  0.00    -0.156 C 
ATOM     16  C   UNL     1       0.503  -2.581   5.910  0.00  0.00    +0.099 C 
ATOM     17  C   UNL     1       2.983  -2.302   6.107  0.00  0.00    +0.087 C 
ATOM     18  C   UNL     1       1.512  -0.305   5.888  0.00  0.00    +0.380 C 
ATOM     19  O   UNL     1       2.187   0.183   6.763  0.00  0.00    -0.411 OA
ATOM     20  C   UNL     1       0.448   0.508   5.182  0.00  0.00    -0.054 C 
ATOM     21  C   UNL     1      -0.940   0.001   5.581  0.00  0.00    +0.098 C 
ATOM     22  C   UNL     1       0.644   0.342   3.690  0.00  0.00    +0.378 C 
ATOM     23  O   UNL     1       0.686   1.303   2.960  0.00  0.00    -0.417 OA
ENDBRANCH  11  12
TORSDOF 2
