REMARK  Name = ZINC95486301
REMARK  5 active torsions:
REMARK  status: ('A' for Active; 'I' for Inactive)
REMARK    1  A    between atoms: C1_1  and  C2_2
REMARK    2  A    between atoms: C11_12  and  O3_31
REMARK    3  A    between atoms: C15_16  and  C24_30
REMARK    4  A    between atoms: C20_24  and  C22_27
REMARK    5  A    between atoms: C22_27  and  C23_29
REMARK                            x       y       z     vdW  Elec       q    Type
REMARK                         _______ _______ _______ _____ _____    ______ ____
ROOT
ATOM      1  C   UNL     1      -0.584   1.928   0.602  0.00  0.00    +0.062 C 
ATOM      2  C   UNL     1      -0.460   0.433   0.749  0.00  0.00    -0.034 C 
ATOM      3  C   UNL     1      -1.528  -0.329   0.648  0.00  0.00    -0.155 C 
ATOM      4  C   UNL     1      -1.485  -1.807   1.005  0.00  0.00    +0.273 C 
ATOM      5  N   UNL     1      -2.255  -2.569   0.018  0.00  0.00    -0.547 NA
ATOM      6  C   UNL     1      -1.463  -2.759  -1.195  0.00  0.00    +0.221 C 
ATOM      7  C   UNL     1      -1.379  -1.437  -1.961  0.00  0.00    +0.015 C 
ATOM      8  C   UNL     1      -2.738  -0.822  -2.131  0.00  0.00    -0.036 C 
ATOM      9  C   UNL     1      -2.967  -0.421  -3.589  0.00  0.00    +0.091 C 
ATOM     10  C   UNL     1      -3.315  -1.593  -4.460  0.00  0.00    -0.052 A 
ATOM     11  C   UNL     1      -3.111  -1.464  -5.828  0.00  0.00    -0.020 A 
ATOM     12  C   UNL     1      -3.405  -2.510  -6.684  0.00  0.00    +0.105 A 
ATOM     15  C   UNL     1      -3.900  -3.699  -6.167  0.00  0.00    -0.017 A 
ATOM     16  C   UNL     1      -4.104  -3.821  -4.809  0.00  0.00    +0.029 A 
ATOM     17  C   UNL     1      -3.828  -2.763  -3.950  0.00  0.00    -0.073 A 
ATOM     18  C   UNL     1      -4.132  -2.939  -2.491  0.00  0.00    +0.064 C 
ATOM     19  C   UNL     1      -5.618  -3.308  -2.364  0.00  0.00    +0.044 C 
ATOM     20  C   UNL     1      -3.015   0.433  -1.272  0.00  0.00    -0.126 C 
ATOM     24  C   UNL     1      -4.563   0.529  -1.512  0.00  0.00    +0.215 C 
ATOM     25  O   UNL     1      -5.026  -0.827  -1.646  0.00  0.00    -0.352 OA
ATOM     26  C   UNL     1      -3.890  -1.716  -1.650  0.00  0.00    +0.119 C 
ATOM     27  C   UNL     1      -3.615  -2.110  -0.188  0.00  0.00    +0.185 C 
ATOM     28  C   UNL     1      -3.896  -0.867   0.672  0.00  0.00    +0.033 C 
ATOM     29  C   UNL     1      -2.877   0.205   0.227  0.00  0.00    +0.055 C 
ENDROOT
BRANCH  20  21
ATOM     21  C   UNL     1      -2.293   1.669  -1.753  0.00  0.00    +0.382 C 
ATOM     22  C   UNL     1      -2.608   3.010  -1.142  0.00  0.00    +0.066 C 
ATOM     23  O   UNL     1      -1.464   1.583  -2.627  0.00  0.00    -0.438 OA
ENDBRANCH  20  21
BRANCH  12  13
ATOM     13  O   UNL     1      -3.213  -2.374  -8.022  0.00  0.00    -0.499 OA
ATOM     14  H   UNL     1      -2.332  -2.637  -8.322  0.00  0.00    +0.390 HD
ENDBRANCH  12  13
TORSDOF 2
