REMARK  Name = ZINC95485966
REMARK  17 active torsions:
REMARK  status: ('A' for Active; 'I' for Inactive)
REMARK    1  A    between atoms: C1_1  and  C2_2
REMARK    2  A    between atoms: C3_3  and  C28_33
REMARK    3  A    between atoms: C10_10  and  O1_18
REMARK    4  A    between atoms: C11_11  and  C12_12
REMARK    5  A    between atoms: C12_12  and  C13_13
REMARK    6  A    between atoms: C13_13  and  C14_14
REMARK    7  A    between atoms: C15_15  and  C16_16
REMARK    8  A    between atoms: C15_15  and  C17_17
REMARK    9  A    between atoms: C21_24  and  C22_26
REMARK   10  A    between atoms: C22_26  and  C23_27
REMARK   11  A    between atoms: C23_27  and  C24_28
REMARK   12  A    between atoms: C25_29  and  C26_30
REMARK   13  A    between atoms: C25_29  and  C27_31
REMARK   14  A    between atoms: C28_33  and  C29_34
REMARK   15  A    between atoms: C29_34  and  C30_35
REMARK   16  A    between atoms: C31_36  and  C32_37
REMARK   17  A    between atoms: C31_36  and  C33_38
REMARK                            x       y       z     vdW  Elec       q    Type
REMARK                         _______ _______ _______ _____ _____    ______ ____
ROOT
ATOM      1  C   UNL     1       3.505   1.001   0.762  0.00  0.00    +0.076 C 
ATOM      2  C   UNL     1       2.828  -0.323   0.519  0.00  0.00    -0.042 A 
ATOM      3  C   UNL     1       1.949  -0.447  -0.516  0.00  0.00    -0.131 A 
ATOM     10  C   UNL     1       1.313  -1.675  -0.754  0.00  0.00    +0.053 A 
ATOM     11  C   UNL     1       0.410  -1.828  -1.824  0.00  0.00    -0.160 A 
ATOM     12  C   UNL     1      -0.204  -3.020  -2.052  0.00  0.00    +0.050 A 
ATOM     13  C   UNL     1      -1.134  -3.122  -3.235  0.00  0.00    +0.003 C 
ATOM     20  C   UNL     1      -2.008  -4.345  -3.111  0.00  0.00    +0.386 C 
ATOM     21  O   UNL     1      -3.197  -4.286  -3.313  0.00  0.00    -0.461 OA
ATOM     22  C   UNL     1      -1.343  -5.652  -2.724  0.00  0.00    +0.003 C 
ATOM     23  C   UNL     1      -0.636  -5.404  -1.408  0.00  0.00    +0.405 C 
ATOM     24  O   UNL     1      -0.632  -6.250  -0.538  0.00  0.00    -0.456 OA
ATOM     25  C   UNL     1       0.044  -4.119  -1.206  0.00  0.00    -0.382 A 
ATOM     26  C   UNL     1       0.944  -4.003  -0.139  0.00  0.00    +0.343 A 
ATOM     27  O   UNL     1       1.190  -5.065   0.663  0.00  0.00    -0.614 OA
ATOM     28  C   UNL     1       1.589  -2.775   0.094  0.00  0.00    -0.176 A 
ATOM     29  C   UNL     1       2.503  -2.620   1.155  0.00  0.00    +0.184 A 
ATOM     32  C   UNL     1       3.113  -1.400   1.350  0.00  0.00    -0.178 A 
ENDROOT
BRANCH  29  30
ATOM     30  O   UNL     1       2.783  -3.665   1.974  0.00  0.00    -0.472 OA
ATOM     31  H   UNL     1       3.526  -4.209   1.678  0.00  0.00    +0.381 HD
ENDBRANCH  29  30
BRANCH   3   4
ATOM      4  C   UNL     1       1.660   0.736  -1.405  0.00  0.00    +0.071 C 
BRANCH   4   5
ATOM      5  C   UNL     1       2.627   0.731  -2.590  0.00  0.00    +0.054 C 
BRANCH   5   6
ATOM      6  C   UNL     1       2.338   1.914  -3.478  0.00  0.00    -0.047 C 
ATOM      7  C   UNL     1       3.240   2.851  -3.635  0.00  0.00    -0.147 C 
ATOM      8  C   UNL     1       2.937   4.051  -4.494  0.00  0.00    +0.065 C 
ATOM      9  C   UNL     1       4.579   2.730  -2.955  0.00  0.00    +0.069 C 
ENDBRANCH   5   6
ENDBRANCH   4   5
ENDBRANCH   3   4
BRANCH  13  14
ATOM     14  C   UNL     1      -0.310  -3.216  -4.520  0.00  0.00    +0.061 C 
BRANCH  14  15
ATOM     15  C   UNL     1      -1.247  -3.193  -5.729  0.00  0.00    +0.042 C 
BRANCH  15  16
ATOM     16  C   UNL     1      -0.436  -3.286  -6.996  0.00  0.00    -0.046 C 
ATOM     17  C   UNL     1      -0.606  -2.403  -7.949  0.00  0.00    -0.142 C 
ATOM     18  C   UNL     1       0.216  -2.488  -9.209  0.00  0.00    +0.068 C 
ATOM     19  C   UNL     1      -1.623  -1.304  -7.785  0.00  0.00    +0.071 C 
ENDBRANCH  15  16
ENDBRANCH  14  15
ENDBRANCH  13  14
BRANCH  32  33
ATOM     33  C   UNL     1       4.096  -1.229   2.480  0.00  0.00    +0.073 C 
BRANCH  33  34
ATOM     34  C   UNL     1       3.353  -0.780   3.740  0.00  0.00    +0.054 C 
BRANCH  34  35
ATOM     35  C   UNL     1       4.335  -0.610   4.869  0.00  0.00    -0.054 C 
ATOM     36  C   UNL     1       4.109  -1.182   6.026  0.00  0.00    -0.141 C 
ATOM     37  C   UNL     1       5.167  -1.157   7.099  0.00  0.00    +0.066 C 
ATOM     38  C   UNL     1       2.791  -1.865   6.284  0.00  0.00    +0.070 C 
ENDBRANCH  34  35
ENDBRANCH  33  34
ENDBRANCH  32  33
TORSDOF 10
