REMARK  Name = ZINC95486226
REMARK  6 active torsions:
REMARK  status: ('A' for Active; 'I' for Inactive)
REMARK    1  A    between atoms: C1_1  and  C2_2
REMARK    2  A    between atoms: C2_2  and  C3_3
REMARK    3  A    between atoms: C5_6  and  C18_29
REMARK    4  A    between atoms: C6_8  and  C17_26
REMARK    5  A    between atoms: C6_8  and  O6_28
REMARK    6  A    between atoms: C17_26  and  O5_27
REMARK                            x       y       z     vdW  Elec       q    Type
REMARK                         _______ _______ _______ _____ _____    ______ ____
ROOT
ATOM      3  C   UNL     1      -1.434  -0.532   0.010  0.00  0.00    +0.035 C 
ATOM      4  C   UNL     1      -1.414  -2.057   0.129  0.00  0.00    +0.060 C 
ATOM      5  C   UNL     1      -0.704  -2.654  -1.088  0.00  0.00    +0.018 C 
ATOM      6  C   UNL     1       0.606  -3.309  -0.645  0.00  0.00    +0.065 C 
ATOM      7  C   UNL     1      -1.605  -3.705  -1.739  0.00  0.00    +0.155 C 
ATOM     13  C   UNL     1      -1.697  -3.442  -3.220  0.00  0.00    +0.441 C 
ATOM     14  O   UNL     1      -2.843  -3.683  -3.875  0.00  0.00    -0.328 OA
ATOM     15  C   UNL     1      -3.194  -2.777  -4.923  0.00  0.00    +0.324 C 
ATOM     16  C   UNL     1      -4.385  -1.955  -4.498  0.00  0.00    -0.155 C 
ATOM     17  C   UNL     1      -5.524  -2.441  -4.077  0.00  0.00    +0.071 C 
ATOM     18  C   UNL     1      -6.448  -1.299  -3.762  0.00  0.00    +0.299 C 
ATOM     19  N   UNL     1      -5.707  -0.040  -3.878  0.00  0.00    -0.377 N 
ATOM     20  H   UNL     1      -6.203   0.624  -4.461  0.00  0.00    +0.446 HD
ATOM     21  C   UNL     1      -5.442   0.523  -2.547  0.00  0.00    +0.295 C 
ATOM     22  C   UNL     1      -3.940   0.805  -2.453  0.00  0.00    +0.205 C 
ATOM     23  O   UNL     1      -3.412   0.249  -1.247  0.00  0.00    -0.339 OA
ATOM     24  C   UNL     1      -3.294   0.135  -3.668  0.00  0.00    +0.087 C 
ATOM     25  C   UNL     1      -4.442  -0.449  -4.495  0.00  0.00    +0.201 C 
ATOM     26  O   UNL     1      -0.738  -3.013  -3.818  0.00  0.00    -0.456 OA
ATOM     27  C   UNL     1      -2.126  -0.137  -1.269  0.00  0.00    +0.472 C 
ATOM     28  O   UNL     1      -1.523  -0.168  -2.316  0.00  0.00    -0.474 OA
ENDROOT
BRANCH   3   2
ATOM      1  C   UNL     1      -0.021   1.528   0.006  0.00  0.00    +0.018 C 
ATOM      2  C   UNL     1       0.001  -0.002  -0.001  0.00  0.00    +0.056 C 
ENDBRANCH   3   2
BRANCH   7   8
ATOM      8  O   UNL     1      -1.055  -5.006  -1.520  0.00  0.00    -0.517 OA
ATOM      9  H   UNL     1      -1.576  -5.723  -1.906  0.00  0.00    +0.392 HD
ENDBRANCH   7   8
BRANCH   7  10
ATOM     10  C   UNL     1      -3.003  -3.632  -1.121  0.00  0.00    +0.177 C 
BRANCH  10  11
ATOM     11  O   UNL     1      -3.876  -4.531  -1.809  0.00  0.00    -0.553 OA
ATOM     12  H   UNL     1      -4.781  -4.537  -1.469  0.00  0.00    +0.383 HD
ENDBRANCH  10  11
ENDBRANCH   7  10
TORSDOF 4
