REMARK  Name = ZINC95485906
REMARK  8 active torsions:
REMARK  status: ('A' for Active; 'I' for Inactive)
REMARK    1  A    between atoms: C1_1  and  C2_2
REMARK    2  A    between atoms: C7_7  and  C13_15
REMARK    3  A    between atoms: C8_8  and  O2_14
REMARK    4  A    between atoms: C11_11  and  O1_12
REMARK    5  A    between atoms: O1_12  and  C12_13
REMARK    6  A    between atoms: C18_20  and  O3_21
REMARK    7  A    between atoms: C19_22  and  C23_29
REMARK    8  A    between atoms: C20_25  and  C22_28
REMARK                            x       y       z     vdW  Elec       q    Type
REMARK                         _______ _______ _______ _____ _____    ______ ____
ROOT
ATOM      1  C   UNL     1      -0.018   1.503   0.010  0.00  0.00    +0.102 C 
ATOM      2  C   UNL     1       0.002  -0.004   0.002  0.00  0.00    -0.092 A 
ATOM      3  C   UNL     1       0.005  -0.668  -1.186  0.00  0.00    +0.059 A 
ATOM      4  C   UNL     1       0.025  -2.073  -1.200  0.00  0.00    -0.061 A 
ATOM      5  C   UNL     1       0.030  -2.785  -2.413  0.00  0.00    +0.027 A 
ATOM      6  C   UNL     1       0.049  -4.144  -2.406  0.00  0.00    +0.025 A 
ATOM      7  C   UNL     1       0.065  -4.859  -1.198  0.00  0.00    -0.065 A 
ATOM     23  C   UNL     1       0.060  -4.189   0.017  0.00  0.00    +0.138 A 
ATOM     26  C   UNL     1       0.041  -2.780   0.029  0.00  0.00    -0.040 A 
ATOM     27  C   UNL     1       0.037  -2.065   1.237  0.00  0.00    -0.062 A 
ATOM     28  C   UNL     1       0.023  -0.699   1.214  0.00  0.00    +0.134 A 
ENDROOT
BRANCH   7   8
ATOM      8  C   UNL     1       0.086  -6.341  -1.221  0.00  0.00    -0.075 A 
ATOM      9  C   UNL     1       1.187  -7.019  -1.741  0.00  0.00    +0.037 A 
ATOM     10  C   UNL     1       1.196  -8.397  -1.755  0.00  0.00    -0.004 A 
ATOM     11  C   UNL     1       0.118  -9.118  -1.259  0.00  0.00    -0.060 A 
ATOM     12  C   UNL     1      -0.978  -8.457  -0.746  0.00  0.00    -0.138 A 
ATOM     13  C   UNL     1      -2.174  -9.198  -0.208  0.00  0.00    +0.225 C 
ATOM     14  C   UNL     1      -3.301  -9.153  -1.241  0.00  0.00    +0.042 C 
ATOM     15  N   UNL     1      -1.829 -10.596   0.070  0.00  0.00    -0.669 NA
ATOM     16  H   UNL     1      -1.222 -10.666   0.873  0.00  0.00    +0.343 HD
ATOM     17  C   UNL     1      -1.212 -11.214  -1.114  0.00  0.00    +0.163 C 
ATOM     18  C   UNL     1      -1.113 -12.728  -0.911  0.00  0.00    +0.039 C 
ATOM     19  C   UNL     1       0.187 -10.624  -1.296  0.00  0.00    +0.047 C 
ATOM     20  C   UNL     1      -0.995  -7.067  -0.717  0.00  0.00    +0.145 A 
BRANCH  20  21
ATOM     21  O   UNL     1      -2.070  -6.414  -0.203  0.00  0.00    -0.480 OA
ATOM     22  H   UNL     1      -2.758  -6.217  -0.852  0.00  0.00    +0.384 HD
ENDBRANCH  20  21
ENDBRANCH   7   8
BRANCH  23  24
ATOM     24  O   UNL     1       0.075  -4.884   1.183  0.00  0.00    -0.477 OA
ATOM     25  H   UNL     1       0.962  -5.074   1.517  0.00  0.00    +0.384 HD
ENDBRANCH  23  24
BRANCH  28  29
ATOM     29  O   UNL     1       0.024  -0.008   2.384  0.00  0.00    -0.313 OA
ATOM     30  C   UNL     1       0.046  -0.774   3.590  0.00  0.00    +0.242 C 
ENDBRANCH  28  29
TORSDOF 4
