REMARK  Name = ZINC95486321
REMARK  10 active torsions:
REMARK  status: ('A' for Active; 'I' for Inactive)
REMARK    1  A    between atoms: C1_1  and  C2_2
REMARK    2  A    between atoms: C7_8  and  C13_17
REMARK    3  A    between atoms: C8_9  and  O1_15
REMARK    4  A    between atoms: C10_11  and  C11_14
REMARK    5  A    between atoms: O1_15  and  C12_16
REMARK    6  A    between atoms: C18_22  and  O4_31
REMARK    7  A    between atoms: C20_24  and  O3_29
REMARK    8  A    between atoms: C22_26  and  O2_27
REMARK    9  A    between atoms: O2_27  and  C23_28
REMARK   10  A    between atoms: O3_29  and  C24_30
REMARK                            x       y       z     vdW  Elec       q    Type
REMARK                         _______ _______ _______ _____ _____    ______ ____
ROOT
ATOM      8  C   UNL     1      -2.283  -5.986   0.438  0.00  0.00    -0.124 A 
ATOM      9  C   UNL     1      -2.863  -6.469   1.635  0.00  0.00    +0.050 A 
ATOM     10  C   UNL     1      -3.114  -5.609   2.715  0.00  0.00    -0.008 A 
ATOM     11  C   UNL     1      -3.673  -6.098   3.857  0.00  0.00    +0.057 A 
ATOM     12  C   UNL     1      -4.004  -7.444   3.975  0.00  0.00    -0.042 A 
ATOM     13  C   UNL     1      -3.772  -8.319   2.936  0.00  0.00    +0.157 A 
ATOM     16  C   UNL     1      -3.195  -7.840   1.743  0.00  0.00    -0.129 A 
ATOM     17  C   UNL     1      -2.945  -8.706   0.658  0.00  0.00    +0.199 A 
ATOM     20  C   UNL     1      -2.380  -8.214  -0.497  0.00  0.00    -0.167 A 
ATOM     21  C   UNL     1      -2.053  -6.864  -0.615  0.00  0.00    +0.200 A 
ENDROOT
BRANCH   8   7
ATOM      1  C   UNL     1       0.869   1.312   0.060  0.00  0.00    +0.035 C 
ATOM      2  C   UNL     1       0.568  -0.185  -0.037  0.00  0.00    +0.124 C 
ATOM      3  C   UNL     1      -0.945  -0.403  -0.084  0.00  0.00    +0.092 C 
ATOM      4  C   UNL     1      -1.259  -1.870   0.062  0.00  0.00    -0.055 A 
ATOM      5  C   UNL     1      -2.521  -2.314  -0.309  0.00  0.00    -0.001 A 
ATOM      6  C   UNL     1      -2.861  -3.644  -0.191  0.00  0.00    +0.036 A 
ATOM      7  C   UNL     1      -1.929  -4.555   0.305  0.00  0.00    -0.040 A 
ATOM     24  C   UNL     1      -0.658  -4.107   0.676  0.00  0.00    +0.119 A 
ATOM     27  C   UNL     1      -0.328  -2.763   0.550  0.00  0.00    -0.090 A 
ATOM     28  C   UNL     1       1.057  -2.327   0.953  0.00  0.00    +0.222 C 
ATOM     29  C   UNL     1       2.049  -2.720  -0.145  0.00  0.00    +0.005 C 
ATOM     30  N   UNL     1       1.107  -0.876   1.146  0.00  0.00    -0.677 NA
ATOM     31  H   UNL     1       2.046  -0.567   1.348  0.00  0.00    +0.346 HD
BRANCH  24  25
ATOM     25  O   UNL     1       0.256  -4.987   1.161  0.00  0.00    -0.329 OA
ATOM     26  C   UNL     1       0.277  -5.188   2.576  0.00  0.00    +0.219 C 
ENDBRANCH  24  25
ENDBRANCH   8   7
BRANCH  13  14
ATOM     14  O   UNL     1      -4.098  -9.631   3.060  0.00  0.00    -0.481 OA
ATOM     15  H   UNL     1      -4.997  -9.842   2.775  0.00  0.00    +0.392 HD
ENDBRANCH  13  14
BRANCH  17  18
ATOM     18  O   UNL     1      -3.259 -10.023   0.753  0.00  0.00    -0.290 OA
ATOM     19  C   UNL     1      -2.978 -10.841  -0.384  0.00  0.00    +0.242 C 
ENDBRANCH  17  18
BRANCH  21  22
ATOM     22  O   UNL     1      -1.502  -6.403  -1.767  0.00  0.00    -0.300 OA
ATOM     23  C   UNL     1      -1.291  -7.355  -2.812  0.00  0.00    +0.238 C 
ENDBRANCH  21  22
TORSDOF 5
