REMARK  Name = ZINC00035525
REMARK  6 active torsions:
REMARK  status: ('A' for Active; 'I' for Inactive)
REMARK    1  A    between atoms: C1_1  and  O1_2
REMARK    2  A    between atoms: O1_2  and  C2_3
REMARK    3  A    between atoms: C7_8  and  O2_9
REMARK    4  A    between atoms: O2_9  and  C8_10
REMARK    5  A    between atoms: C11_14  and  O3_15
REMARK    6  A    between atoms: O3_15  and  C12_16
REMARK                            x       y       z     vdW  Elec       q    Type
REMARK                         _______ _______ _______ _____ _____    ______ ____
ROOT
ATOM      3  C   UNL     1       0.606  -0.607  -1.056  0.00  0.00    +0.222 A 
ATOM      4  C   UNL     1       1.174   0.175  -2.065  0.00  0.00    -0.014 A 
ATOM      5  C   UNL     1       1.785  -0.403  -3.135  0.00  0.00    +0.173 A 
ATOM      6  C   UNL     1       1.849  -1.803  -3.233  0.00  0.00    -0.158 A 
ATOM      7  C   UNL     1       1.277  -2.610  -2.218  0.00  0.00    +0.227 A 
ATOM      8  N   UNL     1       1.331  -3.943  -2.298  0.00  0.00    -0.469 N 
ATOM      9  H   UNL     1       0.933  -4.474  -1.591  0.00  0.00    +0.449 HD
ATOM     10  C   UNL     1       1.910  -4.558  -3.313  0.00  0.00    +0.352 A 
ATOM     11  C   UNL     1       2.499  -3.818  -4.360  0.00  0.00    -0.208 A 
ATOM     12  C   UNL     1       3.036  -4.814  -5.296  0.00  0.00    +0.041 A 
ATOM     13  C   UNL     1       2.746  -6.011  -4.772  0.00  0.00    +0.281 A 
ATOM     14  O   UNL     1       2.085  -5.864  -3.608  0.00  0.00    -0.167 OA
ATOM     15  C   UNL     1       2.475  -2.426  -4.332  0.00  0.00    +0.347 A 
ATOM     18  C   UNL     1       0.656  -1.984  -1.118  0.00  0.00    +0.008 A 
ENDROOT
BRANCH   3   2
ATOM      1  C   UNL     1      -0.017   1.425   0.010  0.00  0.00    +0.279 C 
ATOM      2  O   UNL     1       0.002  -0.004   0.002  0.00  0.00    -0.279 OA
ENDBRANCH   3   2
BRANCH  15  16
ATOM     16  O   UNL     1       3.035  -1.695  -5.327  0.00  0.00    -0.318 OA
ATOM     17  C   UNL     1       4.411  -1.339  -5.176  0.00  0.00    +0.297 C 
ENDBRANCH  15  16
BRANCH  18  19
ATOM     19  O   UNL     1       0.103  -2.734  -0.127  0.00  0.00    -0.308 OA
ATOM     20  C   UNL     1      -1.269  -3.103  -0.281  0.00  0.00    +0.243 C 
ENDBRANCH  18  19
TORSDOF 3
