REMARK  Name = ZINC95485886
REMARK  17 active torsions:
REMARK  status: ('A' for Active; 'I' for Inactive)
REMARK    1  A    between atoms: C1_1  and  N1_2
REMARK    2  A    between atoms: C6_7  and  O6_50
REMARK    3  A    between atoms: C7_8  and  C18_21
REMARK    4  A    between atoms: C10_11  and  C11_13
REMARK    5  A    between atoms: C11_13  and  C12_14
REMARK    6  A    between atoms: C17_19  and  O1_20
REMARK    7  A    between atoms: C18_21  and  C19_22
REMARK    8  A    between atoms: C23_26  and  O3_30
REMARK    9  A    between atoms: C24_27  and  O2_28
REMARK   10  A    between atoms: O2_28  and  C25_29
REMARK   11  A    between atoms: O3_30  and  C26_31
REMARK   12  A    between atoms: C30_36  and  O5_48
REMARK   13  A    between atoms: C31_37  and  O4_46
REMARK   14  A    between atoms: N2_44  and  C37_45
REMARK   15  A    between atoms: O4_46  and  C38_47
REMARK   16  A    between atoms: O5_48  and  C39_49
REMARK   17  A    between atoms: O6_50  and  C40_51
REMARK                            x       y       z     vdW  Elec       q    Type
REMARK                         _______ _______ _______ _____ _____    ______ ____
ROOT
ATOM     12  C   UNL     1       0.269  -5.260   4.556  0.00  0.00    -0.061 A 
ATOM     13  C   UNL     1      -0.784  -4.524   5.100  0.00  0.00    -0.051 A 
ATOM     14  C   UNL     1      -2.011  -5.101   5.269  0.00  0.00    -0.108 A 
ATOM     15  C   UNL     1      -3.232  -4.427   5.806  0.00  0.00    +0.301 C 
ATOM     16  C   UNL     1      -3.559  -3.108   5.193  0.00  0.00    -0.136 A 
ATOM     17  C   UNL     1      -4.644  -2.899   4.372  0.00  0.00    +0.015 A 
ATOM     18  C   UNL     1      -4.886  -1.630   3.866  0.00  0.00    +0.115 A 
ATOM     21  C   UNL     1      -4.040  -0.573   4.187  0.00  0.00    +0.131 A 
ATOM     24  C   UNL     1      -2.940  -0.792   5.008  0.00  0.00    -0.005 A 
ATOM     25  C   UNL     1      -2.704  -2.053   5.493  0.00  0.00    -0.072 A 
ATOM     26  C   UNL     1      -1.518  -2.423   6.333  0.00  0.00    +0.070 C 
ATOM     27  C   UNL     1      -1.976  -3.233   7.535  0.00  0.00    +0.260 C 
ATOM     28  N   UNL     1      -3.002  -4.203   7.247  0.00  0.00    -0.376 N 
ATOM     29  H   UNL     1      -3.865  -3.896   7.669  0.00  0.00    +0.425 HD
ATOM     30  C   UNL     1      -2.605  -5.475   7.864  0.00  0.00    +0.319 C 
ATOM     31  C   UNL     1      -2.184  -6.441   4.901  0.00  0.00    -0.057 A 
ATOM     32  C   UNL     1      -1.148  -7.176   4.365  0.00  0.00    +0.116 A 
ATOM     35  C   UNL     1      -0.482  -3.112   5.482  0.00  0.00    +0.109 C 
ATOM     36  C   UNL     1       0.095  -6.577   4.181  0.00  0.00    +0.123 A 
ENDROOT
BRANCH  18  19
ATOM     19  O   UNL     1      -5.956  -1.418   3.053  0.00  0.00    -0.295 OA
ATOM     20  C   UNL     1      -6.784  -2.546   2.763  0.00  0.00    +0.249 C 
ENDBRANCH  18  19
BRANCH  21  22
ATOM     22  O   UNL     1      -4.287   0.671   3.698  0.00  0.00    -0.293 OA
ATOM     23  C   UNL     1      -3.376   1.708   4.070  0.00  0.00    +0.248 C 
ENDBRANCH  21  22
BRANCH  32  33
ATOM     33  O   UNL     1      -1.341  -8.476   4.015  0.00  0.00    -0.297 OA
ATOM     34  C   UNL     1      -2.645  -9.019   4.228  0.00  0.00    +0.245 C 
ENDBRANCH  32  33
BRANCH  36  37
ATOM     37  O   UNL     1       1.126  -7.282   3.643  0.00  0.00    -0.291 OA
ATOM     38  C   UNL     1       1.967  -7.996   4.551  0.00  0.00    +0.225 C 
ENDBRANCH  36  37
BRANCH  12  11
ATOM     11  C   UNL     1       1.613  -4.606   4.370  0.00  0.00    +0.147 C 
BRANCH  11  10
ATOM      1  C   UNL     1       0.879   1.321   0.023  0.00  0.00    +0.192 C 
ATOM      2  N   UNL     1       0.999  -0.138   0.146  0.00  0.00    -0.522 NA
ATOM      3  C   UNL     1       2.020  -0.662  -0.776  0.00  0.00    +0.172 C 
ATOM      4  C   UNL     1       1.850  -2.178  -0.876  0.00  0.00    +0.087 C 
ATOM      5  C   UNL     1       1.786  -2.782   0.503  0.00  0.00    -0.015 A 
ATOM      6  C   UNL     1       1.992  -4.146   0.637  0.00  0.00    -0.082 A 
ATOM      7  C   UNL     1       1.938  -4.742   1.886  0.00  0.00    +0.146 A 
ATOM     10  C   UNL     1       1.677  -3.967   3.007  0.00  0.00    -0.122 A 
ATOM     39  C   UNL     1       1.475  -2.609   2.870  0.00  0.00    +0.048 A 
ATOM     40  C   UNL     1       1.532  -2.012   1.619  0.00  0.00    -0.112 A 
ATOM     41  C   UNL     1       1.313  -0.525   1.525  0.00  0.00    +0.191 C 
BRANCH   7   8
ATOM      8  O   UNL     1       2.140  -6.080   2.014  0.00  0.00    -0.281 OA
ATOM      9  C   UNL     1       2.404  -6.813   0.816  0.00  0.00    +0.232 C 
ENDBRANCH   7   8
BRANCH  41  42
ATOM     42  C   UNL     1       0.153  -0.126   2.438  0.00  0.00    +0.094 C 
BRANCH  42  43
ATOM     43  C   UNL     1       0.079   1.377   2.529  0.00  0.00    -0.106 A 
ATOM     44  C   UNL     1       1.123   2.087   3.089  0.00  0.00    +0.015 A 
ATOM     45  C   UNL     1       1.056   3.466   3.174  0.00  0.00    +0.004 A 
ATOM     46  C   UNL     1      -0.056   4.137   2.698  0.00  0.00    +0.026 A 
ATOM     47  C   UNL     1      -1.102   3.431   2.136  0.00  0.00    -0.017 A 
ATOM     48  C   UNL     1      -1.035   2.048   2.046  0.00  0.00    +0.108 A 
BRANCH  48  49
ATOM     49  O   UNL     1      -2.061   1.351   1.489  0.00  0.00    -0.491 OA
ATOM     50  H   UNL     1      -2.742   1.083   2.120  0.00  0.00    +0.380 HD
ENDBRANCH  48  49
ENDBRANCH  42  43
ENDBRANCH  41  42
ENDBRANCH  11  10
ENDBRANCH  12  11
TORSDOF 10
