REMARK  Name = ZINC05765089
REMARK  3 active torsions:
REMARK  status: ('A' for Active; 'I' for Inactive)
REMARK    1  A    between atoms: C1_1  and  C2_2
REMARK    2  A    between atoms: C9_11  and  O5_19
REMARK    3  A    between atoms: C11_13  and  O4_18
REMARK                            x       y       z     vdW  Elec       q    Type
REMARK                         _______ _______ _______ _____ _____    ______ ____
ROOT
ATOM      1  C   UNL     1      -0.018   1.503   0.010  0.00  0.00    +0.090 C 
ATOM      2  C   UNL     1       0.002  -0.004   0.002  0.00  0.00    +0.059 A 
ATOM      3  C   UNL     1      -0.097  -0.677  -1.172  0.00  0.00    -0.214 A 
ATOM      4  C   UNL     1      -0.078  -2.086  -1.187  0.00  0.00    +0.402 A 
ATOM      5  C   UNL     1       0.043  -2.803   0.009  0.00  0.00    -0.232 A 
ATOM      6  C   UNL     1       0.144  -2.126   1.208  0.00  0.00    +0.208 A 
ATOM      7  O   UNL     1       0.261  -2.814   2.364  0.00  0.00    -0.231 OA
ATOM      8  C   UNL     1       0.362  -2.187   3.555  0.00  0.00    +0.197 A 
ATOM      9  C   UNL     1       0.482  -2.926   4.721  0.00  0.00    -0.054 A 
ATOM     10  C   UNL     1       0.586  -2.284   5.947  0.00  0.00    +0.180 A 
ATOM     13  C   UNL     1       0.573  -0.894   6.024  0.00  0.00    -0.085 A 
ATOM     14  C   UNL     1       0.455  -0.137   4.876  0.00  0.00    +0.219 A 
ATOM     17  C   UNL     1       0.348  -0.779   3.626  0.00  0.00    -0.228 A 
ATOM     18  C   UNL     1       0.227  -0.021   2.438  0.00  0.00    +0.373 A 
ATOM     19  O   UNL     1       0.210   1.326   2.475  0.00  0.00    -0.570 OA
ATOM     20  O   UNL     1      -0.168  -2.686  -2.252  0.00  0.00    -0.599 OA
ATOM     21  C   UNL     1       0.129  -0.713   1.212  0.00  0.00    -0.349 A 
ENDROOT
BRANCH  10  11
ATOM     11  O   UNL     1       0.702  -3.018   7.081  0.00  0.00    -0.492 OA
ATOM     12  H   UNL     1       1.615  -3.219   7.329  0.00  0.00    +0.396 HD
ENDBRANCH  10  11
BRANCH  14  15
ATOM     15  O   UNL     1       0.441   1.217   4.951  0.00  0.00    -0.467 OA
ATOM     16  H   UNL     1       1.317   1.623   4.891  0.00  0.00    +0.396 HD
ENDBRANCH  14  15
TORSDOF 2
