REMARK  Name = ZINC95485888
REMARK  18 active torsions:
REMARK  status: ('A' for Active; 'I' for Inactive)
REMARK    1  A    between atoms: C1_1  and  N1_2
REMARK    2  A    between atoms: C6_7  and  O6_51
REMARK    3  A    between atoms: C7_8  and  C19_22
REMARK    4  A    between atoms: C10_11  and  C11_13
REMARK    5  A    between atoms: C11_13  and  C12_14
REMARK    6  A    between atoms: C17_19  and  O1_20
REMARK    7  A    between atoms: O1_20  and  C18_21
REMARK    8  A    between atoms: C19_22  and  C20_23
REMARK    9  A    between atoms: C24_27  and  O3_31
REMARK   10  A    between atoms: C25_28  and  O2_29
REMARK   11  A    between atoms: O2_29  and  C26_30
REMARK   12  A    between atoms: O3_31  and  C27_32
REMARK   13  A    between atoms: C31_37  and  O5_49
REMARK   14  A    between atoms: C32_38  and  O4_47
REMARK   15  A    between atoms: N2_45  and  C38_46
REMARK   16  A    between atoms: O4_47  and  C39_48
REMARK   17  A    between atoms: O5_49  and  C40_50
REMARK   18  A    between atoms: O6_51  and  C41_52
REMARK                            x       y       z     vdW  Elec       q    Type
REMARK                         _______ _______ _______ _____ _____    ______ ____
ROOT
ATOM     12  C   UNL     1       0.208  -5.272   4.530  0.00  0.00    -0.061 A 
ATOM     13  C   UNL     1      -0.851  -4.534   5.059  0.00  0.00    -0.051 A 
ATOM     14  C   UNL     1      -2.084  -5.106   5.202  0.00  0.00    -0.107 A 
ATOM     15  C   UNL     1      -3.312  -4.429   5.721  0.00  0.00    +0.301 C 
ATOM     16  C   UNL     1      -3.621  -3.106   5.110  0.00  0.00    -0.143 A 
ATOM     17  C   UNL     1      -4.690  -2.888   4.270  0.00  0.00    +0.013 A 
ATOM     18  C   UNL     1      -4.918  -1.615   3.767  0.00  0.00    +0.108 A 
ATOM     21  C   UNL     1      -4.072  -0.563   4.109  0.00  0.00    +0.147 A 
ATOM     24  C   UNL     1      -2.989  -0.791   4.949  0.00  0.00    -0.007 A 
ATOM     25  C   UNL     1      -2.768  -2.056   5.431  0.00  0.00    -0.071 A 
ATOM     26  C   UNL     1      -1.598  -2.436   6.290  0.00  0.00    +0.070 C 
ATOM     27  C   UNL     1      -2.081  -3.251   7.480  0.00  0.00    +0.259 C 
ATOM     28  N   UNL     1      -3.106  -4.214   7.167  0.00  0.00    -0.376 N 
ATOM     29  H   UNL     1      -3.976  -3.906   7.575  0.00  0.00    +0.424 HD
ATOM     30  C   UNL     1      -2.726  -5.491   7.785  0.00  0.00    +0.318 C 
ATOM     31  C   UNL     1      -2.256  -6.443   4.824  0.00  0.00    -0.058 A 
ATOM     32  C   UNL     1      -1.214  -7.180   4.304  0.00  0.00    +0.116 A 
ATOM     35  C   UNL     1      -0.550  -3.125   5.454  0.00  0.00    +0.109 C 
ATOM     36  C   UNL     1       0.035  -6.586   4.145  0.00  0.00    +0.122 A 
ENDROOT
BRANCH  18  19
ATOM     19  O   UNL     1      -5.971  -1.394   2.936  0.00  0.00    -0.297 OA
ATOM     20  C   UNL     1      -6.800  -2.516   2.626  0.00  0.00    +0.246 C 
ENDBRANCH  18  19
BRANCH  21  22
ATOM     22  O   UNL     1      -4.306   0.685   3.622  0.00  0.00    -0.288 OA
ATOM     23  C   UNL     1      -3.397   1.715   4.016  0.00  0.00    +0.246 C 
ENDBRANCH  21  22
BRANCH  32  33
ATOM     33  O   UNL     1      -1.406  -8.477   3.943  0.00  0.00    -0.297 OA
ATOM     34  C   UNL     1      -2.717  -9.015   4.130  0.00  0.00    +0.244 C 
ENDBRANCH  32  33
BRANCH  36  37
ATOM     37  O   UNL     1       1.072  -7.292   3.622  0.00  0.00    -0.291 OA
ATOM     38  C   UNL     1       1.894  -8.015   4.540  0.00  0.00    +0.225 C 
ENDBRANCH  36  37
BRANCH  12  11
ATOM     11  C   UNL     1       1.559  -4.623   4.372  0.00  0.00    +0.146 C 
BRANCH  11  10
ATOM      1  C   UNL     1       0.929   1.331   0.044  0.00  0.00    +0.189 C 
ATOM      2  N   UNL     1       1.040  -0.130   0.161  0.00  0.00    -0.523 NA
ATOM      3  C   UNL     1       2.075  -0.654  -0.744  0.00  0.00    +0.171 C 
ATOM      4  C   UNL     1       1.900  -2.168  -0.856  0.00  0.00    +0.086 C 
ATOM      5  C   UNL     1       1.809  -2.779   0.519  0.00  0.00    -0.016 A 
ATOM      6  C   UNL     1       2.007  -4.145   0.649  0.00  0.00    -0.083 A 
ATOM      7  C   UNL     1       1.928  -4.747   1.894  0.00  0.00    +0.146 A 
ATOM     10  C   UNL     1       1.649  -3.977   3.014  0.00  0.00    -0.122 A 
ATOM     39  C   UNL     1       1.456  -2.618   2.881  0.00  0.00    +0.050 A 
ATOM     40  C   UNL     1       1.538  -2.014   1.634  0.00  0.00    -0.111 A 
ATOM     41  C   UNL     1       1.328  -0.525   1.544  0.00  0.00    +0.189 C 
BRANCH   7   8
ATOM      8  O   UNL     1       2.121  -6.086   2.018  0.00  0.00    -0.281 OA
ATOM      9  C   UNL     1       2.403  -6.814   0.821  0.00  0.00    +0.231 C 
ENDBRANCH   7   8
BRANCH  41  42
ATOM     42  C   UNL     1       0.153  -0.126   2.438  0.00  0.00    +0.101 C 
BRANCH  42  43
ATOM     43  C   UNL     1       0.079   1.377   2.529  0.00  0.00    -0.114 A 
ATOM     44  C   UNL     1       1.123   2.087   3.089  0.00  0.00    +0.038 A 
ATOM     45  C   UNL     1       1.056   3.466   3.174  0.00  0.00    -0.029 A 
ATOM     46  C   UNL     1      -0.056   4.137   2.698  0.00  0.00    +0.047 A 
ATOM     47  C   UNL     1      -1.102   3.431   2.136  0.00  0.00    -0.085 A 
ATOM     48  C   UNL     1      -1.035   2.048   2.046  0.00  0.00    +0.134 A 
BRANCH  48  49
ATOM     49  O   UNL     1      -2.061   1.351   1.489  0.00  0.00    -0.304 OA
ATOM     50  C   UNL     1      -3.175   2.108   1.013  0.00  0.00    +0.237 C 
ENDBRANCH  48  49
ENDBRANCH  42  43
ENDBRANCH  41  42
ENDBRANCH  11  10
ENDBRANCH  12  11
TORSDOF 10
