REMARK  Name = ZINC95485966
REMARK  17 active torsions:
REMARK  status: ('A' for Active; 'I' for Inactive)
REMARK    1  A    between atoms: C1_1  and  C2_2
REMARK    2  A    between atoms: C3_3  and  C28_33
REMARK    3  A    between atoms: C10_10  and  O1_18
REMARK    4  A    between atoms: C11_11  and  C12_12
REMARK    5  A    between atoms: C12_12  and  C13_13
REMARK    6  A    between atoms: C13_13  and  C14_14
REMARK    7  A    between atoms: C15_15  and  C16_16
REMARK    8  A    between atoms: C15_15  and  C17_17
REMARK    9  A    between atoms: C21_24  and  C22_26
REMARK   10  A    between atoms: C22_26  and  C23_27
REMARK   11  A    between atoms: C23_27  and  C24_28
REMARK   12  A    between atoms: C25_29  and  C26_30
REMARK   13  A    between atoms: C25_29  and  C27_31
REMARK   14  A    between atoms: C28_33  and  C29_34
REMARK   15  A    between atoms: C29_34  and  C30_35
REMARK   16  A    between atoms: C31_36  and  C32_37
REMARK   17  A    between atoms: C31_36  and  C33_38
REMARK                            x       y       z     vdW  Elec       q    Type
REMARK                         _______ _______ _______ _____ _____    ______ ____
ROOT
ATOM      1  C   UNL     1       2.558   4.904  -3.709  0.00  0.00    +0.076 C 
ATOM      2  C   UNL     1       1.478   3.943  -3.283  0.00  0.00    -0.042 A 
ATOM      3  C   UNL     1       1.030   3.004  -4.164  0.00  0.00    -0.131 A 
ATOM     10  C   UNL     1       0.025   2.104  -3.781  0.00  0.00    +0.053 A 
ATOM     11  C   UNL     1      -0.460   1.133  -4.678  0.00  0.00    -0.159 A 
ATOM     12  C   UNL     1      -1.436   0.263  -4.303  0.00  0.00    +0.050 A 
ATOM     13  C   UNL     1      -1.930  -0.729  -5.326  0.00  0.00    +0.003 C 
ATOM     20  C   UNL     1      -2.696  -1.839  -4.651  0.00  0.00    +0.386 C 
ATOM     21  O   UNL     1      -2.496  -2.996  -4.935  0.00  0.00    -0.461 OA
ATOM     22  C   UNL     1      -3.724  -1.455  -3.604  0.00  0.00    +0.003 C 
ATOM     23  C   UNL     1      -2.992  -0.642  -2.558  0.00  0.00    +0.406 C 
ATOM     24  O   UNL     1      -3.248  -0.776  -1.379  0.00  0.00    -0.457 OA
ATOM     25  C   UNL     1      -1.966   0.311  -2.999  0.00  0.00    -0.382 A 
ATOM     26  C   UNL     1      -1.512   1.270  -2.085  0.00  0.00    +0.343 A 
ATOM     27  O   UNL     1      -2.034   1.322  -0.837  0.00  0.00    -0.615 OA
ATOM     28  C   UNL     1      -0.512   2.179  -2.472  0.00  0.00    -0.176 A 
ATOM     29  C   UNL     1      -0.033   3.160  -1.582  0.00  0.00    +0.184 A 
ATOM     32  C   UNL     1       0.958   4.025  -1.996  0.00  0.00    -0.178 A 
ENDROOT
BRANCH  29  30
ATOM     30  O   UNL     1      -0.539   3.251  -0.326  0.00  0.00    -0.472 OA
ATOM     31  H   UNL     1      -0.069   2.714   0.327  0.00  0.00    +0.382 HD
ENDBRANCH  29  30
BRANCH   3   4
ATOM      4  C   UNL     1       1.616   2.933  -5.551  0.00  0.00    +0.072 C 
BRANCH   4   5
ATOM      5  C   UNL     1       2.803   1.969  -5.554  0.00  0.00    +0.053 C 
BRANCH   5   6
ATOM      6  C   UNL     1       3.389   1.898  -6.941  0.00  0.00    -0.054 C 
ATOM      7  C   UNL     1       3.565   0.735  -7.519  0.00  0.00    -0.141 C 
ATOM      8  C   UNL     1       4.135   0.665  -8.912  0.00  0.00    +0.066 C 
ATOM      9  C   UNL     1       3.197  -0.532  -6.791  0.00  0.00    +0.071 C 
ENDBRANCH   5   6
ENDBRANCH   4   5
ENDBRANCH   3   4
BRANCH  13  14
ATOM     14  C   UNL     1      -2.846  -0.015  -6.322  0.00  0.00    +0.060 C 
BRANCH  14  15
ATOM     15  C   UNL     1      -3.250  -0.988  -7.432  0.00  0.00    +0.041 C 
BRANCH  15  16
ATOM     16  C   UNL     1      -4.152  -0.284  -8.413  0.00  0.00    -0.047 C 
ATOM     17  C   UNL     1      -3.764  -0.113  -9.652  0.00  0.00    -0.141 C 
ATOM     18  C   UNL     1      -4.651   0.621 -10.624  0.00  0.00    +0.069 C 
ATOM     19  C   UNL     1      -2.432  -0.650 -10.106  0.00  0.00    +0.071 C 
ENDBRANCH  15  16
ENDBRANCH  14  15
ENDBRANCH  13  14
BRANCH  32  33
ATOM     33  C   UNL     1       1.479   5.073  -1.047  0.00  0.00    +0.072 C 
BRANCH  33  34
ATOM     34  C   UNL     1       0.648   6.350  -1.190  0.00  0.00    +0.055 C 
BRANCH  34  35
ATOM     35  C   UNL     1       1.169   7.398  -0.241  0.00  0.00    -0.054 C 
ATOM     36  C   UNL     1       0.344   8.022   0.562  0.00  0.00    -0.141 C 
ATOM     37  C   UNL     1       0.881   8.943   1.628  0.00  0.00    +0.066 C 
ATOM     38  C   UNL     1      -1.143   7.821   0.420  0.00  0.00    +0.070 C 
ENDBRANCH  34  35
ENDBRANCH  33  34
ENDBRANCH  32  33
TORSDOF 10
