REMARK  Name = ZINC95485881
REMARK  8 active torsions:
REMARK  status: ('A' for Active; 'I' for Inactive)
REMARK    1  A    between atoms: C1_1  and  C2_2
REMARK    2  A    between atoms: C5_5  and  C13_15
REMARK    3  A    between atoms: C8_8  and  O2_14
REMARK    4  A    between atoms: C10_10  and  O1_12
REMARK    5  A    between atoms: O1_12  and  C12_13
REMARK    6  A    between atoms: C16_18  and  O3_29
REMARK    7  A    between atoms: C20_22  and  C23_28
REMARK    8  A    between atoms: C21_25  and  C22_27
REMARK                            x       y       z     vdW  Elec       q    Type
REMARK                         _______ _______ _______ _____ _____    ______ ____
ROOT
ATOM      1  C   UNL     1      -0.806   0.915  -0.298  0.00  0.00    +0.093 C 
ATOM      2  C   UNL     1      -0.682  -0.583  -0.405  0.00  0.00    -0.031 A 
ATOM      3  C   UNL     1      -0.473  -1.153  -1.625  0.00  0.00    -0.027 A 
ATOM      4  C   UNL     1      -0.356  -2.546  -1.735  0.00  0.00    +0.019 A 
ATOM      5  C   UNL     1      -0.138  -3.164  -2.990  0.00  0.00    -0.058 A 
ATOM     21  C   UNL     1      -0.027  -4.542  -3.063  0.00  0.00    +0.061 A 
ATOM     22  C   UNL     1      -0.128  -5.324  -1.920  0.00  0.00    -0.028 A 
ATOM     23  C   UNL     1      -0.340  -4.749  -0.685  0.00  0.00    +0.149 A 
ATOM     26  C   UNL     1      -0.457  -3.349  -0.575  0.00  0.00    -0.102 A 
ATOM     27  C   UNL     1      -0.674  -2.734   0.674  0.00  0.00    +0.160 A 
ATOM     30  C   UNL     1      -0.778  -1.362   0.744  0.00  0.00    -0.097 A 
ENDROOT
BRANCH   5   6
ATOM      6  C   UNL     1      -0.030  -2.342  -4.218  0.00  0.00    -0.052 A 
ATOM      7  C   UNL     1      -0.995  -2.455  -5.217  0.00  0.00    +0.042 A 
ATOM      8  C   UNL     1      -0.890  -1.688  -6.358  0.00  0.00    -0.019 A 
ATOM      9  C   UNL     1       0.174  -0.812  -6.508  0.00  0.00    +0.118 A 
ATOM     12  C   UNL     1       1.141  -0.695  -5.513  0.00  0.00    -0.133 A 
ATOM     13  C   UNL     1       2.279   0.268  -5.729  0.00  0.00    +0.228 C 
ATOM     14  C   UNL     1       1.735   1.564  -6.334  0.00  0.00    +0.041 C 
ATOM     15  N   UNL     1       2.934   0.582  -4.451  0.00  0.00    -0.670 NA
ATOM     16  H   UNL     1       2.343   1.151  -3.864  0.00  0.00    +0.342 HD
ATOM     17  C   UNL     1       3.318  -0.663  -3.766  0.00  0.00    +0.170 C 
ATOM     18  C   UNL     1       4.044  -1.589  -4.743  0.00  0.00    +0.032 C 
ATOM     19  C   UNL     1       2.049  -1.347  -3.256  0.00  0.00    +0.050 C 
ATOM     20  C   UNL     1       1.038  -1.450  -4.368  0.00  0.00    -0.042 A 
BRANCH   9  10
ATOM     10  O   UNL     1       0.273  -0.060  -7.635  0.00  0.00    -0.493 OA
ATOM     11  H   UNL     1      -0.243   0.758  -7.610  0.00  0.00    +0.390 HD
ENDBRANCH   9  10
ENDBRANCH   5   6
BRANCH  23  24
ATOM     24  O   UNL     1      -0.435  -5.530   0.421  0.00  0.00    -0.481 OA
ATOM     25  H   UNL     1       0.410  -5.692   0.862  0.00  0.00    +0.392 HD
ENDBRANCH  23  24
BRANCH  27  28
ATOM     28  O   UNL     1      -0.774  -3.486   1.800  0.00  0.00    -0.295 OA
ATOM     29  C   UNL     1      -0.994  -2.789   3.028  0.00  0.00    +0.240 C 
ENDBRANCH  27  28
TORSDOF 4
