MODEL 1
REMARK VINA RESULT:      -6.0      0.000      0.000
REMARK  Name = ZINC85967903
REMARK  12 active torsions:
REMARK  status: ('A' for Active; 'I' for Inactive)
REMARK    1  A    between atoms: C1_1  and  C2_2
REMARK    2  A    between atoms: C2_2  and  C3_3
REMARK    3  A    between atoms: C2_2  and  C4_4
REMARK    4  A    between atoms: C10_10  and  C19_21
REMARK    5  A    between atoms: C10_10  and  C20_22
REMARK    6  A    between atoms: C14_14  and  C18_20
REMARK    7  A    between atoms: C16_16  and  O2_19
REMARK    8  A    between atoms: C20_22  and  O3_23
REMARK    9  A    between atoms: O3_23  and  C21_24
REMARK   10  A    between atoms: C21_24  and  C22_26
REMARK   11  A    between atoms: C23_27  and  C24_28
REMARK   12  A    between atoms: C23_27  and  C25_29
REMARK                            x       y       z     vdW  Elec       q    Type
REMARK                         _______ _______ _______ _____ _____    ______ ____
ROOT
ATOM      3  C   UNL     1      42.096  19.968  19.476  0.00  0.00    -0.193 C 
ATOM      4  C   UNL     1      43.198  20.027  18.686  0.00  0.00    +0.109 C 
ATOM      5  C   UNL     1      44.322  19.219  18.980  0.00  0.00    -0.110 C 
ATOM      6  C   UNL     1      45.454  19.263  18.166  0.00  0.00    +0.144 C 
ATOM      7  C   UNL     1      46.582  18.466  18.392  0.00  0.00    -0.035 C 
ATOM      8  C   UNL     1      46.663  17.622  19.426  0.00  0.00    -0.016 C 
ATOM      9  C   UNL     1      47.860  16.727  19.625  0.00  0.00    -0.021 C 
ATOM     18  C   UNL     1      48.801  16.850  18.426  0.00  0.00    +0.055 C 
ATOM     19  C   UNL     1      47.365  15.280  19.747  0.00  0.00    +0.044 C 
ATOM     20  C   UNL     1      46.292  15.199  20.835  0.00  0.00    +0.012 C 
ATOM     21  C   UNL     1      45.090  16.065  20.452  0.00  0.00    +0.046 C 
ATOM     22  C   UNL     1      45.514  17.534  20.410  0.00  0.00    +0.010 C 
ATOM     23  C   UNL     1      46.039  17.916  21.797  0.00  0.00    +0.059 C 
ATOM     24  C   UNL     1      44.290  18.364  20.110  0.00  0.00    -0.052 C 
ATOM     25  C   UNL     1      43.190  18.303  20.897  0.00  0.00    +0.018 C 
ATOM     28  C   UNL     1      42.065  19.111  20.593  0.00  0.00    +0.388 C 
ATOM     29  O   UNL     1      41.067  19.061  21.299  0.00  0.00    -0.471 OA
ENDROOT
BRANCH   3   2
ATOM      1  C   UNL     1      41.374  22.229  18.755  0.00  0.00    +0.028 C 
ATOM      2  C   UNL     1      40.901  20.830  19.158  0.00  0.00    +0.038 C 
ATOM     30  C   UNL     1      40.113  20.206  18.006  0.00  0.00    +0.027 C 
ENDBRANCH   3   2
BRANCH  25  26
ATOM     26  O   UNL     1      43.165  17.474  21.974  0.00  0.00    -0.459 OA
ATOM     27  H   UNL     1      43.473  16.577  21.788  0.00  0.00    +0.399 HD
ENDBRANCH  25  26
BRANCH   9  10
ATOM     10  C   UNL     1      48.597  17.129  20.904  0.00  0.00    +0.225 C 
BRANCH  10  11
ATOM     11  O   UNL     1      49.803  17.815  20.563  0.00  0.00    -0.345 OA
BRANCH  11  12
ATOM     12  C   UNL     1      50.026  18.999  21.169  0.00  0.00    +0.493 C 
ATOM     17  O   UNL     1      51.152  19.304  21.511  0.00  0.00    -0.507 OA
BRANCH  12  13
ATOM     13  C   UNL     1      48.908  19.919  21.415  0.00  0.00    -0.082 C 
ATOM     14  C   UNL     1      48.466  20.706  20.436  0.00  0.00    -0.012 C 
ATOM     15  C   UNL     1      47.217  21.525  20.634  0.00  0.00    +0.107 C 
ATOM     16  C   UNL     1      49.215  20.777  19.130  0.00  0.00    +0.102 C 
ENDBRANCH  12  13
ENDBRANCH  11  12
ENDBRANCH  10  11
ENDBRANCH   9  10
TORSDOF 6
ENDMDL
MODEL 2
REMARK VINA RESULT:      -5.7      2.268      6.512
REMARK  Name = ZINC85967903
REMARK  12 active torsions:
REMARK  status: ('A' for Active; 'I' for Inactive)
REMARK    1  A    between atoms: C1_1  and  C2_2
REMARK    2  A    between atoms: C2_2  and  C3_3
REMARK    3  A    between atoms: C2_2  and  C4_4
REMARK    4  A    between atoms: C10_10  and  C19_21
REMARK    5  A    between atoms: C10_10  and  C20_22
REMARK    6  A    between atoms: C14_14  and  C18_20
REMARK    7  A    between atoms: C16_16  and  O2_19
REMARK    8  A    between atoms: C20_22  and  O3_23
REMARK    9  A    between atoms: O3_23  and  C21_24
REMARK   10  A    between atoms: C21_24  and  C22_26
REMARK   11  A    between atoms: C23_27  and  C24_28
REMARK   12  A    between atoms: C23_27  and  C25_29
REMARK                            x       y       z     vdW  Elec       q    Type
REMARK                         _______ _______ _______ _____ _____    ______ ____
ROOT
ATOM      3  C   UNL     1      50.838  19.377  17.954  0.00  0.00    -0.193 C 
ATOM      4  C   UNL     1      50.208  19.836  19.063  0.00  0.00    +0.109 C 
ATOM      5  C   UNL     1      48.973  19.269  19.461  0.00  0.00    -0.110 C 
ATOM      6  C   UNL     1      48.325  19.726  20.609  0.00  0.00    +0.144 C 
ATOM      7  C   UNL     1      47.118  19.183  21.064  0.00  0.00    -0.035 C 
ATOM      8  C   UNL     1      46.485  18.202  20.410  0.00  0.00    -0.016 C 
ATOM      9  C   UNL     1      45.215  17.587  20.942  0.00  0.00    -0.021 C 
ATOM     18  C   UNL     1      44.915  18.147  22.333  0.00  0.00    +0.055 C 
ATOM     19  C   UNL     1      45.415  16.069  21.028  0.00  0.00    +0.044 C 
ATOM     20  C   UNL     1      45.886  15.540  19.672  0.00  0.00    +0.012 C 
ATOM     21  C   UNL     1      47.237  16.161  19.307  0.00  0.00    +0.046 C 
ATOM     22  C   UNL     1      47.068  17.668  19.118  0.00  0.00    +0.010 C 
ATOM     23  C   UNL     1      46.048  17.896  18.000  0.00  0.00    +0.059 C 
ATOM     24  C   UNL     1      48.398  18.234  18.681  0.00  0.00    -0.052 C 
ATOM     25  C   UNL     1      49.028  17.775  17.575  0.00  0.00    +0.018 C 
ATOM     28  C   UNL     1      50.267  18.343  17.186  0.00  0.00    +0.388 C 
ATOM     29  O   UNL     1      50.843  17.932  16.188  0.00  0.00    -0.471 OA
ENDROOT
BRANCH   3   2
ATOM      1  C   UNL     1      51.912  21.003  16.420  0.00  0.00    +0.028 C 
ATOM      2  C   UNL     1      52.153  19.983  17.535  0.00  0.00    +0.038 C 
ATOM     30  C   UNL     1      52.798  20.680  18.734  0.00  0.00    +0.027 C 
ENDBRANCH   3   2
BRANCH  25  26
ATOM     26  O   UNL     1      48.473  16.776  16.837  0.00  0.00    -0.459 OA
ATOM     27  H   UNL     1      48.347  16.999  15.905  0.00  0.00    +0.399 HD
ENDBRANCH  25  26
BRANCH   9  10
ATOM     10  C   UNL     1      44.054  17.902  19.997  0.00  0.00    +0.225 C 
BRANCH  10  11
ATOM     11  O   UNL     1      43.307  19.007  20.511  0.00  0.00    -0.345 OA
BRANCH  11  12
ATOM     12  C   UNL     1      43.377  20.166  19.826  0.00  0.00    +0.493 C 
ATOM     17  O   UNL     1      43.002  20.213  18.671  0.00  0.00    -0.507 OA
BRANCH  12  13
ATOM     13  C   UNL     1      43.909  21.371  20.477  0.00  0.00    -0.082 C 
ATOM     14  C   UNL     1      44.939  22.019  19.937  0.00  0.00    -0.012 C 
ATOM     15  C   UNL     1      45.377  23.344  20.505  0.00  0.00    +0.107 C 
ATOM     16  C   UNL     1      45.667  21.427  18.758  0.00  0.00    +0.102 C 
ENDBRANCH  12  13
ENDBRANCH  11  12
ENDBRANCH  10  11
ENDBRANCH   9  10
TORSDOF 6
ENDMDL
MODEL 3
REMARK VINA RESULT:      -5.3      2.071      3.865
REMARK  Name = ZINC85967903
REMARK  12 active torsions:
REMARK  status: ('A' for Active; 'I' for Inactive)
REMARK    1  A    between atoms: C1_1  and  C2_2
REMARK    2  A    between atoms: C2_2  and  C3_3
REMARK    3  A    between atoms: C2_2  and  C4_4
REMARK    4  A    between atoms: C10_10  and  C19_21
REMARK    5  A    between atoms: C10_10  and  C20_22
REMARK    6  A    between atoms: C14_14  and  C18_20
REMARK    7  A    between atoms: C16_16  and  O2_19
REMARK    8  A    between atoms: C20_22  and  O3_23
REMARK    9  A    between atoms: O3_23  and  C21_24
REMARK   10  A    between atoms: C21_24  and  C22_26
REMARK   11  A    between atoms: C23_27  and  C24_28
REMARK   12  A    between atoms: C23_27  and  C25_29
REMARK                            x       y       z     vdW  Elec       q    Type
REMARK                         _______ _______ _______ _____ _____    ______ ____
ROOT
ATOM      3  C   UNL     1      42.710  20.264  19.731  0.00  0.00    -0.193 C 
ATOM      4  C   UNL     1      43.354  19.085  19.918  0.00  0.00    +0.109 C 
ATOM      5  C   UNL     1      44.762  19.063  20.059  0.00  0.00    -0.110 C 
ATOM      6  C   UNL     1      45.432  17.856  20.264  0.00  0.00    +0.144 C 
ATOM      7  C   UNL     1      46.818  17.779  20.439  0.00  0.00    -0.035 C 
ATOM      8  C   UNL     1      47.604  18.861  20.394  0.00  0.00    -0.016 C 
ATOM      9  C   UNL     1      49.089  18.771  20.641  0.00  0.00    -0.021 C 
ATOM     18  C   UNL     1      49.453  17.350  21.076  0.00  0.00    +0.055 C 
ATOM     19  C   UNL     1      49.453  19.762  21.753  0.00  0.00    +0.044 C 
ATOM     20  C   UNL     1      48.927  21.152  21.389  0.00  0.00    +0.012 C 
ATOM     21  C   UNL     1      47.401  21.124  21.279  0.00  0.00    +0.046 C 
ATOM     22  C   UNL     1      46.991  20.219  20.118  0.00  0.00    +0.010 C 
ATOM     23  C   UNL     1      47.616  20.776  18.837  0.00  0.00    +0.059 C 
ATOM     24  C   UNL     1      45.489  20.278  19.989  0.00  0.00    -0.052 C 
ATOM     25  C   UNL     1      44.846  21.455  19.805  0.00  0.00    +0.018 C 
ATOM     28  C   UNL     1      43.434  21.470  19.670  0.00  0.00    +0.388 C 
ATOM     29  O   UNL     1      42.847  22.530  19.505  0.00  0.00    -0.471 OA
ENDROOT
BRANCH   3   2
ATOM      1  C   UNL     1      40.836  19.904  18.147  0.00  0.00    +0.028 C 
ATOM      2  C   UNL     1      41.210  20.282  19.583  0.00  0.00    +0.038 C 
ATOM     30  C   UNL     1      40.589  19.277  20.553  0.00  0.00    +0.027 C 
ENDBRANCH   3   2
BRANCH  25  26
ATOM     26  O   UNL     1      45.550  22.617  19.746  0.00  0.00    -0.459 OA
ATOM     27  H   UNL     1      45.210  23.313  20.325  0.00  0.00    +0.399 HD
ENDBRANCH  25  26
BRANCH   9  10
ATOM     10  C   UNL     1      49.847  19.130  19.362  0.00  0.00    +0.225 C 
BRANCH  10  11
ATOM     11  O   UNL     1      50.479  17.960  18.838  0.00  0.00    -0.345 OA
BRANCH  11  12
ATOM     12  C   UNL     1      50.235  17.659  17.547  0.00  0.00    +0.493 C 
ATOM     17  O   UNL     1      51.154  17.364  16.807  0.00  0.00    -0.507 OA
BRANCH  12  13
ATOM     13  C   UNL     1      48.859  17.687  17.034  0.00  0.00    -0.082 C 
ATOM     14  C   UNL     1      48.045  16.657  17.256  0.00  0.00    -0.012 C 
ATOM     15  C   UNL     1      46.589  16.752  16.880  0.00  0.00    +0.107 C 
ATOM     16  C   UNL     1      48.581  15.395  17.883  0.00  0.00    +0.102 C 
ENDBRANCH  12  13
ENDBRANCH  11  12
ENDBRANCH  10  11
ENDBRANCH   9  10
TORSDOF 6
ENDMDL
MODEL 4
REMARK VINA RESULT:      -5.2      1.973      2.815
REMARK  Name = ZINC85967903
REMARK  12 active torsions:
REMARK  status: ('A' for Active; 'I' for Inactive)
REMARK    1  A    between atoms: C1_1  and  C2_2
REMARK    2  A    between atoms: C2_2  and  C3_3
REMARK    3  A    between atoms: C2_2  and  C4_4
REMARK    4  A    between atoms: C10_10  and  C19_21
REMARK    5  A    between atoms: C10_10  and  C20_22
REMARK    6  A    between atoms: C14_14  and  C18_20
REMARK    7  A    between atoms: C16_16  and  O2_19
REMARK    8  A    between atoms: C20_22  and  O3_23
REMARK    9  A    between atoms: O3_23  and  C21_24
REMARK   10  A    between atoms: C21_24  and  C22_26
REMARK   11  A    between atoms: C23_27  and  C24_28
REMARK   12  A    between atoms: C23_27  and  C25_29
REMARK                            x       y       z     vdW  Elec       q    Type
REMARK                         _______ _______ _______ _____ _____    ______ ____
ROOT
ATOM      3  C   UNL     1      43.916  19.320  19.661  0.00  0.00    -0.193 C 
ATOM      4  C   UNL     1      44.770  19.155  18.620  0.00  0.00    +0.109 C 
ATOM      5  C   UNL     1      45.554  17.979  18.530  0.00  0.00    -0.110 C 
ATOM      6  C   UNL     1      46.425  17.795  17.455  0.00  0.00    +0.144 C 
ATOM      7  C   UNL     1      47.202  16.642  17.300  0.00  0.00    -0.035 C 
ATOM      8  C   UNL     1      47.184  15.644  18.190  0.00  0.00    -0.016 C 
ATOM      9  C   UNL     1      47.983  14.382  17.981  0.00  0.00    -0.021 C 
ATOM     18  C   UNL     1      48.628  14.405  16.595  0.00  0.00    +0.055 C 
ATOM     19  C   UNL     1      47.030  13.185  18.088  0.00  0.00    +0.044 C 
ATOM     20  C   UNL     1      46.257  13.266  19.406  0.00  0.00    +0.012 C 
ATOM     21  C   UNL     1      45.404  14.537  19.438  0.00  0.00    +0.046 C 
ATOM     22  C   UNL     1      46.318  15.762  19.428  0.00  0.00    +0.010 C 
ATOM     23  C   UNL     1      47.226  15.688  20.658  0.00  0.00    +0.059 C 
ATOM     24  C   UNL     1      45.450  16.992  19.541  0.00  0.00    -0.052 C 
ATOM     25  C   UNL     1      44.597  17.156  20.578  0.00  0.00    +0.018 C 
ATOM     28  C   UNL     1      43.809  18.332  20.660  0.00  0.00    +0.388 C 
ATOM     29  O   UNL     1      43.035  18.487  21.594  0.00  0.00    -0.471 OA
ENDROOT
BRANCH   3   2
ATOM      1  C   UNL     1      43.986  21.798  19.605  0.00  0.00    +0.028 C 
ATOM      2  C   UNL     1      43.082  20.572  19.753  0.00  0.00    +0.038 C 
ATOM     30  C   UNL     1      42.036  20.571  18.637  0.00  0.00    +0.027 C 
ENDBRANCH   3   2
BRANCH  25  26
ATOM     26  O   UNL     1      44.497  16.200  21.540  0.00  0.00    -0.459 OA
ATOM     27  H   UNL     1      44.234  15.331  21.206  0.00  0.00    +0.399 HD
ENDBRANCH  25  26
BRANCH   9  10
ATOM     10  C   UNL     1      49.068  14.275  19.054  0.00  0.00    +0.225 C 
BRANCH  10  11
ATOM     11  O   UNL     1      50.334  14.620  18.489  0.00  0.00    -0.345 OA
BRANCH  11  12
ATOM     12  C   UNL     1      51.075  15.528  19.155  0.00  0.00    +0.493 C 
ATOM     17  O   UNL     1      52.258  15.326  19.346  0.00  0.00    -0.507 OA
BRANCH  12  13
ATOM     13  C   UNL     1      50.451  16.763  19.650  0.00  0.00    -0.082 C 
ATOM     14  C   UNL     1      50.214  17.771  18.813  0.00  0.00    -0.012 C 
ATOM     15  C   UNL     1      49.425  18.967  19.278  0.00  0.00    +0.107 C 
ATOM     16  C   UNL     1      50.735  17.714  17.400  0.00  0.00    +0.102 C 
ENDBRANCH  12  13
ENDBRANCH  11  12
ENDBRANCH  10  11
ENDBRANCH   9  10
TORSDOF 6
ENDMDL
MODEL 5
REMARK VINA RESULT:      -5.0      3.072      7.003
REMARK  Name = ZINC85967903
REMARK  12 active torsions:
REMARK  status: ('A' for Active; 'I' for Inactive)
REMARK    1  A    between atoms: C1_1  and  C2_2
REMARK    2  A    between atoms: C2_2  and  C3_3
REMARK    3  A    between atoms: C2_2  and  C4_4
REMARK    4  A    between atoms: C10_10  and  C19_21
REMARK    5  A    between atoms: C10_10  and  C20_22
REMARK    6  A    between atoms: C14_14  and  C18_20
REMARK    7  A    between atoms: C16_16  and  O2_19
REMARK    8  A    between atoms: C20_22  and  O3_23
REMARK    9  A    between atoms: O3_23  and  C21_24
REMARK   10  A    between atoms: C21_24  and  C22_26
REMARK   11  A    between atoms: C23_27  and  C24_28
REMARK   12  A    between atoms: C23_27  and  C25_29
REMARK                            x       y       z     vdW  Elec       q    Type
REMARK                         _______ _______ _______ _____ _____    ______ ____
ROOT
ATOM      3  C   UNL     1      47.532  12.825  16.566  0.00  0.00    -0.193 C 
ATOM      4  C   UNL     1      47.219  14.082  16.164  0.00  0.00    +0.109 C 
ATOM      5  C   UNL     1      46.840  15.055  17.120  0.00  0.00    -0.110 C 
ATOM      6  C   UNL     1      46.528  16.354  16.717  0.00  0.00    +0.144 C 
ATOM      7  C   UNL     1      46.176  17.363  17.620  0.00  0.00    -0.035 C 
ATOM      8  C   UNL     1      46.086  17.143  18.936  0.00  0.00    -0.016 C 
ATOM      9  C   UNL     1      45.761  18.253  19.904  0.00  0.00    -0.021 C 
ATOM     18  C   UNL     1      45.721  19.589  19.161  0.00  0.00    +0.055 C 
ATOM     19  C   UNL     1      46.855  18.291  20.978  0.00  0.00    +0.044 C 
ATOM     20  C   UNL     1      47.009  16.900  21.597  0.00  0.00    +0.012 C 
ATOM     21  C   UNL     1      47.449  15.896  20.529  0.00  0.00    +0.046 C 
ATOM     22  C   UNL     1      46.345  15.753  19.481  0.00  0.00    +0.010 C 
ATOM     23  C   UNL     1      45.076  15.270  20.189  0.00  0.00    +0.059 C 
ATOM     24  C   UNL     1      46.777  14.699  18.490  0.00  0.00    -0.052 C 
ATOM     25  C   UNL     1      47.091  13.446  18.892  0.00  0.00    +0.018 C 
ATOM     28  C   UNL     1      47.476  12.478  17.930  0.00  0.00    +0.388 C 
ATOM     29  O   UNL     1      47.763  11.342  18.285  0.00  0.00    -0.471 OA
ENDROOT
BRANCH   3   2
ATOM      1  C   UNL     1      46.699  11.015  15.090  0.00  0.00    +0.028 C 
ATOM      2  C   UNL     1      47.936  11.792  15.545  0.00  0.00    +0.038 C 
ATOM     30  C   UNL     1      48.574  12.487  14.341  0.00  0.00    +0.027 C 
ENDBRANCH   3   2
BRANCH  25  26
ATOM     26  O   UNL     1      47.036  13.115  20.209  0.00  0.00    -0.459 OA
ATOM     27  H   UNL     1      47.630  12.395  20.459  0.00  0.00    +0.399 HD
ENDBRANCH  25  26
BRANCH   9  10
ATOM     10  C   UNL     1      44.404  17.986  20.559  0.00  0.00    +0.225 C 
BRANCH  10  11
ATOM     11  O   UNL     1      43.384  18.689  19.847  0.00  0.00    -0.345 OA
BRANCH  11  12
ATOM     12  C   UNL     1      42.354  19.172  20.571  0.00  0.00    +0.493 C 
ATOM     17  O   UNL     1      42.443  19.246  21.780  0.00  0.00    -0.507 OA
BRANCH  12  13
ATOM     13  C   UNL     1      41.124  19.610  19.896  0.00  0.00    -0.082 C 
ATOM     14  C   UNL     1      41.126  20.722  19.165  0.00  0.00    -0.012 C 
ATOM     15  C   UNL     1      39.919  21.083  18.338  0.00  0.00    +0.107 C 
ATOM     16  C   UNL     1      42.335  21.622  19.166  0.00  0.00    +0.102 C 
ENDBRANCH  12  13
ENDBRANCH  11  12
ENDBRANCH  10  11
ENDBRANCH   9  10
TORSDOF 6
ENDMDL
MODEL 6
REMARK VINA RESULT:      -5.0      2.418      3.714
REMARK  Name = ZINC85967903
REMARK  12 active torsions:
REMARK  status: ('A' for Active; 'I' for Inactive)
REMARK    1  A    between atoms: C1_1  and  C2_2
REMARK    2  A    between atoms: C2_2  and  C3_3
REMARK    3  A    between atoms: C2_2  and  C4_4
REMARK    4  A    between atoms: C10_10  and  C19_21
REMARK    5  A    between atoms: C10_10  and  C20_22
REMARK    6  A    between atoms: C14_14  and  C18_20
REMARK    7  A    between atoms: C16_16  and  O2_19
REMARK    8  A    between atoms: C20_22  and  O3_23
REMARK    9  A    between atoms: O3_23  and  C21_24
REMARK   10  A    between atoms: C21_24  and  C22_26
REMARK   11  A    between atoms: C23_27  and  C24_28
REMARK   12  A    between atoms: C23_27  and  C25_29
REMARK                            x       y       z     vdW  Elec       q    Type
REMARK                         _______ _______ _______ _____ _____    ______ ____
ROOT
ATOM      3  C   UNL     1      42.831  20.262  19.740  0.00  0.00    -0.193 C 
ATOM      4  C   UNL     1      43.429  19.064  19.958  0.00  0.00    +0.109 C 
ATOM      5  C   UNL     1      44.830  18.998  20.151  0.00  0.00    -0.110 C 
ATOM      6  C   UNL     1      45.452  17.772  20.389  0.00  0.00    +0.144 C 
ATOM      7  C   UNL     1      46.827  17.651  20.615  0.00  0.00    -0.035 C 
ATOM      8  C   UNL     1      47.649  18.706  20.591  0.00  0.00    -0.016 C 
ATOM      9  C   UNL     1      49.121  18.569  20.893  0.00  0.00    -0.021 C 
ATOM     18  C   UNL     1      49.422  17.142  21.351  0.00  0.00    +0.055 C 
ATOM     19  C   UNL     1      49.476  19.557  22.012  0.00  0.00    +0.044 C 
ATOM     20  C   UNL     1      49.010  20.960  21.619  0.00  0.00    +0.012 C 
ATOM     21  C   UNL     1      47.489  20.982  21.454  0.00  0.00    +0.046 C 
ATOM     22  C   UNL     1      47.092  20.081  20.284  0.00  0.00    +0.010 C 
ATOM     23  C   UNL     1      47.781  20.608  19.023  0.00  0.00    +0.059 C 
ATOM     24  C   UNL     1      45.598  20.188  20.099  0.00  0.00    -0.052 C 
ATOM     25  C   UNL     1      45.001  21.384  19.884  0.00  0.00    +0.018 C 
ATOM     28  C   UNL     1      43.597  21.443  19.698  0.00  0.00    +0.388 C 
ATOM     29  O   UNL     1      43.051  22.521  19.504  0.00  0.00    -0.471 OA
ENDROOT
BRANCH   3   2
ATOM      1  C   UNL     1      40.999  19.872  18.115  0.00  0.00    +0.028 C 
ATOM      2  C   UNL     1      41.340  20.328  19.536  0.00  0.00    +0.038 C 
ATOM     30  C   UNL     1      40.646  19.411  20.546  0.00  0.00    +0.027 C 
ENDBRANCH   3   2
BRANCH  25  26
ATOM     26  O   UNL     1      45.745  22.522  19.844  0.00  0.00    -0.459 OA
ATOM     27  H   UNL     1      45.791  22.991  20.687  0.00  0.00    +0.399 HD
ENDBRANCH  25  26
BRANCH   9  10
ATOM     10  C   UNL     1      49.937  18.894  19.641  0.00  0.00    +0.225 C 
BRANCH  10  11
ATOM     11  O   UNL     1      51.329  18.879  19.961  0.00  0.00    -0.345 OA
BRANCH  11  12
ATOM     12  C   UNL     1      52.195  18.858  18.928  0.00  0.00    +0.493 C 
ATOM     17  O   UNL     1      52.886  17.878  18.734  0.00  0.00    -0.507 OA
BRANCH  12  13
ATOM     13  C   UNL     1      52.302  20.021  18.037  0.00  0.00    -0.082 C 
ATOM     14  C   UNL     1      51.768  19.977  16.818  0.00  0.00    -0.012 C 
ATOM     15  C   UNL     1      51.728  21.220  15.967  0.00  0.00    +0.107 C 
ATOM     16  C   UNL     1      51.204  18.683  16.289  0.00  0.00    +0.102 C 
ENDBRANCH  12  13
ENDBRANCH  11  12
ENDBRANCH  10  11
ENDBRANCH   9  10
TORSDOF 6
ENDMDL
MODEL 7
REMARK VINA RESULT:      -4.7      4.853      7.323
REMARK  Name = ZINC85967903
REMARK  12 active torsions:
REMARK  status: ('A' for Active; 'I' for Inactive)
REMARK    1  A    between atoms: C1_1  and  C2_2
REMARK    2  A    between atoms: C2_2  and  C3_3
REMARK    3  A    between atoms: C2_2  and  C4_4
REMARK    4  A    between atoms: C10_10  and  C19_21
REMARK    5  A    between atoms: C10_10  and  C20_22
REMARK    6  A    between atoms: C14_14  and  C18_20
REMARK    7  A    between atoms: C16_16  and  O2_19
REMARK    8  A    between atoms: C20_22  and  O3_23
REMARK    9  A    between atoms: O3_23  and  C21_24
REMARK   10  A    between atoms: C21_24  and  C22_26
REMARK   11  A    between atoms: C23_27  and  C24_28
REMARK   12  A    between atoms: C23_27  and  C25_29
REMARK                            x       y       z     vdW  Elec       q    Type
REMARK                         _______ _______ _______ _____ _____    ______ ____
ROOT
ATOM      3  C   UNL     1      50.663  19.354  17.874  0.00  0.00    -0.193 C 
ATOM      4  C   UNL     1      51.347  18.320  17.325  0.00  0.00    +0.109 C 
ATOM      5  C   UNL     1      50.761  17.033  17.273  0.00  0.00    -0.110 C 
ATOM      6  C   UNL     1      51.452  15.966  16.698  0.00  0.00    +0.144 C 
ATOM      7  C   UNL     1      50.911  14.680  16.594  0.00  0.00    -0.035 C 
ATOM      8  C   UNL     1      49.697  14.377  17.067  0.00  0.00    -0.016 C 
ATOM      9  C   UNL     1      49.103  13.001  16.897  0.00  0.00    -0.021 C 
ATOM     18  C   UNL     1      50.016  12.151  16.013  0.00  0.00    +0.055 C 
ATOM     19  C   UNL     1      47.729  13.149  16.232  0.00  0.00    +0.044 C 
ATOM     20  C   UNL     1      46.880  14.141  17.029  0.00  0.00    +0.012 C 
ATOM     21  C   UNL     1      47.543  15.520  17.026  0.00  0.00    +0.046 C 
ATOM     22  C   UNL     1      48.879  15.444  17.766  0.00  0.00    +0.010 C 
ATOM     23  C   UNL     1      48.604  14.978  19.198  0.00  0.00    +0.059 C 
ATOM     24  C   UNL     1      49.466  16.834  17.813  0.00  0.00    -0.052 C 
ATOM     25  C   UNL     1      48.782  17.866  18.360  0.00  0.00    +0.018 C 
ATOM     28  C   UNL     1      49.372  19.154  18.402  0.00  0.00    +0.388 C 
ATOM     29  O   UNL     1      48.760  20.092  18.894  0.00  0.00    -0.471 OA
ENDROOT
BRANCH   3   2
ATOM      1  C   UNL     1      52.608  20.651  18.700  0.00  0.00    +0.028 C 
ATOM      2  C   UNL     1      51.290  20.724  17.926  0.00  0.00    +0.038 C 
ATOM     30  C   UNL     1      51.560  21.215  16.503  0.00  0.00    +0.027 C 
ENDBRANCH   3   2
BRANCH  25  26
ATOM     26  O   UNL     1      47.537  17.668  18.869  0.00  0.00    -0.459 OA
ATOM     27  H   UNL     1      47.526  17.445  19.809  0.00  0.00    +0.399 HD
ENDBRANCH  25  26
BRANCH   9  10
ATOM     10  C   UNL     1      48.943  12.336  18.266  0.00  0.00    +0.225 C 
BRANCH  10  11
ATOM     11  O   UNL     1      49.981  11.371  18.451  0.00  0.00    -0.345 OA
BRANCH  11  12
ATOM     12  C   UNL     1      50.673  11.430  19.606  0.00  0.00    +0.493 C 
ATOM     17  O   UNL     1      50.942  10.408  20.206  0.00  0.00    -0.507 OA
BRANCH  12  13
ATOM     13  C   UNL     1      51.102  12.730  20.140  0.00  0.00    -0.082 C 
ATOM     14  C   UNL     1      52.200  13.314  19.666  0.00  0.00    -0.012 C 
ATOM     15  C   UNL     1      52.549  14.718  20.087  0.00  0.00    +0.107 C 
ATOM     16  C   UNL     1      53.095  12.570  18.707  0.00  0.00    +0.102 C 
ENDBRANCH  12  13
ENDBRANCH  11  12
ENDBRANCH  10  11
ENDBRANCH   9  10
TORSDOF 6
ENDMDL
MODEL 8
REMARK VINA RESULT:      -4.7      5.088      7.662
REMARK  Name = ZINC85967903
REMARK  12 active torsions:
REMARK  status: ('A' for Active; 'I' for Inactive)
REMARK    1  A    between atoms: C1_1  and  C2_2
REMARK    2  A    between atoms: C2_2  and  C3_3
REMARK    3  A    between atoms: C2_2  and  C4_4
REMARK    4  A    between atoms: C10_10  and  C19_21
REMARK    5  A    between atoms: C10_10  and  C20_22
REMARK    6  A    between atoms: C14_14  and  C18_20
REMARK    7  A    between atoms: C16_16  and  O2_19
REMARK    8  A    between atoms: C20_22  and  O3_23
REMARK    9  A    between atoms: O3_23  and  C21_24
REMARK   10  A    between atoms: C21_24  and  C22_26
REMARK   11  A    between atoms: C23_27  and  C24_28
REMARK   12  A    between atoms: C23_27  and  C25_29
REMARK                            x       y       z     vdW  Elec       q    Type
REMARK                         _______ _______ _______ _____ _____    ______ ____
ROOT
ATOM      3  C   UNL     1      51.190  18.706  17.815  0.00  0.00    -0.193 C 
ATOM      4  C   UNL     1      50.094  18.245  17.164  0.00  0.00    +0.109 C 
ATOM      5  C   UNL     1      49.365  17.153  17.693  0.00  0.00    -0.110 C 
ATOM      6  C   UNL     1      48.228  16.680  17.037  0.00  0.00    +0.144 C 
ATOM      7  C   UNL     1      47.453  15.624  17.529  0.00  0.00    -0.035 C 
ATOM      8  C   UNL     1      47.767  14.973  18.655  0.00  0.00    -0.016 C 
ATOM      9  C   UNL     1      46.892  13.875  19.204  0.00  0.00    -0.021 C 
ATOM     18  C   UNL     1      45.608  13.778  18.379  0.00  0.00    +0.055 C 
ATOM     19  C   UNL     1      46.547  14.216  20.659  0.00  0.00    +0.044 C 
ATOM     20  C   UNL     1      47.835  14.486  21.438  0.00  0.00    +0.012 C 
ATOM     21  C   UNL     1      48.566  15.692  20.844  0.00  0.00    +0.046 C 
ATOM     22  C   UNL     1      49.015  15.363  19.420  0.00  0.00    +0.010 C 
ATOM     23  C   UNL     1      49.941  14.146  19.483  0.00  0.00    +0.059 C 
ATOM     24  C   UNL     1      49.800  16.541  18.896  0.00  0.00    -0.052 C 
ATOM     25  C   UNL     1      50.892  17.003  19.547  0.00  0.00    +0.018 C 
ATOM     28  C   UNL     1      51.614  18.101  19.015  0.00  0.00    +0.388 C 
ATOM     29  O   UNL     1      52.603  18.525  19.598  0.00  0.00    -0.471 OA
ENDROOT
BRANCH   3   2
ATOM      1  C   UNL     1      52.207  19.640  15.756  0.00  0.00    +0.028 C 
ATOM      2  C   UNL     1      51.963  19.870  17.249  0.00  0.00    +0.038 C 
ATOM     30  C   UNL     1      51.161  21.158  17.443  0.00  0.00    +0.027 C 
ENDBRANCH   3   2
BRANCH  25  26
ATOM     26  O   UNL     1      51.298  16.415  20.704  0.00  0.00    -0.459 OA
ATOM     27  H   UNL     1      51.540  17.041  21.400  0.00  0.00    +0.399 HD
ENDBRANCH  25  26
BRANCH   9  10
ATOM     10  C   UNL     1      47.642  12.543  19.151  0.00  0.00    +0.225 C 
BRANCH  10  11
ATOM     11  O   UNL     1      47.072  11.714  18.136  0.00  0.00    -0.345 OA
BRANCH  11  12
ATOM     12  C   UNL     1      47.905  11.256  17.180  0.00  0.00    +0.493 C 
ATOM     17  O   UNL     1      47.602  10.277  16.528  0.00  0.00    -0.507 OA
BRANCH  12  13
ATOM     13  C   UNL     1      49.180  11.941  16.928  0.00  0.00    -0.082 C 
ATOM     14  C   UNL     1      49.271  12.838  15.948  0.00  0.00    -0.012 C 
ATOM     15  C   UNL     1      50.522  13.663  15.794  0.00  0.00    +0.107 C 
ATOM     16  C   UNL     1      48.120  13.028  14.993  0.00  0.00    +0.102 C 
ENDBRANCH  12  13
ENDBRANCH  11  12
ENDBRANCH  10  11
ENDBRANCH   9  10
TORSDOF 6
ENDMDL
MODEL 9
REMARK VINA RESULT:      -4.6      3.426      6.697
REMARK  Name = ZINC85967903
REMARK  12 active torsions:
REMARK  status: ('A' for Active; 'I' for Inactive)
REMARK    1  A    between atoms: C1_1  and  C2_2
REMARK    2  A    between atoms: C2_2  and  C3_3
REMARK    3  A    between atoms: C2_2  and  C4_4
REMARK    4  A    between atoms: C10_10  and  C19_21
REMARK    5  A    between atoms: C10_10  and  C20_22
REMARK    6  A    between atoms: C14_14  and  C18_20
REMARK    7  A    between atoms: C16_16  and  O2_19
REMARK    8  A    between atoms: C20_22  and  O3_23
REMARK    9  A    between atoms: O3_23  and  C21_24
REMARK   10  A    between atoms: C21_24  and  C22_26
REMARK   11  A    between atoms: C23_27  and  C24_28
REMARK   12  A    between atoms: C23_27  and  C25_29
REMARK                            x       y       z     vdW  Elec       q    Type
REMARK                         _______ _______ _______ _____ _____    ______ ____
ROOT
ATOM      3  C   UNL     1      50.812  19.357  17.646  0.00  0.00    -0.193 C 
ATOM      4  C   UNL     1      50.267  18.209  17.174  0.00  0.00    +0.109 C 
ATOM      5  C   UNL     1      49.270  17.538  17.923  0.00  0.00    -0.110 C 
ATOM      6  C   UNL     1      48.695  16.363  17.439  0.00  0.00    +0.144 C 
ATOM      7  C   UNL     1      47.687  15.675  18.123  0.00  0.00    -0.035 C 
ATOM      8  C   UNL     1      47.222  16.084  19.309  0.00  0.00    -0.016 C 
ATOM      9  C   UNL     1      46.096  15.366  20.008  0.00  0.00    -0.021 C 
ATOM     18  C   UNL     1      45.535  14.275  19.095  0.00  0.00    +0.055 C 
ATOM     19  C   UNL     1      44.998  16.388  20.328  0.00  0.00    +0.044 C 
ATOM     20  C   UNL     1      45.605  17.566  21.093  0.00  0.00    +0.012 C 
ATOM     21  C   UNL     1      46.651  18.271  20.227  0.00  0.00    +0.046 C 
ATOM     22  C   UNL     1      47.816  17.317  19.959  0.00  0.00    +0.010 C 
ATOM     23  C   UNL     1      48.415  16.909  21.307  0.00  0.00    +0.059 C 
ATOM     24  C   UNL     1      48.862  18.069  19.173  0.00  0.00    -0.052 C 
ATOM     25  C   UNL     1      49.404  19.217  19.643  0.00  0.00    +0.018 C 
ATOM     28  C   UNL     1      50.397  19.886  18.884  0.00  0.00    +0.388 C 
ATOM     29  O   UNL     1      50.891  20.924  19.302  0.00  0.00    -0.471 OA
ENDROOT
BRANCH   3   2
ATOM      1  C   UNL     1      52.305  19.182  15.674  0.00  0.00    +0.028 C 
ATOM      2  C   UNL     1      51.871  20.068  16.844  0.00  0.00    +0.038 C 
ATOM     30  C   UNL     1      51.307  21.384  16.306  0.00  0.00    +0.027 C 
ENDBRANCH   3   2
BRANCH  25  26
ATOM     26  O   UNL     1      49.001  19.724  20.839  0.00  0.00    -0.459 OA
ATOM     27  H   UNL     1      49.191  19.150  21.593  0.00  0.00    +0.399 HD
ENDBRANCH  25  26
BRANCH   9  10
ATOM     10  C   UNL     1      46.610  14.740  21.306  0.00  0.00    +0.225 C 
BRANCH  10  11
ATOM     11  O   UNL     1      46.877  13.352  21.092  0.00  0.00    -0.345 OA
BRANCH  11  12
ATOM     12  C   UNL     1      48.061  12.881  21.533  0.00  0.00    +0.493 C 
ATOM     17  O   UNL     1      48.100  11.872  22.208  0.00  0.00    -0.507 OA
BRANCH  12  13
ATOM     13  C   UNL     1      49.304  13.589  21.195  0.00  0.00    -0.082 C 
ATOM     14  C   UNL     1      49.824  13.475  19.975  0.00  0.00    -0.012 C 
ATOM     15  C   UNL     1      50.999  14.328  19.575  0.00  0.00    +0.107 C 
ATOM     16  C   UNL     1      49.236  12.492  18.995  0.00  0.00    +0.102 C 
ENDBRANCH  12  13
ENDBRANCH  11  12
ENDBRANCH  10  11
ENDBRANCH   9  10
TORSDOF 6
ENDMDL
