MODEL 1
REMARK VINA RESULT:      -7.6      0.000      0.000
REMARK  Name = ZINC95486014
REMARK  4 active torsions:
REMARK  status: ('A' for Active; 'I' for Inactive)
REMARK    1  A    between atoms: C1_1  and  C2_2
REMARK    2  A    between atoms: C2_2  and  C21_29
REMARK    3  A    between atoms: C9_10  and  C14_18
REMARK    4  A    between atoms: C19_23  and  O4_24
REMARK                            x       y       z     vdW  Elec       q    Type
REMARK                         _______ _______ _______ _____ _____    ______ ____
ROOT
ATOM      1  C   UNL     1      52.575  19.405  18.000  0.00  0.00    +0.004 C 
ATOM      2  C   UNL     1      51.231  20.107  17.793  0.00  0.00    +0.165 C 
ATOM      3  C   UNL     1      51.403  21.180  16.717  0.00  0.00    +0.049 C 
ATOM      4  C   UNL     1      50.839  20.776  19.074  0.00  0.00    -0.142 C 
ATOM      5  C   UNL     1      49.826  20.351  19.819  0.00  0.00    +0.003 C 
ATOM      6  C   UNL     1      49.469  21.012  21.121  0.00  0.00    +0.082 C 
ATOM      7  C   UNL     1      48.004  20.851  21.415  0.00  0.00    +0.342 C 
ATOM      8  O   UNL     1      47.403  21.730  22.237  0.00  0.00    -0.616 OA
ATOM      9  C   UNL     1      47.267  19.845  20.876  0.00  0.00    -0.486 C 
ATOM     10  C   UNL     1      45.910  19.656  21.250  0.00  0.00    +0.405 C 
ATOM     11  C   UNL     1      45.111  18.529  20.650  0.00  0.00    -0.013 C 
ATOM     23  C   UNL     1      45.732  18.082  19.326  0.00  0.00    +0.248 C 
ATOM     24  O   UNL     1      47.131  17.830  19.513  0.00  0.00    -0.319 OA
ATOM     25  O   UNL     1      45.393  20.405  22.053  0.00  0.00    -0.485 OA
ATOM     26  C   UNL     1      47.860  18.914  19.888  0.00  0.00    +0.234 C 
ATOM     27  C   UNL     1      49.070  19.172  19.373  0.00  0.00    -0.294 C 
ATOM     28  C   UNL     1      49.709  18.298  18.323  0.00  0.00    +0.274 C 
ATOM     29  O   UNL     1      50.287  19.154  17.335  0.00  0.00    -0.380 OA
ENDROOT
BRANCH  11  12
ATOM     12  C   UNL     1      43.699  18.997  20.401  0.00  0.00    -0.060 A 
ATOM     13  C   UNL     1      43.441  19.913  19.399  0.00  0.00    +0.070 A 
ATOM     14  C   UNL     1      42.146  20.344  19.168  0.00  0.00    +0.028 A 
ATOM     15  C   UNL     1      41.101  19.853  19.949  0.00  0.00    +0.039 A 
ATOM     16  O   UNL     1      39.936  20.427  19.528  0.00  0.00    -0.310 OA
ATOM     17  C   UNL     1      40.330  21.577  18.756  0.00  0.00    +0.427 C 
ATOM     18  C   UNL     1      41.362  18.935  20.952  0.00  0.00    +0.015 A 
ATOM     19  O   UNL     1      41.634  21.225  18.259  0.00  0.00    -0.307 OA
ATOM     20  C   UNL     1      42.661  18.502  21.176  0.00  0.00    +0.123 A 
BRANCH  20  21
ATOM     21  O   UNL     1      42.916  17.597  22.158  0.00  0.00    -0.488 OA
ATOM     22  H   UNL     1      42.270  17.604  22.877  0.00  0.00    +0.394 HD
ENDBRANCH  20  21
ENDBRANCH  11  12
TORSDOF 2
ENDMDL
MODEL 2
REMARK VINA RESULT:      -6.5      3.342      5.751
REMARK  Name = ZINC95486014
REMARK  4 active torsions:
REMARK  status: ('A' for Active; 'I' for Inactive)
REMARK    1  A    between atoms: C1_1  and  C2_2
REMARK    2  A    between atoms: C2_2  and  C21_29
REMARK    3  A    between atoms: C9_10  and  C14_18
REMARK    4  A    between atoms: C19_23  and  O4_24
REMARK                            x       y       z     vdW  Elec       q    Type
REMARK                         _______ _______ _______ _____ _____    ______ ____
ROOT
ATOM      1  C   UNL     1      48.425  11.606  17.305  0.00  0.00    +0.004 C 
ATOM      2  C   UNL     1      48.682  12.792  18.236  0.00  0.00    +0.165 C 
ATOM      3  C   UNL     1      49.976  12.534  19.009  0.00  0.00    +0.049 C 
ATOM      4  C   UNL     1      47.553  12.884  19.216  0.00  0.00    -0.142 C 
ATOM      5  C   UNL     1      46.660  13.866  19.185  0.00  0.00    +0.003 C 
ATOM      6  C   UNL     1      45.512  13.923  20.153  0.00  0.00    +0.082 C 
ATOM      7  C   UNL     1      45.083  15.344  20.387  0.00  0.00    +0.342 C 
ATOM      8  O   UNL     1      44.432  15.651  21.523  0.00  0.00    -0.616 OA
ATOM      9  C   UNL     1      45.334  16.330  19.485  0.00  0.00    -0.486 C 
ATOM     10  C   UNL     1      44.830  17.643  19.685  0.00  0.00    +0.405 C 
ATOM     11  C   UNL     1      45.108  18.721  18.670  0.00  0.00    -0.013 C 
ATOM     23  C   UNL     1      46.344  18.367  17.842  0.00  0.00    +0.248 C 
ATOM     24  O   UNL     1      46.209  17.037  17.325  0.00  0.00    -0.319 OA
ATOM     25  O   UNL     1      44.174  17.896  20.674  0.00  0.00    -0.485 OA
ATOM     26  C   UNL     1      46.135  16.062  18.269  0.00  0.00    +0.234 C 
ATOM     27  C   UNL     1      46.781  14.895  18.142  0.00  0.00    -0.294 C 
ATOM     28  C   UNL     1      47.659  14.577  16.956  0.00  0.00    +0.274 C 
ATOM     29  O   UNL     1      48.850  13.959  17.449  0.00  0.00    -0.380 OA
ENDROOT
BRANCH  11  12
ATOM     12  C   UNL     1      45.349  20.026  19.385  0.00  0.00    -0.060 A 
ATOM     13  C   UNL     1      46.537  20.237  20.059  0.00  0.00    +0.070 A 
ATOM     14  C   UNL     1      46.761  21.434  20.716  0.00  0.00    +0.028 A 
ATOM     15  C   UNL     1      45.785  22.430  20.697  0.00  0.00    +0.039 A 
ATOM     16  O   UNL     1      46.242  23.501  21.410  0.00  0.00    -0.310 OA
ATOM     17  C   UNL     1      47.332  22.998  22.206  0.00  0.00    +0.427 C 
ATOM     18  C   UNL     1      44.596  22.217  20.021  0.00  0.00    +0.015 A 
ATOM     19  O   UNL     1      47.827  21.884  21.441  0.00  0.00    -0.307 OA
ATOM     20  C   UNL     1      44.379  21.018  19.360  0.00  0.00    +0.123 A 
BRANCH  20  21
ATOM     21  O   UNL     1      43.213  20.811  18.692  0.00  0.00    -0.488 OA
ATOM     22  H   UNL     1      43.174  21.239  17.826  0.00  0.00    +0.394 HD
ENDBRANCH  20  21
ENDBRANCH  11  12
TORSDOF 2
ENDMDL
MODEL 3
REMARK VINA RESULT:      -6.5      3.713      7.834
REMARK  Name = ZINC95486014
REMARK  4 active torsions:
REMARK  status: ('A' for Active; 'I' for Inactive)
REMARK    1  A    between atoms: C1_1  and  C2_2
REMARK    2  A    between atoms: C2_2  and  C21_29
REMARK    3  A    between atoms: C9_10  and  C14_18
REMARK    4  A    between atoms: C19_23  and  O4_24
REMARK                            x       y       z     vdW  Elec       q    Type
REMARK                         _______ _______ _______ _____ _____    ______ ____
ROOT
ATOM      1  C   UNL     1      41.366  21.814  19.131  0.00  0.00    +0.004 C 
ATOM      2  C   UNL     1      41.456  20.327  18.779  0.00  0.00    +0.165 C 
ATOM      3  C   UNL     1      40.197  19.933  18.006  0.00  0.00    +0.049 C 
ATOM      4  C   UNL     1      41.500  19.537  20.050  0.00  0.00    -0.142 C 
ATOM      5  C   UNL     1      42.591  18.897  20.454  0.00  0.00    +0.003 C 
ATOM      6  C   UNL     1      42.629  18.138  21.751  0.00  0.00    +0.082 C 
ATOM      7  C   UNL     1      43.618  17.008  21.677  0.00  0.00    +0.342 C 
ATOM      8  O   UNL     1      43.472  15.958  22.505  0.00  0.00    -0.616 OA
ATOM      9  C   UNL     1      44.654  17.013  20.798  0.00  0.00    -0.486 C 
ATOM     10  C   UNL     1      45.629  15.981  20.818  0.00  0.00    +0.405 C 
ATOM     11  C   UNL     1      46.778  16.007  19.843  0.00  0.00    -0.013 C 
ATOM     23  C   UNL     1      46.423  16.863  18.626  0.00  0.00    +0.248 C 
ATOM     24  O   UNL     1      45.939  18.140  19.062  0.00  0.00    -0.319 OA
ATOM     25  O   UNL     1      45.538  15.076  21.621  0.00  0.00    -0.485 OA
ATOM     26  C   UNL     1      44.797  18.096  19.798  0.00  0.00    +0.234 C 
ATOM     27  C   UNL     1      43.802  18.977  19.624  0.00  0.00    -0.294 C 
ATOM     28  C   UNL     1      43.858  20.071  18.587  0.00  0.00    +0.274 C 
ATOM     29  O   UNL     1      42.582  20.127  17.943  0.00  0.00    -0.380 OA
ENDROOT
BRANCH  11  12
ATOM     12  C   UNL     1      47.078  14.602  19.389  0.00  0.00    -0.060 A 
ATOM     13  C   UNL     1      46.471  14.097  18.255  0.00  0.00    +0.070 A 
ATOM     14  C   UNL     1      46.745  12.806  17.836  0.00  0.00    +0.028 A 
ATOM     15  C   UNL     1      47.634  12.015  18.560  0.00  0.00    +0.039 A 
ATOM     16  O   UNL     1      47.733  10.799  17.949  0.00  0.00    -0.310 OA
ATOM     17  C   UNL     1      46.588  10.710  17.079  0.00  0.00    +0.427 C 
ATOM     18  C   UNL     1      48.242  12.523  19.695  0.00  0.00    +0.015 A 
ATOM     19  O   UNL     1      46.287  12.083  16.771  0.00  0.00    -0.307 OA
ATOM     20  C   UNL     1      47.969  13.819  20.108  0.00  0.00    +0.123 A 
BRANCH  20  21
ATOM     21  O   UNL     1      48.569  14.319  21.221  0.00  0.00    -0.488 OA
ATOM     22  H   UNL     1      48.425  15.266  21.354  0.00  0.00    +0.394 HD
ENDBRANCH  20  21
ENDBRANCH  11  12
TORSDOF 2
ENDMDL
MODEL 4
REMARK VINA RESULT:      -6.3      1.561      7.801
REMARK  Name = ZINC95486014
REMARK  4 active torsions:
REMARK  status: ('A' for Active; 'I' for Inactive)
REMARK    1  A    between atoms: C1_1  and  C2_2
REMARK    2  A    between atoms: C2_2  and  C21_29
REMARK    3  A    between atoms: C9_10  and  C14_18
REMARK    4  A    between atoms: C19_23  and  O4_24
REMARK                            x       y       z     vdW  Elec       q    Type
REMARK                         _______ _______ _______ _____ _____    ______ ____
ROOT
ATOM      1  C   UNL     1      39.838  21.074  19.490  0.00  0.00    +0.004 C 
ATOM      2  C   UNL     1      40.970  20.278  18.837  0.00  0.00    +0.165 C 
ATOM      3  C   UNL     1      40.404  19.527  17.631  0.00  0.00    +0.049 C 
ATOM      4  C   UNL     1      41.482  19.276  19.824  0.00  0.00    -0.142 C 
ATOM      5  C   UNL     1      42.680  19.378  20.387  0.00  0.00    +0.003 C 
ATOM      6  C   UNL     1      43.164  18.383  21.405  0.00  0.00    +0.082 C 
ATOM      7  C   UNL     1      44.664  18.282  21.379  0.00  0.00    +0.342 C 
ATOM      8  O   UNL     1      45.250  17.162  21.838  0.00  0.00    -0.616 OA
ATOM      9  C   UNL     1      45.445  19.287  20.904  0.00  0.00    -0.486 C 
ATOM     10  C   UNL     1      46.861  19.207  20.985  0.00  0.00    +0.405 C 
ATOM     11  C   UNL     1      47.713  20.335  20.464  0.00  0.00    -0.013 C 
ATOM     23  C   UNL     1      46.933  21.163  19.442  0.00  0.00    +0.248 C 
ATOM     24  O   UNL     1      45.664  21.537  19.996  0.00  0.00    -0.319 OA
ATOM     25  O   UNL     1      47.386  18.228  21.473  0.00  0.00    -0.485 OA
ATOM     26  C   UNL     1      44.844  20.496  20.296  0.00  0.00    +0.234 C 
ATOM     27  C   UNL     1      43.530  20.524  20.033  0.00  0.00    -0.294 C 
ATOM     28  C   UNL     1      42.860  21.700  19.364  0.00  0.00    +0.274 C 
ATOM     29  O   UNL     1      41.958  21.186  18.381  0.00  0.00    -0.380 OA
ENDROOT
BRANCH  11  12
ATOM     12  C   UNL     1      48.943  19.767  19.804  0.00  0.00    -0.060 A 
ATOM     13  C   UNL     1      48.828  19.047  18.630  0.00  0.00    +0.070 A 
ATOM     14  C   UNL     1      49.956  18.523  18.022  0.00  0.00    +0.028 A 
ATOM     15  C   UNL     1      51.210  18.723  18.595  0.00  0.00    +0.039 A 
ATOM     16  O   UNL     1      52.149  18.115  17.813  0.00  0.00    -0.310 OA
ATOM     17  C   UNL     1      51.419  17.196  16.978  0.00  0.00    +0.427 C 
ATOM     18  C   UNL     1      51.324  19.446  19.771  0.00  0.00    +0.015 A 
ATOM     19  O   UNL     1      50.111  17.789  16.881  0.00  0.00    -0.307 OA
ATOM     20  C   UNL     1      50.191  19.973  20.373  0.00  0.00    +0.123 A 
BRANCH  20  21
ATOM     21  O   UNL     1      50.303  20.686  21.526  0.00  0.00    -0.488 OA
ATOM     22  H   UNL     1      49.475  20.775  22.016  0.00  0.00    +0.394 HD
ENDBRANCH  20  21
ENDBRANCH  11  12
TORSDOF 2
ENDMDL
MODEL 5
REMARK VINA RESULT:      -6.3      3.434      5.502
REMARK  Name = ZINC95486014
REMARK  4 active torsions:
REMARK  status: ('A' for Active; 'I' for Inactive)
REMARK    1  A    between atoms: C1_1  and  C2_2
REMARK    2  A    between atoms: C2_2  and  C21_29
REMARK    3  A    between atoms: C9_10  and  C14_18
REMARK    4  A    between atoms: C19_23  and  O4_24
REMARK                            x       y       z     vdW  Elec       q    Type
REMARK                         _______ _______ _______ _____ _____    ______ ____
ROOT
ATOM      1  C   UNL     1      47.070  11.092  17.858  0.00  0.00    +0.004 C 
ATOM      2  C   UNL     1      46.088  12.157  17.367  0.00  0.00    +0.165 C 
ATOM      3  C   UNL     1      45.221  11.548  16.263  0.00  0.00    +0.049 C 
ATOM      4  C   UNL     1      46.868  13.295  16.786  0.00  0.00    -0.142 C 
ATOM      5  C   UNL     1      46.939  14.484  17.373  0.00  0.00    +0.003 C 
ATOM      6  C   UNL     1      47.757  15.605  16.795  0.00  0.00    +0.082 C 
ATOM      7  C   UNL     1      47.181  16.938  17.183  0.00  0.00    +0.342 C 
ATOM      8  O   UNL     1      47.450  18.012  16.420  0.00  0.00    -0.616 OA
ATOM      9  C   UNL     1      46.397  17.091  18.282  0.00  0.00    -0.486 C 
ATOM     10  C   UNL     1      45.949  18.379  18.682  0.00  0.00    +0.405 C 
ATOM     11  C   UNL     1      45.089  18.533  19.909  0.00  0.00    -0.013 C 
ATOM     23  C   UNL     1      44.386  17.214  20.235  0.00  0.00    +0.248 C 
ATOM     24  O   UNL     1      45.351  16.153  20.272  0.00  0.00    -0.319 OA
ATOM     25  O   UNL     1      46.261  19.357  18.034  0.00  0.00    -0.485 OA
ATOM     26  C   UNL     1      45.990  15.922  19.095  0.00  0.00    +0.234 C 
ATOM     27  C   UNL     1      46.233  14.683  18.646  0.00  0.00    -0.294 C 
ATOM     28  C   UNL     1      45.797  13.448  19.396  0.00  0.00    +0.274 C 
ATOM     29  O   UNL     1      45.249  12.532  18.446  0.00  0.00    -0.380 OA
ENDROOT
BRANCH  11  12
ATOM     12  C   UNL     1      44.051  19.597  19.659  0.00  0.00    -0.060 A 
ATOM     13  C   UNL     1      42.780  19.241  19.249  0.00  0.00    +0.070 A 
ATOM     14  C   UNL     1      41.825  20.217  19.019  0.00  0.00    +0.028 A 
ATOM     15  C   UNL     1      42.147  21.560  19.200  0.00  0.00    +0.039 A 
ATOM     16  O   UNL     1      41.048  22.315  18.912  0.00  0.00    -0.310 OA
ATOM     17  C   UNL     1      40.174  21.451  18.160  0.00  0.00    +0.427 C 
ATOM     18  C   UNL     1      43.421  21.915  19.612  0.00  0.00    +0.015 A 
ATOM     19  O   UNL     1      40.523  20.132  18.616  0.00  0.00    -0.307 OA
ATOM     20  C   UNL     1      44.373  20.933  19.846  0.00  0.00    +0.123 A 
BRANCH  20  21
ATOM     21  O   UNL     1      45.622  21.281  20.255  0.00  0.00    -0.488 OA
ATOM     22  H   UNL     1      45.908  20.842  21.067  0.00  0.00    +0.394 HD
ENDBRANCH  20  21
ENDBRANCH  11  12
TORSDOF 2
ENDMDL
MODEL 6
REMARK VINA RESULT:      -5.7      4.838      6.347
REMARK  Name = ZINC95486014
REMARK  4 active torsions:
REMARK  status: ('A' for Active; 'I' for Inactive)
REMARK    1  A    between atoms: C1_1  and  C2_2
REMARK    2  A    between atoms: C2_2  and  C21_29
REMARK    3  A    between atoms: C9_10  and  C14_18
REMARK    4  A    between atoms: C19_23  and  O4_24
REMARK                            x       y       z     vdW  Elec       q    Type
REMARK                         _______ _______ _______ _____ _____    ______ ____
ROOT
ATOM      1  C   UNL     1      51.071  10.981  13.493  0.00  0.00    +0.004 C 
ATOM      2  C   UNL     1      50.508  12.381  13.749  0.00  0.00    +0.165 C 
ATOM      3  C   UNL     1      50.816  13.259  12.534  0.00  0.00    +0.049 C 
ATOM      4  C   UNL     1      51.197  12.963  14.944  0.00  0.00    -0.142 C 
ATOM      5  C   UNL     1      50.577  13.151  16.102  0.00  0.00    +0.003 C 
ATOM      6  C   UNL     1      51.294  13.702  17.304  0.00  0.00    +0.082 C 
ATOM      7  C   UNL     1      50.338  14.436  18.202  0.00  0.00    +0.342 C 
ATOM      8  O   UNL     1      50.818  15.374  19.038  0.00  0.00    -0.616 OA
ATOM      9  C   UNL     1      49.003  14.182  18.196  0.00  0.00    -0.486 C 
ATOM     10  C   UNL     1      48.137  14.817  19.125  0.00  0.00    +0.405 C 
ATOM     11  C   UNL     1      46.661  14.516  19.111  0.00  0.00    -0.013 C 
ATOM     23  C   UNL     1      46.242  13.972  17.745  0.00  0.00    +0.248 C 
ATOM     24  O   UNL     1      47.108  12.891  17.373  0.00  0.00    -0.319 OA
ATOM     25  O   UNL     1      48.587  15.604  19.932  0.00  0.00    -0.485 OA
ATOM     26  C   UNL     1      48.415  13.233  17.223  0.00  0.00    +0.234 C 
ATOM     27  C   UNL     1      49.164  12.762  16.216  0.00  0.00    -0.294 C 
ATOM     28  C   UNL     1      48.615  11.836  15.159  0.00  0.00    +0.274 C 
ATOM     29  O   UNL     1      49.101  12.284  13.891  0.00  0.00    -0.380 OA
ENDROOT
BRANCH  11  12
ATOM     12  C   UNL     1      45.893  15.781  19.396  0.00  0.00    -0.060 A 
ATOM     13  C   UNL     1      45.957  16.844  18.515  0.00  0.00    +0.070 A 
ATOM     14  C   UNL     1      45.252  18.006  18.774  0.00  0.00    +0.028 A 
ATOM     15  C   UNL     1      44.476  18.105  19.927  0.00  0.00    +0.039 A 
ATOM     16  O   UNL     1      43.888  19.336  19.953  0.00  0.00    -0.310 OA
ATOM     17  C   UNL     1      44.632  20.139  19.016  0.00  0.00    +0.427 C 
ATOM     18  C   UNL     1      44.412  17.039  20.809  0.00  0.00    +0.015 A 
ATOM     19  O   UNL     1      45.149  19.177  18.079  0.00  0.00    -0.307 OA
ATOM     20  C   UNL     1      45.116  15.874  20.542  0.00  0.00    +0.123 A 
BRANCH  20  21
ATOM     21  O   UNL     1      45.049  14.826  21.405  0.00  0.00    -0.488 OA
ATOM     22  H   UNL     1      45.828  14.254  21.392  0.00  0.00    +0.394 HD
ENDBRANCH  20  21
ENDBRANCH  11  12
TORSDOF 2
ENDMDL
MODEL 7
REMARK VINA RESULT:      -5.7      4.374      7.990
REMARK  Name = ZINC95486014
REMARK  4 active torsions:
REMARK  status: ('A' for Active; 'I' for Inactive)
REMARK    1  A    between atoms: C1_1  and  C2_2
REMARK    2  A    between atoms: C2_2  and  C21_29
REMARK    3  A    between atoms: C9_10  and  C14_18
REMARK    4  A    between atoms: C19_23  and  O4_24
REMARK                            x       y       z     vdW  Elec       q    Type
REMARK                         _______ _______ _______ _____ _____    ______ ____
ROOT
ATOM      1  C   UNL     1      42.933  21.487  19.872  0.00  0.00    +0.004 C 
ATOM      2  C   UNL     1      42.790  20.101  19.241  0.00  0.00    +0.165 C 
ATOM      3  C   UNL     1      41.397  19.991  18.619  0.00  0.00    +0.049 C 
ATOM      4  C   UNL     1      42.912  19.070  20.319  0.00  0.00    -0.142 C 
ATOM      5  C   UNL     1      43.961  18.262  20.417  0.00  0.00    +0.003 C 
ATOM      6  C   UNL     1      44.085  17.256  21.528  0.00  0.00    +0.082 C 
ATOM      7  C   UNL     1      44.907  16.077  21.089  0.00  0.00    +0.342 C 
ATOM      8  O   UNL     1      44.749  14.900  21.721  0.00  0.00    -0.616 OA
ATOM      9  C   UNL     1      45.804  16.163  20.072  0.00  0.00    -0.486 C 
ATOM     10  C   UNL     1      46.639  15.062  19.744  0.00  0.00    +0.405 C 
ATOM     11  C   UNL     1      47.636  15.177  18.621  0.00  0.00    -0.013 C 
ATOM     23  C   UNL     1      47.224  16.290  17.656  0.00  0.00    +0.248 C 
ATOM     24  O   UNL     1      46.965  17.493  18.393  0.00  0.00    -0.319 OA
ATOM     25  O   UNL     1      46.549  14.026  20.370  0.00  0.00    -0.485 OA
ATOM     26  C   UNL     1      45.940  17.408  19.281  0.00  0.00    +0.234 C 
ATOM     27  C   UNL     1      45.046  18.395  19.435  0.00  0.00    -0.294 C 
ATOM     28  C   UNL     1      45.092  19.666  18.623  0.00  0.00    +0.274 C 
ATOM     29  O   UNL     1      43.756  19.969  18.213  0.00  0.00    -0.380 OA
ENDROOT
BRANCH  11  12
ATOM     12  C   UNL     1      47.696  13.871  17.872  0.00  0.00    -0.060 A 
ATOM     13  C   UNL     1      46.622  13.465  17.102  0.00  0.00    +0.070 A 
ATOM     14  C   UNL     1      46.674  12.266  16.413  0.00  0.00    +0.028 A 
ATOM     15  C   UNL     1      47.812  11.466  16.497  0.00  0.00    +0.039 A 
ATOM     16  O   UNL     1      47.617  10.349  15.736  0.00  0.00    -0.310 OA
ATOM     17  C   UNL     1      46.196  10.277  15.514  0.00  0.00    +0.427 C 
ATOM     18  C   UNL     1      48.887  11.874  17.268  0.00  0.00    +0.015 A 
ATOM     19  O   UNL     1      45.767  11.649  15.599  0.00  0.00    -0.307 OA
ATOM     20  C   UNL     1      48.832  13.079  17.952  0.00  0.00    +0.123 A 
BRANCH  20  21
ATOM     21  O   UNL     1      49.889  13.482  18.706  0.00  0.00    -0.488 OA
ATOM     22  H   UNL     1      50.349  12.761  19.157  0.00  0.00    +0.394 HD
ENDBRANCH  20  21
ENDBRANCH  11  12
TORSDOF 2
ENDMDL
MODEL 8
REMARK VINA RESULT:      -5.4      4.984      6.832
REMARK  Name = ZINC95486014
REMARK  4 active torsions:
REMARK  status: ('A' for Active; 'I' for Inactive)
REMARK    1  A    between atoms: C1_1  and  C2_2
REMARK    2  A    between atoms: C2_2  and  C21_29
REMARK    3  A    between atoms: C9_10  and  C14_18
REMARK    4  A    between atoms: C19_23  and  O4_24
REMARK                            x       y       z     vdW  Elec       q    Type
REMARK                         _______ _______ _______ _____ _____    ______ ____
ROOT
ATOM      1  C   UNL     1      51.415  11.244  12.460  0.00  0.00    +0.004 C 
ATOM      2  C   UNL     1      50.914  12.660  12.752  0.00  0.00    +0.165 C 
ATOM      3  C   UNL     1      51.299  13.564  11.579  0.00  0.00    +0.049 C 
ATOM      4  C   UNL     1      51.597  13.165  13.984  0.00  0.00    -0.142 C 
ATOM      5  C   UNL     1      50.956  13.343  15.133  0.00  0.00    +0.003 C 
ATOM      6  C   UNL     1      51.665  13.815  16.372  0.00  0.00    +0.082 C 
ATOM      7  C   UNL     1      50.722  14.564  17.271  0.00  0.00    +0.342 C 
ATOM      8  O   UNL     1      51.224  15.446  18.153  0.00  0.00    -0.616 OA
ATOM      9  C   UNL     1      49.377  14.377  17.221  0.00  0.00    -0.486 C 
ATOM     10  C   UNL     1      48.518  15.022  18.150  0.00  0.00    +0.405 C 
ATOM     11  C   UNL     1      47.030  14.796  18.087  0.00  0.00    -0.013 C 
ATOM     23  C   UNL     1      46.623  14.321  16.691  0.00  0.00    +0.248 C 
ATOM     24  O   UNL     1      47.444  13.212  16.303  0.00  0.00    -0.319 OA
ATOM     25  O   UNL     1      48.983  15.757  18.996  0.00  0.00    -0.485 OA
ATOM     26  C   UNL     1      48.770  13.493  16.199  0.00  0.00    +0.234 C 
ATOM     27  C   UNL     1      49.523  13.021  15.196  0.00  0.00    -0.294 C 
ATOM     28  C   UNL     1      48.958  12.162  14.092  0.00  0.00    +0.274 C 
ATOM     29  O   UNL     1      49.501  12.629  12.854  0.00  0.00    -0.380 OA
ENDROOT
BRANCH  11  12
ATOM     12  C   UNL     1      46.316  16.086  18.398  0.00  0.00    -0.060 A 
ATOM     13  C   UNL     1      45.499  16.174  19.509  0.00  0.00    +0.070 A 
ATOM     14  C   UNL     1      44.842  17.359  19.797  0.00  0.00    +0.028 A 
ATOM     15  C   UNL     1      45.006  18.464  18.964  0.00  0.00    +0.039 A 
ATOM     16  O   UNL     1      44.262  19.496  19.458  0.00  0.00    -0.310 OA
ATOM     17  C   UNL     1      43.322  18.893  20.368  0.00  0.00    +0.427 C 
ATOM     18  C   UNL     1      45.826  18.374  17.852  0.00  0.00    +0.015 A 
ATOM     19  O   UNL     1      43.995  17.700  20.812  0.00  0.00    -0.307 OA
ATOM     20  C   UNL     1      46.486  17.187  17.571  0.00  0.00    +0.123 A 
BRANCH  20  21
ATOM     21  O   UNL     1      47.295  17.100  16.482  0.00  0.00    -0.488 OA
ATOM     22  H   UNL     1      46.923  16.581  15.755  0.00  0.00    +0.394 HD
ENDBRANCH  20  21
ENDBRANCH  11  12
TORSDOF 2
ENDMDL
MODEL 9
REMARK VINA RESULT:      -5.3      2.920      5.246
REMARK  Name = ZINC95486014
REMARK  4 active torsions:
REMARK  status: ('A' for Active; 'I' for Inactive)
REMARK    1  A    between atoms: C1_1  and  C2_2
REMARK    2  A    between atoms: C2_2  and  C21_29
REMARK    3  A    between atoms: C9_10  and  C14_18
REMARK    4  A    between atoms: C19_23  and  O4_24
REMARK                            x       y       z     vdW  Elec       q    Type
REMARK                         _______ _______ _______ _____ _____    ______ ____
ROOT
ATOM      1  C   UNL     1      51.454  12.924  17.129  0.00  0.00    +0.004 C 
ATOM      2  C   UNL     1      50.334  13.952  16.959  0.00  0.00    +0.165 C 
ATOM      3  C   UNL     1      49.373  13.452  15.879  0.00  0.00    +0.049 C 
ATOM      4  C   UNL     1      50.936  15.243  16.499  0.00  0.00    -0.142 C 
ATOM      5  C   UNL     1      50.995  16.319  17.276  0.00  0.00    +0.003 C 
ATOM      6  C   UNL     1      51.636  17.596  16.811  0.00  0.00    +0.082 C 
ATOM      7  C   UNL     1      51.019  18.782  17.498  0.00  0.00    +0.342 C 
ATOM      8  O   UNL     1      51.096  19.990  16.911  0.00  0.00    -0.616 OA
ATOM      9  C   UNL     1      50.383  18.671  18.694  0.00  0.00    -0.486 C 
ATOM     10  C   UNL     1      49.897  19.823  19.368  0.00  0.00    +0.405 C 
ATOM     11  C   UNL     1      49.205  19.684  20.699  0.00  0.00    -0.013 C 
ATOM     23  C   UNL     1      48.658  18.265  20.868  0.00  0.00    +0.248 C 
ATOM     24  O   UNL     1      49.697  17.315  20.598  0.00  0.00    -0.319 OA
ATOM     25  O   UNL     1      50.040  20.921  18.872  0.00  0.00    -0.485 OA
ATOM     26  C   UNL     1      50.185  17.348  19.329  0.00  0.00    +0.234 C 
ATOM     27  C   UNL     1      50.458  16.232  18.641  0.00  0.00    -0.294 C 
ATOM     28  C   UNL     1      50.227  14.852  19.206  0.00  0.00    +0.274 C 
ATOM     29  O   UNL     1      49.625  14.056  18.182  0.00  0.00    -0.380 OA
ENDROOT
BRANCH  11  12
ATOM     12  C   UNL     1      48.064  20.665  20.772  0.00  0.00    -0.060 A 
ATOM     13  C   UNL     1      46.972  20.520  19.937  0.00  0.00    +0.070 A 
ATOM     14  C   UNL     1      45.922  21.420  20.001  0.00  0.00    +0.028 A 
ATOM     15  C   UNL     1      45.968  22.476  20.910  0.00  0.00    +0.039 A 
ATOM     16  O   UNL     1      44.827  23.213  20.779  0.00  0.00    -0.310 OA
ATOM     17  C   UNL     1      44.271  22.839  19.504  0.00  0.00    +0.427 C 
ATOM     18  C   UNL     1      47.062  22.620  21.746  0.00  0.00    +0.015 A 
ATOM     19  O   UNL     1      44.752  21.498  19.301  0.00  0.00    -0.307 OA
ATOM     20  C   UNL     1      48.108  21.711  21.681  0.00  0.00    +0.123 A 
BRANCH  20  21
ATOM     21  O   UNL     1      49.181  21.850  22.505  0.00  0.00    -0.488 OA
ATOM     22  H   UNL     1      50.012  22.025  22.044  0.00  0.00    +0.394 HD
ENDBRANCH  20  21
ENDBRANCH  11  12
TORSDOF 2
ENDMDL
