MODEL 1
REMARK VINA RESULT:      -6.6      0.000      0.000
REMARK  Name = ZINC95486203
REMARK  9 active torsions:
REMARK  status: ('A' for Active; 'I' for Inactive)
REMARK    1  A    between atoms: C1_1  and  C2_2
REMARK    2  A    between atoms: C7_8  and  C12_15
REMARK    3  A    between atoms: C10_11  and  C11_13
REMARK    4  A    between atoms: C10_11  and  O1_14
REMARK    5  A    between atoms: C15_18  and  O4_29
REMARK    6  A    between atoms: C19_22  and  C23_27
REMARK    7  A    between atoms: C21_24  and  O2_25
REMARK    8  A    between atoms: O2_25  and  C22_26
REMARK    9  A    between atoms: C23_27  and  O3_28
REMARK                            x       y       z     vdW  Elec       q    Type
REMARK                         _______ _______ _______ _____ _____    ______ ____
ROOT
ATOM      8  C   UNL     1      44.478  19.400  19.614  0.00  0.00    -0.051 A 
ATOM      9  C   UNL     1      43.220  19.756  19.158  0.00  0.00    +0.057 A 
ATOM     10  C   UNL     1      42.772  21.066  19.266  0.00  0.00    -0.021 A 
ATOM     11  C   UNL     1      43.565  22.042  19.829  0.00  0.00    +0.144 A 
ATOM     14  C   UNL     1      44.850  21.714  20.303  0.00  0.00    -0.092 A 
ATOM     15  C   UNL     1      45.684  22.691  20.884  0.00  0.00    +0.154 A 
ATOM     18  C   UNL     1      46.928  22.328  21.349  0.00  0.00    -0.079 A 
ATOM     19  C   UNL     1      47.375  21.015  21.238  0.00  0.00    -0.041 A 
ATOM     23  C   UNL     1      46.590  20.052  20.677  0.00  0.00    +0.005 A 
ATOM     24  C   UNL     1      45.312  20.380  20.201  0.00  0.00    +0.009 A 
ENDROOT
BRANCH   8   7
ATOM      1  C   UNL     1      47.696  12.333  17.890  0.00  0.00    +0.041 C 
ATOM      2  C   UNL     1      47.410  13.812  18.157  0.00  0.00    +0.135 C 
ATOM      3  C   UNL     1      46.268  13.940  19.166  0.00  0.00    +0.093 C 
ATOM      4  C   UNL     1      45.820  15.378  19.255  0.00  0.00    -0.055 A 
ATOM      5  C   UNL     1      45.060  15.763  20.350  0.00  0.00    +0.004 A 
ATOM      6  C   UNL     1      44.621  17.064  20.475  0.00  0.00    +0.033 A 
ATOM      7  C   UNL     1      44.945  17.999  19.493  0.00  0.00    -0.052 A 
ATOM     25  C   UNL     1      45.710  17.608  18.396  0.00  0.00    +0.057 A 
ATOM     26  C   UNL     1      46.148  16.299  18.282  0.00  0.00    -0.068 A 
ATOM     27  C   UNL     1      46.982  15.927  17.084  0.00  0.00    +0.341 C 
ATOM     30  C   UNL     1      48.411  16.433  17.286  0.00  0.00    -0.003 C 
ATOM     31  N   UNL     1      47.009  14.473  16.905  0.00  0.00    -0.694 NA
ATOM     32  H   UNL     1      47.620  14.211  16.146  0.00  0.00    +0.345 HD
BRANCH  27  28
ATOM     28  O   UNL     1      46.428  16.536  15.916  0.00  0.00    -0.543 OA
ATOM     29  H   UNL     1      47.056  16.635  15.188  0.00  0.00    +0.378 HD
ENDBRANCH  27  28
ENDBRANCH   8   7
BRANCH  11  12
ATOM     12  O   UNL     1      43.110  23.317  19.926  0.00  0.00    -0.480 OA
ATOM     13  H   UNL     1      42.204  23.437  19.606  0.00  0.00    +0.392 HD
ENDBRANCH  11  12
BRANCH  15  16
ATOM     16  O   UNL     1      45.258  23.975  20.995  0.00  0.00    -0.294 OA
ATOM     17  C   UNL     1      46.262  24.992  21.020  0.00  0.00    +0.240 C 
ENDBRANCH  15  16
BRANCH  19  20
ATOM     20  C   UNL     1      48.746  20.652  21.746  0.00  0.00    +0.229 C 
BRANCH  20  21
ATOM     21  O   UNL     1      49.688  20.732  20.675  0.00  0.00    -0.565 OA
ATOM     22  H   UNL     1      49.402  20.284  19.867  0.00  0.00    +0.382 HD
ENDBRANCH  20  21
ENDBRANCH  19  20
TORSDOF 6
ENDMDL
MODEL 2
REMARK VINA RESULT:      -6.0      2.881      6.671
REMARK  Name = ZINC95486203
REMARK  9 active torsions:
REMARK  status: ('A' for Active; 'I' for Inactive)
REMARK    1  A    between atoms: C1_1  and  C2_2
REMARK    2  A    between atoms: C7_8  and  C12_15
REMARK    3  A    between atoms: C10_11  and  C11_13
REMARK    4  A    between atoms: C10_11  and  O1_14
REMARK    5  A    between atoms: C15_18  and  O4_29
REMARK    6  A    between atoms: C19_22  and  C23_27
REMARK    7  A    between atoms: C21_24  and  O2_25
REMARK    8  A    between atoms: O2_25  and  C22_26
REMARK    9  A    between atoms: C23_27  and  O3_28
REMARK                            x       y       z     vdW  Elec       q    Type
REMARK                         _______ _______ _______ _____ _____    ______ ____
ROOT
ATOM      8  C   UNL     1      48.270  19.738  19.740  0.00  0.00    -0.051 A 
ATOM      9  C   UNL     1      48.979  20.851  20.156  0.00  0.00    +0.057 A 
ATOM     10  C   UNL     1      50.257  21.100  19.673  0.00  0.00    -0.021 A 
ATOM     11  C   UNL     1      50.851  20.245  18.770  0.00  0.00    +0.144 A 
ATOM     14  C   UNL     1      50.158  19.101  18.327  0.00  0.00    -0.092 A 
ATOM     15  C   UNL     1      50.740  18.209  17.404  0.00  0.00    +0.154 A 
ATOM     18  C   UNL     1      50.037  17.094  17.005  0.00  0.00    -0.079 A 
ATOM     19  C   UNL     1      48.756  16.849  17.491  0.00  0.00    -0.041 A 
ATOM     23  C   UNL     1      48.169  17.698  18.380  0.00  0.00    +0.005 A 
ATOM     24  C   UNL     1      48.857  18.840  18.818  0.00  0.00    +0.009 A 
ENDROOT
BRANCH   8   7
ATOM      1  C   UNL     1      40.530  19.053  21.440  0.00  0.00    +0.041 C 
ATOM      2  C   UNL     1      41.909  19.103  20.779  0.00  0.00    +0.135 C 
ATOM      3  C   UNL     1      42.983  18.743  21.806  0.00  0.00    +0.093 C 
ATOM      4  C   UNL     1      44.352  19.020  21.238  0.00  0.00    -0.055 A 
ATOM      5  C   UNL     1      45.451  18.437  21.854  0.00  0.00    +0.004 A 
ATOM      6  C   UNL     1      46.724  18.663  21.375  0.00  0.00    +0.033 A 
ATOM      7  C   UNL     1      46.908  19.484  20.263  0.00  0.00    -0.052 A 
ATOM     25  C   UNL     1      45.802  20.066  19.648  0.00  0.00    +0.057 A 
ATOM     26  C   UNL     1      44.526  19.829  20.134  0.00  0.00    -0.068 A 
ATOM     27  C   UNL     1      43.362  20.471  19.428  0.00  0.00    +0.341 C 
ATOM     30  C   UNL     1      43.061  19.697  18.143  0.00  0.00    -0.003 C 
ATOM     31  N   UNL     1      42.171  20.464  20.282  0.00  0.00    -0.694 NA
ATOM     32  H   UNL     1      41.369  20.830  19.792  0.00  0.00    +0.345 HD
BRANCH  27  28
ATOM     28  O   UNL     1      43.696  21.821  19.097  0.00  0.00    -0.543 OA
ATOM     29  H   UNL     1      43.750  22.412  19.860  0.00  0.00    +0.378 HD
ENDBRANCH  27  28
ENDBRANCH   8   7
BRANCH  11  12
ATOM     12  O   UNL     1      52.102  20.504  18.308  0.00  0.00    -0.480 OA
ATOM     13  H   UNL     1      52.179  20.474  17.344  0.00  0.00    +0.392 HD
ENDBRANCH  11  12
BRANCH  15  16
ATOM     16  O   UNL     1      51.989  18.440  16.923  0.00  0.00    -0.294 OA
ATOM     17  C   UNL     1      52.116  18.628  15.512  0.00  0.00    +0.240 C 
ENDBRANCH  15  16
BRANCH  19  20
ATOM     20  C   UNL     1      48.008  15.627  17.026  0.00  0.00    +0.229 C 
BRANCH  20  21
ATOM     21  O   UNL     1      46.836  16.027  16.314  0.00  0.00    -0.565 OA
ATOM     22  H   UNL     1      46.274  16.648  16.798  0.00  0.00    +0.382 HD
ENDBRANCH  20  21
ENDBRANCH  19  20
TORSDOF 6
ENDMDL
MODEL 3
REMARK VINA RESULT:      -5.9      1.662      2.149
REMARK  Name = ZINC95486203
REMARK  9 active torsions:
REMARK  status: ('A' for Active; 'I' for Inactive)
REMARK    1  A    between atoms: C1_1  and  C2_2
REMARK    2  A    between atoms: C7_8  and  C12_15
REMARK    3  A    between atoms: C10_11  and  C11_13
REMARK    4  A    between atoms: C10_11  and  O1_14
REMARK    5  A    between atoms: C15_18  and  O4_29
REMARK    6  A    between atoms: C19_22  and  C23_27
REMARK    7  A    between atoms: C21_24  and  O2_25
REMARK    8  A    between atoms: O2_25  and  C22_26
REMARK    9  A    between atoms: C23_27  and  O3_28
REMARK                            x       y       z     vdW  Elec       q    Type
REMARK                         _______ _______ _______ _____ _____    ______ ____
ROOT
ATOM      8  C   UNL     1      44.893  17.392  20.505  0.00  0.00    -0.051 A 
ATOM      9  C   UNL     1      43.707  17.427  21.217  0.00  0.00    +0.057 A 
ATOM     10  C   UNL     1      43.313  18.581  21.881  0.00  0.00    -0.021 A 
ATOM     11  C   UNL     1      44.092  19.717  21.850  0.00  0.00    +0.144 A 
ATOM     14  C   UNL     1      45.306  19.716  21.135  0.00  0.00    -0.092 A 
ATOM     15  C   UNL     1      46.124  20.863  21.084  0.00  0.00    +0.154 A 
ATOM     18  C   UNL     1      47.310  20.818  20.388  0.00  0.00    -0.079 A 
ATOM     19  C   UNL     1      47.701  19.660  19.722  0.00  0.00    -0.041 A 
ATOM     23  C   UNL     1      46.927  18.539  19.751  0.00  0.00    +0.005 A 
ATOM     24  C   UNL     1      45.716  18.542  20.459  0.00  0.00    +0.009 A 
ENDROOT
BRANCH   8   7
ATOM      1  C   UNL     1      47.724  11.591  15.856  0.00  0.00    +0.041 C 
ATOM      2  C   UNL     1      47.510  12.843  16.709  0.00  0.00    +0.135 C 
ATOM      3  C   UNL     1      46.458  12.559  17.783  0.00  0.00    +0.093 C 
ATOM      4  C   UNL     1      46.067  13.843  18.471  0.00  0.00    -0.055 A 
ATOM      5  C   UNL     1      45.411  13.762  19.692  0.00  0.00    +0.004 A 
ATOM      6  C   UNL     1      45.028  14.906  20.358  0.00  0.00    +0.033 A 
ATOM      7  C   UNL     1      45.302  16.155  19.800  0.00  0.00    -0.052 A 
ATOM     25  C   UNL     1      45.962  16.231  18.576  0.00  0.00    +0.057 A 
ATOM     26  C   UNL     1      46.346  15.075  17.916  0.00  0.00    -0.068 A 
ATOM     27  C   UNL     1      47.066  15.209  16.601  0.00  0.00    +0.341 C 
ATOM     30  C   UNL     1      48.524  15.596  16.860  0.00  0.00    -0.003 C 
ATOM     31  N   UNL     1      47.030  13.946  15.860  0.00  0.00    -0.694 NA
ATOM     32  H   UNL     1      47.569  14.007  15.009  0.00  0.00    +0.345 HD
BRANCH  27  28
ATOM     28  O   UNL     1      46.440  16.231  15.822  0.00  0.00    -0.543 OA
ATOM     29  H   UNL     1      45.498  16.083  15.662  0.00  0.00    +0.378 HD
ENDBRANCH  27  28
ENDBRANCH   8   7
BRANCH  11  12
ATOM     12  O   UNL     1      43.691  20.837  22.505  0.00  0.00    -0.480 OA
ATOM     13  H   UNL     1      44.394  21.487  22.640  0.00  0.00    +0.392 HD
ENDBRANCH  11  12
BRANCH  15  16
ATOM     16  O   UNL     1      45.750  21.998  21.729  0.00  0.00    -0.294 OA
ATOM     17  C   UNL     1      45.636  23.184  20.940  0.00  0.00    +0.240 C 
ENDBRANCH  15  16
BRANCH  19  20
ATOM     20  C   UNL     1      49.000  19.645  18.958  0.00  0.00    +0.229 C 
BRANCH  20  21
ATOM     21  O   UNL     1      49.479  20.982  18.807  0.00  0.00    -0.565 OA
ATOM     22  H   UNL     1      50.005  21.299  19.555  0.00  0.00    +0.382 HD
ENDBRANCH  20  21
ENDBRANCH  19  20
TORSDOF 6
ENDMDL
MODEL 4
REMARK VINA RESULT:      -5.7      1.820      2.593
REMARK  Name = ZINC95486203
REMARK  9 active torsions:
REMARK  status: ('A' for Active; 'I' for Inactive)
REMARK    1  A    between atoms: C1_1  and  C2_2
REMARK    2  A    between atoms: C7_8  and  C12_15
REMARK    3  A    between atoms: C10_11  and  C11_13
REMARK    4  A    between atoms: C10_11  and  O1_14
REMARK    5  A    between atoms: C15_18  and  O4_29
REMARK    6  A    between atoms: C19_22  and  C23_27
REMARK    7  A    between atoms: C21_24  and  O2_25
REMARK    8  A    between atoms: O2_25  and  C22_26
REMARK    9  A    between atoms: C23_27  and  O3_28
REMARK                            x       y       z     vdW  Elec       q    Type
REMARK                         _______ _______ _______ _____ _____    ______ ____
ROOT
ATOM      8  C   UNL     1      45.315  18.327  19.560  0.00  0.00    -0.051 A 
ATOM      9  C   UNL     1      43.995  18.371  19.974  0.00  0.00    +0.057 A 
ATOM     10  C   UNL     1      43.535  19.415  20.766  0.00  0.00    -0.021 A 
ATOM     11  C   UNL     1      44.380  20.429  21.161  0.00  0.00    +0.144 A 
ATOM     14  C   UNL     1      45.730  20.414  20.758  0.00  0.00    -0.092 A 
ATOM     15  C   UNL     1      46.618  21.438  21.146  0.00  0.00    +0.154 A 
ATOM     18  C   UNL     1      47.934  21.381  20.745  0.00  0.00    -0.079 A 
ATOM     19  C   UNL     1      48.390  20.334  19.949  0.00  0.00    -0.041 A 
ATOM     23  C   UNL     1      47.552  19.335  19.556  0.00  0.00    +0.005 A 
ATOM     24  C   UNL     1      46.206  19.352  19.954  0.00  0.00    +0.009 A 
ENDROOT
BRANCH   8   7
ATOM      1  C   UNL     1      47.434  11.522  16.029  0.00  0.00    +0.041 C 
ATOM      2  C   UNL     1      46.727  12.647  16.787  0.00  0.00    +0.135 C 
ATOM      3  C   UNL     1      47.191  14.000  16.248  0.00  0.00    +0.093 C 
ATOM      4  C   UNL     1      46.689  15.109  17.139  0.00  0.00    -0.055 A 
ATOM      5  C   UNL     1      46.691  16.404  16.641  0.00  0.00    +0.004 A 
ATOM      6  C   UNL     1      46.247  17.453  17.418  0.00  0.00    +0.033 A 
ATOM      7  C   UNL     1      45.792  17.208  18.714  0.00  0.00    -0.052 A 
ATOM     25  C   UNL     1      45.791  15.906  19.207  0.00  0.00    +0.057 A 
ATOM     26  C   UNL     1      46.236  14.859  18.417  0.00  0.00    -0.068 A 
ATOM     27  C   UNL     1      46.205  13.467  18.992  0.00  0.00    +0.341 C 
ATOM     30  C   UNL     1      44.769  12.939  18.958  0.00  0.00    -0.003 C 
ATOM     31  N   UNL     1      47.065  12.569  18.217  0.00  0.00    -0.694 NA
ATOM     32  H   UNL     1      46.997  11.620  18.553  0.00  0.00    +0.345 HD
BRANCH  27  28
ATOM     28  O   UNL     1      46.660  13.505  20.346  0.00  0.00    -0.543 OA
ATOM     29  H   UNL     1      47.261  14.237  20.540  0.00  0.00    +0.378 HD
ENDBRANCH  27  28
ENDBRANCH   8   7
BRANCH  11  12
ATOM     12  O   UNL     1      43.913  21.442  21.936  0.00  0.00    -0.480 OA
ATOM     13  H   UNL     1      44.449  22.247  21.897  0.00  0.00    +0.392 HD
ENDBRANCH  11  12
BRANCH  15  16
ATOM     16  O   UNL     1      46.182  22.464  21.921  0.00  0.00    -0.294 OA
ATOM     17  C   UNL     1      46.310  23.782  21.384  0.00  0.00    +0.240 C 
ENDBRANCH  15  16
BRANCH  19  20
ATOM     20  C   UNL     1      49.833  20.306  19.516  0.00  0.00    +0.229 C 
BRANCH  20  21
ATOM     21  O   UNL     1      50.016  21.190  18.409  0.00  0.00    -0.565 OA
ATOM     22  H   UNL     1      50.570  20.828  17.704  0.00  0.00    +0.382 HD
ENDBRANCH  20  21
ENDBRANCH  19  20
TORSDOF 6
ENDMDL
MODEL 5
REMARK VINA RESULT:      -5.6      1.445      2.088
REMARK  Name = ZINC95486203
REMARK  9 active torsions:
REMARK  status: ('A' for Active; 'I' for Inactive)
REMARK    1  A    between atoms: C1_1  and  C2_2
REMARK    2  A    between atoms: C7_8  and  C12_15
REMARK    3  A    between atoms: C10_11  and  C11_13
REMARK    4  A    between atoms: C10_11  and  O1_14
REMARK    5  A    between atoms: C15_18  and  O4_29
REMARK    6  A    between atoms: C19_22  and  C23_27
REMARK    7  A    between atoms: C21_24  and  O2_25
REMARK    8  A    between atoms: O2_25  and  C22_26
REMARK    9  A    between atoms: C23_27  and  O3_28
REMARK                            x       y       z     vdW  Elec       q    Type
REMARK                         _______ _______ _______ _____ _____    ______ ____
ROOT
ATOM      8  C   UNL     1      45.063  19.457  19.083  0.00  0.00    -0.051 A 
ATOM      9  C   UNL     1      43.746  19.719  18.750  0.00  0.00    +0.057 A 
ATOM     10  C   UNL     1      43.136  20.903  19.144  0.00  0.00    -0.021 A 
ATOM     11  C   UNL     1      43.826  21.843  19.879  0.00  0.00    +0.144 A 
ATOM     14  C   UNL     1      45.168  21.608  20.236  0.00  0.00    -0.092 A 
ATOM     15  C   UNL     1      45.898  22.552  20.986  0.00  0.00    +0.154 A 
ATOM     18  C   UNL     1      47.203  22.279  21.329  0.00  0.00    -0.079 A 
ATOM     19  C   UNL     1      47.811  21.093  20.930  0.00  0.00    -0.041 A 
ATOM     23  C   UNL     1      47.129  20.166  20.201  0.00  0.00    +0.005 A 
ATOM     24  C   UNL     1      45.794  20.402  19.841  0.00  0.00    +0.009 A 
ENDROOT
BRANCH   8   7
ATOM      1  C   UNL     1      48.064  12.172  17.986  0.00  0.00    +0.041 C 
ATOM      2  C   UNL     1      47.202  13.391  18.322  0.00  0.00    +0.135 C 
ATOM      3  C   UNL     1      47.566  14.549  17.392  0.00  0.00    +0.093 C 
ATOM      4  C   UNL     1      46.901  15.817  17.865  0.00  0.00    -0.055 A 
ATOM      5  C   UNL     1      46.808  16.881  16.978  0.00  0.00    +0.004 A 
ATOM      6  C   UNL     1      46.214  18.064  17.364  0.00  0.00    +0.033 A 
ATOM      7  C   UNL     1      45.702  18.191  18.656  0.00  0.00    -0.052 A 
ATOM     25  C   UNL     1      45.796  17.119  19.540  0.00  0.00    +0.057 A 
ATOM     26  C   UNL     1      46.392  15.934  19.142  0.00  0.00    -0.068 A 
ATOM     27  C   UNL     1      46.460  14.800  20.131  0.00  0.00    +0.341 C 
ATOM     30  C   UNL     1      45.088  14.129  20.224  0.00  0.00    -0.003 C 
ATOM     31  N   UNL     1      47.453  13.807  19.712  0.00  0.00    -0.694 NA
ATOM     32  H   UNL     1      47.456  13.011  20.332  0.00  0.00    +0.345 HD
BRANCH  27  28
ATOM     28  O   UNL     1      46.821  15.315  21.414  0.00  0.00    -0.543 OA
ATOM     29  H   UNL     1      47.617  14.915  21.790  0.00  0.00    +0.378 HD
ENDBRANCH  27  28
ENDBRANCH   8   7
BRANCH  11  12
ATOM     12  O   UNL     1      43.213  22.995  20.256  0.00  0.00    -0.480 OA
ATOM     13  H   UNL     1      43.631  23.434  21.010  0.00  0.00    +0.392 HD
ENDBRANCH  11  12
BRANCH  15  16
ATOM     16  O   UNL     1      45.315  23.713  21.379  0.00  0.00    -0.294 OA
ATOM     17  C   UNL     1      45.970  24.927  21.006  0.00  0.00    +0.240 C 
ENDBRANCH  15  16
BRANCH  19  20
ATOM     20  C   UNL     1      49.245  20.828  21.311  0.00  0.00    +0.229 C 
BRANCH  20  21
ATOM     21  O   UNL     1      50.049  20.776  20.132  0.00  0.00    -0.565 OA
ATOM     22  H   UNL     1      49.563  20.523  19.335  0.00  0.00    +0.382 HD
ENDBRANCH  20  21
ENDBRANCH  19  20
TORSDOF 6
ENDMDL
MODEL 6
REMARK VINA RESULT:      -5.5      3.063      4.845
REMARK  Name = ZINC95486203
REMARK  9 active torsions:
REMARK  status: ('A' for Active; 'I' for Inactive)
REMARK    1  A    between atoms: C1_1  and  C2_2
REMARK    2  A    between atoms: C7_8  and  C12_15
REMARK    3  A    between atoms: C10_11  and  C11_13
REMARK    4  A    between atoms: C10_11  and  O1_14
REMARK    5  A    between atoms: C15_18  and  O4_29
REMARK    6  A    between atoms: C19_22  and  C23_27
REMARK    7  A    between atoms: C21_24  and  O2_25
REMARK    8  A    between atoms: O2_25  and  C22_26
REMARK    9  A    between atoms: C23_27  and  O3_28
REMARK                            x       y       z     vdW  Elec       q    Type
REMARK                         _______ _______ _______ _____ _____    ______ ____
ROOT
ATOM      8  C   UNL     1      46.981  19.700  19.552  0.00  0.00    -0.051 A 
ATOM      9  C   UNL     1      46.852  20.919  18.909  0.00  0.00    +0.057 A 
ATOM     10  C   UNL     1      45.602  21.495  18.724  0.00  0.00    -0.021 A 
ATOM     11  C   UNL     1      44.460  20.867  19.173  0.00  0.00    +0.144 A 
ATOM     14  C   UNL     1      44.555  19.625  19.832  0.00  0.00    -0.092 A 
ATOM     15  C   UNL     1      43.405  18.960  20.303  0.00  0.00    +0.154 A 
ATOM     18  C   UNL     1      43.538  17.740  20.928  0.00  0.00    -0.079 A 
ATOM     19  C   UNL     1      44.792  17.168  21.113  0.00  0.00    -0.041 A 
ATOM     23  C   UNL     1      45.920  17.792  20.671  0.00  0.00    +0.005 A 
ATOM     24  C   UNL     1      45.826  19.031  20.020  0.00  0.00    +0.009 A 
ENDROOT
BRANCH   8   7
ATOM      1  C   UNL     1      54.103  16.172  19.250  0.00  0.00    +0.041 C 
ATOM      2  C   UNL     1      52.841  17.000  18.999  0.00  0.00    +0.135 C 
ATOM      3  C   UNL     1      52.187  17.357  20.334  0.00  0.00    +0.093 C 
ATOM      4  C   UNL     1      50.827  17.961  20.095  0.00  0.00    -0.055 A 
ATOM      5  C   UNL     1      50.231  18.671  21.128  0.00  0.00    +0.004 A 
ATOM      6  C   UNL     1      48.986  19.239  20.961  0.00  0.00    +0.033 A 
ATOM      7  C   UNL     1      48.320  19.098  19.743  0.00  0.00    -0.052 A 
ATOM     25  C   UNL     1      48.923  18.386  18.709  0.00  0.00    +0.057 A 
ATOM     26  C   UNL     1      50.176  17.822  18.886  0.00  0.00    -0.068 A 
ATOM     27  C   UNL     1      50.791  17.072  17.735  0.00  0.00    +0.341 C 
ATOM     30  C   UNL     1      51.338  18.072  16.714  0.00  0.00    -0.003 C 
ATOM     31  N   UNL     1      51.885  16.216  18.201  0.00  0.00    -0.694 NA
ATOM     32  H   UNL     1      52.347  15.761  17.427  0.00  0.00    +0.345 HD
BRANCH  27  28
ATOM     28  O   UNL     1      49.791  16.262  17.111  0.00  0.00    -0.543 OA
ATOM     29  H   UNL     1      48.885  16.548  17.289  0.00  0.00    +0.378 HD
ENDBRANCH  27  28
ENDBRANCH   8   7
BRANCH  11  12
ATOM     12  O   UNL     1      43.246  21.445  18.984  0.00  0.00    -0.480 OA
ATOM     13  H   UNL     1      43.015  22.103  19.654  0.00  0.00    +0.392 HD
ENDBRANCH  11  12
BRANCH  15  16
ATOM     16  O   UNL     1      42.177  19.511  20.129  0.00  0.00    -0.294 OA
ATOM     17  C   UNL     1      41.107  18.970  20.907  0.00  0.00    +0.240 C 
ENDBRANCH  15  16
BRANCH  19  20
ATOM     20  C   UNL     1      44.906  15.837  21.811  0.00  0.00    +0.229 C 
BRANCH  20  21
ATOM     21  O   UNL     1      45.332  14.844  20.878  0.00  0.00    -0.565 OA
ATOM     22  H   UNL     1      45.908  15.182  20.178  0.00  0.00    +0.382 HD
ENDBRANCH  20  21
ENDBRANCH  19  20
TORSDOF 6
ENDMDL
MODEL 7
REMARK VINA RESULT:      -5.5      2.988      4.974
REMARK  Name = ZINC95486203
REMARK  9 active torsions:
REMARK  status: ('A' for Active; 'I' for Inactive)
REMARK    1  A    between atoms: C1_1  and  C2_2
REMARK    2  A    between atoms: C7_8  and  C12_15
REMARK    3  A    between atoms: C10_11  and  C11_13
REMARK    4  A    between atoms: C10_11  and  O1_14
REMARK    5  A    between atoms: C15_18  and  O4_29
REMARK    6  A    between atoms: C19_22  and  C23_27
REMARK    7  A    between atoms: C21_24  and  O2_25
REMARK    8  A    between atoms: O2_25  and  C22_26
REMARK    9  A    between atoms: C23_27  and  O3_28
REMARK                            x       y       z     vdW  Elec       q    Type
REMARK                         _______ _______ _______ _____ _____    ______ ____
ROOT
ATOM      8  C   UNL     1      48.022  21.083  21.116  0.00  0.00    -0.051 A 
ATOM      9  C   UNL     1      48.235  22.188  21.922  0.00  0.00    +0.057 A 
ATOM     10  C   UNL     1      47.256  23.163  22.064  0.00  0.00    -0.021 A 
ATOM     11  C   UNL     1      46.051  23.056  21.404  0.00  0.00    +0.144 A 
ATOM     14  C   UNL     1      45.801  21.945  20.574  0.00  0.00    -0.092 A 
ATOM     15  C   UNL     1      44.577  21.809  19.888  0.00  0.00    +0.154 A 
ATOM     18  C   UNL     1      44.376  20.717  19.075  0.00  0.00    -0.079 A 
ATOM     19  C   UNL     1      45.359  19.742  18.937  0.00  0.00    -0.041 A 
ATOM     23  C   UNL     1      46.548  19.846  19.593  0.00  0.00    +0.005 A 
ATOM     24  C   UNL     1      46.795  20.950  20.423  0.00  0.00    +0.009 A 
ENDROOT
BRANCH   8   7
ATOM      1  C   UNL     1      54.008  16.203  19.215  0.00  0.00    +0.041 C 
ATOM      2  C   UNL     1      53.090  17.398  19.483  0.00  0.00    +0.135 C 
ATOM      3  C   UNL     1      52.097  17.043  20.591  0.00  0.00    +0.093 C 
ATOM      4  C   UNL     1      51.043  18.116  20.698  0.00  0.00    -0.055 A 
ATOM      5  C   UNL     1      50.274  18.170  21.852  0.00  0.00    +0.004 A 
ATOM      6  C   UNL     1      49.294  19.128  21.997  0.00  0.00    +0.033 A 
ATOM      7  C   UNL     1      49.073  20.050  20.974  0.00  0.00    -0.052 A 
ATOM     25  C   UNL     1      49.849  19.993  19.819  0.00  0.00    +0.057 A 
ATOM     26  C   UNL     1      50.834  19.028  19.685  0.00  0.00    -0.068 A 
ATOM     27  C   UNL     1      51.653  19.014  18.421  0.00  0.00    +0.341 C 
ATOM     30  C   UNL     1      52.696  20.132  18.483  0.00  0.00    -0.003 C 
ATOM     31  N   UNL     1      52.337  17.728  18.263  0.00  0.00    -0.694 NA
ATOM     32  H   UNL     1      52.942  17.734  17.455  0.00  0.00    +0.345 HD
BRANCH  27  28
ATOM     28  O   UNL     1      50.795  19.234  17.300  0.00  0.00    -0.543 OA
ATOM     29  H   UNL     1      50.234  18.478  17.078  0.00  0.00    +0.378 HD
ENDBRANCH  27  28
ENDBRANCH   8   7
BRANCH  11  12
ATOM     12  O   UNL     1      45.105  24.019  21.554  0.00  0.00    -0.480 OA
ATOM     13  H   UNL     1      45.026  24.615  20.796  0.00  0.00    +0.392 HD
ENDBRANCH  11  12
BRANCH  15  16
ATOM     16  O   UNL     1      43.611  22.755  20.017  0.00  0.00    -0.294 OA
ATOM     17  C   UNL     1      42.478  22.647  19.153  0.00  0.00    +0.240 C 
ENDBRANCH  15  16
BRANCH  19  20
ATOM     20  C   UNL     1      45.104  18.551  18.048  0.00  0.00    +0.229 C 
BRANCH  20  21
ATOM     21  O   UNL     1      46.275  18.270  17.281  0.00  0.00    -0.565 OA
ATOM     22  H   UNL     1      46.384  17.335  17.059  0.00  0.00    +0.382 HD
ENDBRANCH  20  21
ENDBRANCH  19  20
TORSDOF 6
ENDMDL
MODEL 8
REMARK VINA RESULT:      -5.4      3.203      7.647
REMARK  Name = ZINC95486203
REMARK  9 active torsions:
REMARK  status: ('A' for Active; 'I' for Inactive)
REMARK    1  A    between atoms: C1_1  and  C2_2
REMARK    2  A    between atoms: C7_8  and  C12_15
REMARK    3  A    between atoms: C10_11  and  C11_13
REMARK    4  A    between atoms: C10_11  and  O1_14
REMARK    5  A    between atoms: C15_18  and  O4_29
REMARK    6  A    between atoms: C19_22  and  C23_27
REMARK    7  A    between atoms: C21_24  and  O2_25
REMARK    8  A    between atoms: O2_25  and  C22_26
REMARK    9  A    between atoms: C23_27  and  O3_28
REMARK                            x       y       z     vdW  Elec       q    Type
REMARK                         _______ _______ _______ _____ _____    ______ ____
ROOT
ATOM      8  C   UNL     1      47.277  17.160  18.789  0.00  0.00    -0.051 A 
ATOM      9  C   UNL     1      48.285  18.108  18.751  0.00  0.00    +0.057 A 
ATOM     10  C   UNL     1      49.472  17.855  18.076  0.00  0.00    -0.021 A 
ATOM     11  C   UNL     1      49.677  16.655  17.430  0.00  0.00    +0.144 A 
ATOM     14  C   UNL     1      48.672  15.667  17.450  0.00  0.00    -0.092 A 
ATOM     15  C   UNL     1      48.853  14.431  16.798  0.00  0.00    +0.154 A 
ATOM     18  C   UNL     1      47.854  13.485  16.852  0.00  0.00    -0.079 A 
ATOM     19  C   UNL     1      46.666  13.743  17.528  0.00  0.00    -0.041 A 
ATOM     23  C   UNL     1      46.463  14.932  18.162  0.00  0.00    +0.005 A 
ATOM     24  C   UNL     1      47.462  15.917  18.139  0.00  0.00    +0.009 A 
ENDROOT
BRANCH   8   7
ATOM      1  C   UNL     1      40.300  19.624  21.707  0.00  0.00    +0.041 C 
ATOM      2  C   UNL     1      41.470  19.173  20.830  0.00  0.00    +0.135 C 
ATOM      3  C   UNL     1      42.381  18.240  21.630  0.00  0.00    +0.093 C 
ATOM      4  C   UNL     1      43.653  17.982  20.862  0.00  0.00    -0.055 A 
ATOM      5  C   UNL     1      44.439  16.901  21.235  0.00  0.00    +0.004 A 
ATOM      6  C   UNL     1      45.614  16.626  20.569  0.00  0.00    +0.033 A 
ATOM      7  C   UNL     1      46.015  17.442  19.512  0.00  0.00    -0.052 A 
ATOM     25  C   UNL     1      45.222  18.526  19.140  0.00  0.00    +0.057 A 
ATOM     26  C   UNL     1      44.042  18.791  19.814  0.00  0.00    -0.068 A 
ATOM     27  C   UNL     1      43.213  19.967  19.368  0.00  0.00    +0.341 C 
ATOM     30  C   UNL     1      42.452  19.594  18.094  0.00  0.00    -0.003 C 
ATOM     31  N   UNL     1      42.252  20.346  20.407  0.00  0.00    -0.694 NA
ATOM     32  H   UNL     1      41.647  21.088  20.090  0.00  0.00    +0.345 HD
BRANCH  27  28
ATOM     28  O   UNL     1      44.074  21.074  19.095  0.00  0.00    -0.543 OA
ATOM     29  H   UNL     1      44.293  21.182  18.159  0.00  0.00    +0.378 HD
ENDBRANCH  27  28
ENDBRANCH   8   7
BRANCH  11  12
ATOM     12  O   UNL     1      50.844  16.425  16.775  0.00  0.00    -0.480 OA
ATOM     13  H   UNL     1      51.452  17.177  16.780  0.00  0.00    +0.392 HD
ENDBRANCH  11  12
BRANCH  15  16
ATOM     16  O   UNL     1      50.009  14.170  16.134  0.00  0.00    -0.294 OA
ATOM     17  C   UNL     1      50.013  13.040  15.259  0.00  0.00    +0.240 C 
ENDBRANCH  15  16
BRANCH  19  20
ATOM     20  C   UNL     1      45.586  12.692  17.559  0.00  0.00    +0.229 C 
BRANCH  20  21
ATOM     21  O   UNL     1      44.623  13.027  18.559  0.00  0.00    -0.565 OA
ATOM     22  H   UNL     1      44.022  12.304  18.784  0.00  0.00    +0.382 HD
ENDBRANCH  20  21
ENDBRANCH  19  20
TORSDOF 6
ENDMDL
MODEL 9
REMARK VINA RESULT:      -5.4      5.259      8.632
REMARK  Name = ZINC95486203
REMARK  9 active torsions:
REMARK  status: ('A' for Active; 'I' for Inactive)
REMARK    1  A    between atoms: C1_1  and  C2_2
REMARK    2  A    between atoms: C7_8  and  C12_15
REMARK    3  A    between atoms: C10_11  and  C11_13
REMARK    4  A    between atoms: C10_11  and  O1_14
REMARK    5  A    between atoms: C15_18  and  O4_29
REMARK    6  A    between atoms: C19_22  and  C23_27
REMARK    7  A    between atoms: C21_24  and  O2_25
REMARK    8  A    between atoms: O2_25  and  C22_26
REMARK    9  A    between atoms: C23_27  and  O3_28
REMARK                            x       y       z     vdW  Elec       q    Type
REMARK                         _______ _______ _______ _____ _____    ______ ____
ROOT
ATOM      8  C   UNL     1      48.690  16.162  17.683  0.00  0.00    -0.051 A 
ATOM      9  C   UNL     1      47.437  16.401  17.147  0.00  0.00    +0.057 A 
ATOM     10  C   UNL     1      46.753  15.401  16.467  0.00  0.00    -0.021 A 
ATOM     11  C   UNL     1      47.306  14.149  16.307  0.00  0.00    +0.144 A 
ATOM     14  C   UNL     1      48.581  13.872  16.839  0.00  0.00    -0.092 A 
ATOM     15  C   UNL     1      49.171  12.600  16.691  0.00  0.00    +0.154 A 
ATOM     18  C   UNL     1      50.425  12.372  17.212  0.00  0.00    -0.079 A 
ATOM     19  C   UNL     1      51.106  13.376  17.894  0.00  0.00    -0.041 A 
ATOM     23  C   UNL     1      50.556  14.612  18.055  0.00  0.00    +0.005 A 
ATOM     24  C   UNL     1      49.284  14.887  17.530  0.00  0.00    +0.009 A 
ENDROOT
BRANCH   8   7
ATOM      1  C   UNL     1      52.948  22.336  20.331  0.00  0.00    +0.041 C 
ATOM      2  C   UNL     1      52.021  21.385  19.572  0.00  0.00    +0.135 C 
ATOM      3  C   UNL     1      51.478  20.324  20.531  0.00  0.00    +0.093 C 
ATOM      4  C   UNL     1      50.760  19.249  19.755  0.00  0.00    -0.055 A 
ATOM      5  C   UNL     1      49.902  18.403  20.442  0.00  0.00    +0.004 A 
ATOM      6  C   UNL     1      49.226  17.401  19.780  0.00  0.00    +0.033 A 
ATOM      7  C   UNL     1      49.408  17.236  18.406  0.00  0.00    -0.052 A 
ATOM     25  C   UNL     1      50.270  18.089  17.721  0.00  0.00    +0.057 A 
ATOM     26  C   UNL     1      50.941  19.095  18.396  0.00  0.00    -0.068 A 
ATOM     27  C   UNL     1      51.853  19.998  17.608  0.00  0.00    +0.341 C 
ATOM     30  C   UNL     1      51.012  21.018  16.838  0.00  0.00    -0.003 C 
ATOM     31  N   UNL     1      52.771  20.711  18.500  0.00  0.00    -0.694 NA
ATOM     32  H   UNL     1      53.340  21.369  17.988  0.00  0.00    +0.345 HD
BRANCH  27  28
ATOM     28  O   UNL     1      52.608  19.215  16.681  0.00  0.00    -0.543 OA
ATOM     29  H   UNL     1      52.298  19.279  15.768  0.00  0.00    +0.378 HD
ENDBRANCH  27  28
ENDBRANCH   8   7
BRANCH  11  12
ATOM     12  O   UNL     1      46.623  13.184  15.639  0.00  0.00    -0.480 OA
ATOM     13  H   UNL     1      47.152  12.402  15.429  0.00  0.00    +0.392 HD
ENDBRANCH  11  12
BRANCH  15  16
ATOM     16  O   UNL     1      48.514  11.614  16.028  0.00  0.00    -0.294 OA
ATOM     17  C   UNL     1      49.243  10.918  15.015  0.00  0.00    +0.240 C 
ENDBRANCH  15  16
BRANCH  19  20
ATOM     20  C   UNL     1      52.472  13.092  18.463  0.00  0.00    +0.229 C 
BRANCH  20  21
ATOM     21  O   UNL     1      52.779  14.058  19.469  0.00  0.00    -0.565 OA
ATOM     22  H   UNL     1      53.690  14.013  19.793  0.00  0.00    +0.382 HD
ENDBRANCH  20  21
ENDBRANCH  19  20
TORSDOF 6
ENDMDL
