MODEL 1
REMARK VINA RESULT:      -5.9      0.000      0.000
REMARK  Name = ZINC95486027
REMARK  8 active torsions:
REMARK  status: ('A' for Active; 'I' for Inactive)
REMARK    1  A    between atoms: C1_1  and  C2_2
REMARK    2  A    between atoms: C2_2  and  C18_20
REMARK    3  A    between atoms: C3_3  and  C4_4
REMARK    4  A    between atoms: C4_4  and  C5_5
REMARK    5  A    between atoms: C12_14  and  C13_15
REMARK    6  A    between atoms: C13_15  and  C14_16
REMARK    7  A    between atoms: C13_15  and  C15_17
REMARK    8  A    between atoms: C13_15  and  C16_18
REMARK                            x       y       z     vdW  Elec       q    Type
REMARK                         _______ _______ _______ _____ _____    ______ ____
ROOT
ATOM      6  C   UNL     1      46.576  20.723  20.077  0.00  0.00    -0.052 A 
ATOM      7  C   UNL     1      45.809  19.567  20.046  0.00  0.00    -0.020 A 
ATOM      8  C   UNL     1      44.464  19.632  19.818  0.00  0.00    +0.051 A 
ATOM      9  C   UNL     1      43.854  20.873  19.615  0.00  0.00    -0.099 A 
ATOM     10  C   UNL     1      44.627  22.048  19.647  0.00  0.00    +0.099 A 
ATOM     11  N   UNL     1      43.773  23.103  19.419  0.00  0.00    -0.596 N 
ATOM     12  C   UNL     1      42.498  22.638  19.245  0.00  0.00    +0.218 A 
ATOM     13  H   UNL     1      44.036  24.036  19.385  0.00  0.00    +0.415 HD
ATOM     14  C   UNL     1      42.479  21.301  19.352  0.00  0.00    -0.151 A 
ATOM     20  C   UNL     1      45.995  21.957  19.885  0.00  0.00    -0.011 A 
ENDROOT
BRANCH  14  15
ATOM     15  C   UNL     1      41.271  20.408  19.225  0.00  0.00    +0.038 C 
ATOM     18  C   UNL     1      41.286  19.366  20.345  0.00  0.00    +0.038 C 
ATOM     19  C   UNL     1      41.301  19.700  17.869  0.00  0.00    +0.033 C 
BRANCH  15  16
ATOM     16  C   UNL     1      40.018  21.240  19.329  0.00  0.00    -0.027 C 
ATOM     17  C   UNL     1      39.220  21.354  18.297  0.00  0.00    -0.004 C 
ENDBRANCH  15  16
ENDBRANCH  14  15
BRANCH   6   5
ATOM      5  C   UNL     1      48.058  20.628  20.330  0.00  0.00    +0.107 C 
BRANCH   5   4
ATOM      1  C   UNL     1      50.878  20.676  20.300  0.00  0.00    +0.073 C 
ATOM      2  C   UNL     1      50.107  20.774  19.009  0.00  0.00    -0.131 C 
ATOM      3  C   UNL     1      50.839  20.962  17.705  0.00  0.00    +0.072 C 
ATOM      4  C   UNL     1      48.798  20.692  19.020  0.00  0.00    -0.052 C 
ENDBRANCH   5   4
ENDBRANCH   6   5
TORSDOF 4
ENDMDL
MODEL 2
REMARK VINA RESULT:      -5.8      2.242      7.807
REMARK  Name = ZINC95486027
REMARK  8 active torsions:
REMARK  status: ('A' for Active; 'I' for Inactive)
REMARK    1  A    between atoms: C1_1  and  C2_2
REMARK    2  A    between atoms: C2_2  and  C18_20
REMARK    3  A    between atoms: C3_3  and  C4_4
REMARK    4  A    between atoms: C4_4  and  C5_5
REMARK    5  A    between atoms: C12_14  and  C13_15
REMARK    6  A    between atoms: C13_15  and  C14_16
REMARK    7  A    between atoms: C13_15  and  C15_17
REMARK    8  A    between atoms: C13_15  and  C16_18
REMARK                            x       y       z     vdW  Elec       q    Type
REMARK                         _______ _______ _______ _____ _____    ______ ____
ROOT
ATOM      6  C   UNL     1      45.456  19.803  18.670  0.00  0.00    -0.052 A 
ATOM      7  C   UNL     1      46.202  20.931  18.983  0.00  0.00    -0.020 A 
ATOM      8  C   UNL     1      47.563  20.857  19.080  0.00  0.00    +0.051 A 
ATOM      9  C   UNL     1      48.209  19.638  18.861  0.00  0.00    -0.099 A 
ATOM     10  C   UNL     1      47.457  18.493  18.544  0.00  0.00    +0.099 A 
ATOM     11  N   UNL     1      48.346  17.453  18.387  0.00  0.00    -0.596 N 
ATOM     12  C   UNL     1      49.623  17.900  18.591  0.00  0.00    +0.218 A 
ATOM     13  H   UNL     1      48.103  16.541  18.162  0.00  0.00    +0.415 HD
ATOM     14  C   UNL     1      49.609  19.210  18.882  0.00  0.00    -0.151 A 
ATOM     20  C   UNL     1      46.072  18.590  18.456  0.00  0.00    -0.011 A 
ENDROOT
BRANCH  14  15
ATOM     15  C   UNL     1      50.808  20.076  19.173  0.00  0.00    +0.038 C 
ATOM     18  C   UNL     1      52.079  19.228  19.105  0.00  0.00    +0.038 C 
ATOM     19  C   UNL     1      50.672  20.681  20.572  0.00  0.00    +0.033 C 
BRANCH  15  16
ATOM     16  C   UNL     1      50.887  21.184  18.153  0.00  0.00    -0.027 C 
ATOM     17  C   UNL     1      51.435  20.959  16.985  0.00  0.00    -0.004 C 
ENDBRANCH  15  16
ENDBRANCH  14  15
BRANCH   6   5
ATOM      5  C   UNL     1      43.956  19.906  18.569  0.00  0.00    +0.107 C 
BRANCH   5   4
ATOM      1  C   UNL     1      41.158  19.981  18.911  0.00  0.00    +0.073 C 
ATOM      2  C   UNL     1      42.030  19.342  19.961  0.00  0.00    -0.131 C 
ATOM      3  C   UNL     1      41.415  18.800  21.225  0.00  0.00    +0.072 C 
ATOM      4  C   UNL     1      43.325  19.256  19.773  0.00  0.00    -0.052 C 
ENDBRANCH   5   4
ENDBRANCH   6   5
TORSDOF 4
ENDMDL
MODEL 3
REMARK VINA RESULT:      -5.8     18.952     21.568
REMARK  Name = ZINC95486027
REMARK  8 active torsions:
REMARK  status: ('A' for Active; 'I' for Inactive)
REMARK    1  A    between atoms: C1_1  and  C2_2
REMARK    2  A    between atoms: C2_2  and  C18_20
REMARK    3  A    between atoms: C3_3  and  C4_4
REMARK    4  A    between atoms: C4_4  and  C5_5
REMARK    5  A    between atoms: C12_14  and  C13_15
REMARK    6  A    between atoms: C13_15  and  C14_16
REMARK    7  A    between atoms: C13_15  and  C15_17
REMARK    8  A    between atoms: C13_15  and  C16_18
REMARK                            x       y       z     vdW  Elec       q    Type
REMARK                         _______ _______ _______ _____ _____    ______ ____
ROOT
ATOM      6  C   UNL     1      57.010  32.005   3.623  0.00  0.00    -0.052 A 
ATOM      7  C   UNL     1      55.705  31.691   3.270  0.00  0.00    -0.020 A 
ATOM      8  C   UNL     1      54.651  32.262   3.925  0.00  0.00    +0.051 A 
ATOM      9  C   UNL     1      54.889  33.169   4.960  0.00  0.00    -0.099 A 
ATOM     10  C   UNL     1      56.209  33.491   5.323  0.00  0.00    +0.099 A 
ATOM     11  N   UNL     1      56.138  34.396   6.358  0.00  0.00    -0.596 N 
ATOM     12  C   UNL     1      54.829  34.656   6.658  0.00  0.00    +0.218 A 
ATOM     13  H   UNL     1      56.902  34.792   6.806  0.00  0.00    +0.415 HD
ATOM     14  C   UNL     1      54.024  33.947   5.851  0.00  0.00    -0.151 A 
ATOM     20  C   UNL     1      57.266  32.892   4.645  0.00  0.00    -0.011 A 
ENDROOT
BRANCH  14  15
ATOM     15  C   UNL     1      52.516  33.951   5.859  0.00  0.00    +0.038 C 
ATOM     18  C   UNL     1      52.002  34.651   4.599  0.00  0.00    +0.038 C 
ATOM     19  C   UNL     1      52.015  34.696   7.097  0.00  0.00    +0.033 C 
BRANCH  15  16
ATOM     16  C   UNL     1      52.011  32.531   5.887  0.00  0.00    -0.027 C 
ATOM     17  C   UNL     1      50.771  32.284   6.229  0.00  0.00    -0.004 C 
ENDBRANCH  15  16
ENDBRANCH  14  15
BRANCH   6   5
ATOM      5  C   UNL     1      58.157  31.362   2.887  0.00  0.00    +0.107 C 
BRANCH   5   4
ATOM      1  C   UNL     1      59.338  29.149   4.176  0.00  0.00    +0.073 C 
ATOM      2  C   UNL     1      58.368  28.935   3.043  0.00  0.00    -0.131 C 
ATOM      3  C   UNL     1      58.076  27.540   2.554  0.00  0.00    +0.072 C 
ATOM      4  C   UNL     1      57.775  29.962   2.484  0.00  0.00    -0.052 C 
ENDBRANCH   5   4
ENDBRANCH   6   5
TORSDOF 4
ENDMDL
MODEL 4
REMARK VINA RESULT:      -5.7      1.781      7.356
REMARK  Name = ZINC95486027
REMARK  8 active torsions:
REMARK  status: ('A' for Active; 'I' for Inactive)
REMARK    1  A    between atoms: C1_1  and  C2_2
REMARK    2  A    between atoms: C2_2  and  C18_20
REMARK    3  A    between atoms: C3_3  and  C4_4
REMARK    4  A    between atoms: C4_4  and  C5_5
REMARK    5  A    between atoms: C12_14  and  C13_15
REMARK    6  A    between atoms: C13_15  and  C14_16
REMARK    7  A    between atoms: C13_15  and  C15_17
REMARK    8  A    between atoms: C13_15  and  C16_18
REMARK                            x       y       z     vdW  Elec       q    Type
REMARK                         _______ _______ _______ _____ _____    ______ ____
ROOT
ATOM      6  C   UNL     1      45.088  21.360  19.880  0.00  0.00    -0.052 A 
ATOM      7  C   UNL     1      45.691  20.901  18.717  0.00  0.00    -0.020 A 
ATOM      8  C   UNL     1      47.030  20.632  18.689  0.00  0.00    +0.051 A 
ATOM      9  C   UNL     1      47.799  20.821  19.840  0.00  0.00    -0.099 A 
ATOM     10  C   UNL     1      47.193  21.286  21.021  0.00  0.00    +0.099 A 
ATOM     11  N   UNL     1      48.179  21.375  21.977  0.00  0.00    -0.596 N 
ATOM     12  C   UNL     1      49.378  20.984  21.445  0.00  0.00    +0.218 A 
ATOM     13  H   UNL     1      48.045  21.670  22.891  0.00  0.00    +0.415 HD
ATOM     14  C   UNL     1      49.217  20.638  20.158  0.00  0.00    -0.151 A 
ATOM     20  C   UNL     1      45.828  21.559  21.024  0.00  0.00    -0.011 A 
ENDROOT
BRANCH  14  15
ATOM     15  C   UNL     1      50.291  20.151  19.220  0.00  0.00    +0.038 C 
ATOM     18  C   UNL     1      49.896  18.784  18.657  0.00  0.00    +0.038 C 
ATOM     19  C   UNL     1      51.614  20.027  19.979  0.00  0.00    +0.033 C 
BRANCH  15  16
ATOM     16  C   UNL     1      50.452  21.134  18.087  0.00  0.00    -0.027 C 
ATOM     17  C   UNL     1      51.397  20.959  17.198  0.00  0.00    -0.004 C 
ENDBRANCH  15  16
ENDBRANCH  14  15
BRANCH   6   5
ATOM      5  C   UNL     1      43.609  21.652  19.888  0.00  0.00    +0.107 C 
BRANCH   5   4
ATOM      1  C   UNL     1      41.160  22.190  18.597  0.00  0.00    +0.073 C 
ATOM      2  C   UNL     1      41.709  20.787  18.622  0.00  0.00    -0.131 C 
ATOM      3  C   UNL     1      40.919  19.657  18.013  0.00  0.00    +0.072 C 
ATOM      4  C   UNL     1      42.875  20.548  19.171  0.00  0.00    -0.052 C 
ENDBRANCH   5   4
ENDBRANCH   6   5
TORSDOF 4
ENDMDL
MODEL 5
REMARK VINA RESULT:      -5.6      1.912      3.313
REMARK  Name = ZINC95486027
REMARK  8 active torsions:
REMARK  status: ('A' for Active; 'I' for Inactive)
REMARK    1  A    between atoms: C1_1  and  C2_2
REMARK    2  A    between atoms: C2_2  and  C18_20
REMARK    3  A    between atoms: C3_3  and  C4_4
REMARK    4  A    between atoms: C4_4  and  C5_5
REMARK    5  A    between atoms: C12_14  and  C13_15
REMARK    6  A    between atoms: C13_15  and  C14_16
REMARK    7  A    between atoms: C13_15  and  C15_17
REMARK    8  A    between atoms: C13_15  and  C16_18
REMARK                            x       y       z     vdW  Elec       q    Type
REMARK                         _______ _______ _______ _____ _____    ______ ____
ROOT
ATOM      6  C   UNL     1      48.683  20.296  19.868  0.00  0.00    -0.052 A 
ATOM      7  C   UNL     1      48.269  19.413  20.856  0.00  0.00    -0.020 A 
ATOM      8  C   UNL     1      46.940  19.163  21.050  0.00  0.00    +0.051 A 
ATOM      9  C   UNL     1      45.990  19.801  20.248  0.00  0.00    -0.099 A 
ATOM     10  C   UNL     1      46.405  20.697  19.247  0.00  0.00    +0.099 A 
ATOM     11  N   UNL     1      45.270  21.167  18.626  0.00  0.00    -0.596 N 
ATOM     12  C   UNL     1      44.162  20.602  19.196  0.00  0.00    +0.218 A 
ATOM     13  H   UNL     1      45.258  21.802  17.893  0.00  0.00    +0.415 HD
ATOM     14  C   UNL     1      44.528  19.769  20.182  0.00  0.00    -0.151 A 
ATOM     20  C   UNL     1      47.764  20.940  19.071  0.00  0.00    -0.011 A 
ENDROOT
BRANCH  14  15
ATOM     15  C   UNL     1      43.608  18.953  21.054  0.00  0.00    +0.038 C 
ATOM     18  C   UNL     1      42.167  19.111  20.565  0.00  0.00    +0.038 C 
ATOM     19  C   UNL     1      43.712  19.440  22.501  0.00  0.00    +0.033 C 
BRANCH  15  16
ATOM     16  C   UNL     1      44.006  17.500  20.983  0.00  0.00    -0.027 C 
ATOM     17  C   UNL     1      43.939  16.750  22.054  0.00  0.00    -0.004 C 
ENDBRANCH  15  16
ENDBRANCH  14  15
BRANCH   6   5
ATOM      5  C   UNL     1      50.154  20.558  19.672  0.00  0.00    +0.107 C 
BRANCH   5   4
ATOM      1  C   UNL     1      52.205  19.433  18.096  0.00  0.00    +0.073 C 
ATOM      2  C   UNL     1      51.384  20.579  17.562  0.00  0.00    -0.131 C 
ATOM      3  C   UNL     1      51.699  21.168  16.212  0.00  0.00    +0.072 C 
ATOM      4  C   UNL     1      50.393  21.062  18.272  0.00  0.00    -0.052 C 
ENDBRANCH   5   4
ENDBRANCH   6   5
TORSDOF 4
ENDMDL
MODEL 6
REMARK VINA RESULT:      -5.6      2.234      3.760
REMARK  Name = ZINC95486027
REMARK  8 active torsions:
REMARK  status: ('A' for Active; 'I' for Inactive)
REMARK    1  A    between atoms: C1_1  and  C2_2
REMARK    2  A    between atoms: C2_2  and  C18_20
REMARK    3  A    between atoms: C3_3  and  C4_4
REMARK    4  A    between atoms: C4_4  and  C5_5
REMARK    5  A    between atoms: C12_14  and  C13_15
REMARK    6  A    between atoms: C13_15  and  C14_16
REMARK    7  A    between atoms: C13_15  and  C15_17
REMARK    8  A    between atoms: C13_15  and  C16_18
REMARK                            x       y       z     vdW  Elec       q    Type
REMARK                         _______ _______ _______ _____ _____    ______ ____
ROOT
ATOM      6  C   UNL     1      48.922  19.015  18.802  0.00  0.00    -0.052 A 
ATOM      7  C   UNL     1      48.837  20.212  19.498  0.00  0.00    -0.020 A 
ATOM      8  C   UNL     1      47.631  20.829  19.675  0.00  0.00    +0.051 A 
ATOM      9  C   UNL     1      46.473  20.249  19.150  0.00  0.00    -0.099 A 
ATOM     10  C   UNL     1      46.553  19.037  18.442  0.00  0.00    +0.099 A 
ATOM     11  N   UNL     1      45.276  18.710  18.048  0.00  0.00    -0.596 N 
ATOM     12  C   UNL     1      44.398  19.667  18.479  0.00  0.00    +0.218 A 
ATOM     13  H   UNL     1      45.034  17.919  17.542  0.00  0.00    +0.415 HD
ATOM     14  C   UNL     1      45.057  20.624  19.150  0.00  0.00    -0.151 A 
ATOM     20  C   UNL     1      47.794  18.430  18.271  0.00  0.00    -0.011 A 
ENDROOT
BRANCH  14  15
ATOM     15  C   UNL     1      44.454  21.851  19.786  0.00  0.00    +0.038 C 
ATOM     18  C   UNL     1      44.667  21.799  21.300  0.00  0.00    +0.038 C 
ATOM     19  C   UNL     1      42.955  21.898  19.482  0.00  0.00    +0.033 C 
BRANCH  15  16
ATOM     16  C   UNL     1      45.118  23.084  19.227  0.00  0.00    -0.027 C 
ATOM     17  C   UNL     1      44.439  24.197  19.108  0.00  0.00    -0.004 C 
ENDBRANCH  15  16
ENDBRANCH  14  15
BRANCH   6   5
ATOM      5  C   UNL     1      50.263  18.353  18.618  0.00  0.00    +0.107 C 
BRANCH   5   4
ATOM      1  C   UNL     1      52.461  20.074  18.221  0.00  0.00    +0.073 C 
ATOM      2  C   UNL     1      51.754  19.466  17.037  0.00  0.00    -0.131 C 
ATOM      3  C   UNL     1      52.179  19.828  15.637  0.00  0.00    +0.072 C 
ATOM      4  C   UNL     1      50.770  18.621  17.225  0.00  0.00    -0.052 C 
ENDBRANCH   5   4
ENDBRANCH   6   5
TORSDOF 4
ENDMDL
MODEL 7
REMARK VINA RESULT:      -5.5      3.199      7.648
REMARK  Name = ZINC95486027
REMARK  8 active torsions:
REMARK  status: ('A' for Active; 'I' for Inactive)
REMARK    1  A    between atoms: C1_1  and  C2_2
REMARK    2  A    between atoms: C2_2  and  C18_20
REMARK    3  A    between atoms: C3_3  and  C4_4
REMARK    4  A    between atoms: C4_4  and  C5_5
REMARK    5  A    between atoms: C12_14  and  C13_15
REMARK    6  A    between atoms: C13_15  and  C14_16
REMARK    7  A    between atoms: C13_15  and  C15_17
REMARK    8  A    between atoms: C13_15  and  C16_18
REMARK                            x       y       z     vdW  Elec       q    Type
REMARK                         _______ _______ _______ _____ _____    ______ ____
ROOT
ATOM      6  C   UNL     1      47.291  20.430  20.350  0.00  0.00    -0.052 A 
ATOM      7  C   UNL     1      48.499  21.110  20.293  0.00  0.00    -0.020 A 
ATOM      8  C   UNL     1      49.509  20.665  19.487  0.00  0.00    +0.051 A 
ATOM      9  C   UNL     1      49.324  19.516  18.715  0.00  0.00    -0.099 A 
ATOM     10  C   UNL     1      48.102  18.822  18.771  0.00  0.00    +0.099 A 
ATOM     11  N   UNL     1      48.206  17.746  17.919  0.00  0.00    -0.596 N 
ATOM     12  C   UNL     1      49.441  17.737  17.331  0.00  0.00    +0.218 A 
ATOM     13  H   UNL     1      47.507  17.092  17.757  0.00  0.00    +0.415 HD
ATOM     14  C   UNL     1      50.165  18.778  17.770  0.00  0.00    -0.151 A 
ATOM     20  C   UNL     1      47.090  19.291  19.602  0.00  0.00    -0.011 A 
ENDROOT
BRANCH  14  15
ATOM     15  C   UNL     1      51.575  19.125  17.365  0.00  0.00    +0.038 C 
ATOM     18  C   UNL     1      51.875  18.519  15.992  0.00  0.00    +0.038 C 
ATOM     19  C   UNL     1      52.555  18.561  18.396  0.00  0.00    +0.033 C 
BRANCH  15  16
ATOM     16  C   UNL     1      51.724  20.624  17.297  0.00  0.00    -0.027 C 
ATOM     17  C   UNL     1      51.524  21.251  16.165  0.00  0.00    -0.004 C 
ENDBRANCH  15  16
ENDBRANCH  14  15
BRANCH   6   5
ATOM      5  C   UNL     1      46.191  20.938  21.247  0.00  0.00    +0.107 C 
BRANCH   5   4
ATOM      1  C   UNL     1      44.353  22.707  20.045  0.00  0.00    +0.073 C 
ATOM      2  C   UNL     1      45.521  23.248  20.828  0.00  0.00    -0.131 C 
ATOM      3  C   UNL     1      45.746  24.736  20.916  0.00  0.00    +0.072 C 
ATOM      4  C   UNL     1      46.342  22.425  21.434  0.00  0.00    -0.052 C 
ENDBRANCH   5   4
ENDBRANCH   6   5
TORSDOF 4
ENDMDL
MODEL 8
REMARK VINA RESULT:      -5.5      4.040      7.181
REMARK  Name = ZINC95486027
REMARK  8 active torsions:
REMARK  status: ('A' for Active; 'I' for Inactive)
REMARK    1  A    between atoms: C1_1  and  C2_2
REMARK    2  A    between atoms: C2_2  and  C18_20
REMARK    3  A    between atoms: C3_3  and  C4_4
REMARK    4  A    between atoms: C4_4  and  C5_5
REMARK    5  A    between atoms: C12_14  and  C13_15
REMARK    6  A    between atoms: C13_15  and  C14_16
REMARK    7  A    between atoms: C13_15  and  C15_17
REMARK    8  A    between atoms: C13_15  and  C16_18
REMARK                            x       y       z     vdW  Elec       q    Type
REMARK                         _______ _______ _______ _____ _____    ______ ____
ROOT
ATOM      6  C   UNL     1      44.449  18.974  19.652  0.00  0.00    -0.052 A 
ATOM      7  C   UNL     1      44.406  17.798  20.388  0.00  0.00    -0.020 A 
ATOM      8  C   UNL     1      45.060  16.681  19.950  0.00  0.00    +0.051 A 
ATOM      9  C   UNL     1      45.778  16.723  18.752  0.00  0.00    -0.099 A 
ATOM     10  C   UNL     1      45.824  17.912  18.003  0.00  0.00    +0.099 A 
ATOM     11  N   UNL     1      46.592  17.661  16.888  0.00  0.00    -0.596 N 
ATOM     12  C   UNL     1      47.029  16.365  16.908  0.00  0.00    +0.218 A 
ATOM     13  H   UNL     1      46.794  18.307  16.193  0.00  0.00    +0.415 HD
ATOM     14  C   UNL     1      46.572  15.744  18.007  0.00  0.00    -0.151 A 
ATOM     20  C   UNL     1      45.145  19.036  18.466  0.00  0.00    -0.011 A 
ENDROOT
BRANCH  14  15
ATOM     15  C   UNL     1      46.830  14.312  18.400  0.00  0.00    +0.038 C 
ATOM     18  C   UNL     1      47.393  14.267  19.822  0.00  0.00    +0.038 C 
ATOM     19  C   UNL     1      47.839  13.691  17.432  0.00  0.00    +0.033 C 
BRANCH  15  16
ATOM     16  C   UNL     1      45.538  13.536  18.346  0.00  0.00    -0.027 C 
ATOM     17  C   UNL     1      44.996  13.088  19.450  0.00  0.00    -0.004 C 
ENDBRANCH  15  16
ENDBRANCH  14  15
BRANCH   6   5
ATOM      5  C   UNL     1      43.719  20.194  20.153  0.00  0.00    +0.107 C 
BRANCH   5   4
ATOM      1  C   UNL     1      41.044  19.370  20.493  0.00  0.00    +0.073 C 
ATOM      2  C   UNL     1      41.440  20.169  19.277  0.00  0.00    -0.131 C 
ATOM      3  C   UNL     1      40.421  20.473  18.209  0.00  0.00    +0.072 C 
ATOM      4  C   UNL     1      42.671  20.601  19.150  0.00  0.00    -0.052 C 
ENDBRANCH   5   4
ENDBRANCH   6   5
TORSDOF 4
ENDMDL
MODEL 9
REMARK VINA RESULT:      -5.3      2.172      3.311
REMARK  Name = ZINC95486027
REMARK  8 active torsions:
REMARK  status: ('A' for Active; 'I' for Inactive)
REMARK    1  A    between atoms: C1_1  and  C2_2
REMARK    2  A    between atoms: C2_2  and  C18_20
REMARK    3  A    between atoms: C3_3  and  C4_4
REMARK    4  A    between atoms: C4_4  and  C5_5
REMARK    5  A    between atoms: C12_14  and  C13_15
REMARK    6  A    between atoms: C13_15  and  C14_16
REMARK    7  A    between atoms: C13_15  and  C15_17
REMARK    8  A    between atoms: C13_15  and  C16_18
REMARK                            x       y       z     vdW  Elec       q    Type
REMARK                         _______ _______ _______ _____ _____    ______ ____
ROOT
ATOM      6  C   UNL     1      48.586  20.510  19.428  0.00  0.00    -0.052 A 
ATOM      7  C   UNL     1      47.808  19.520  18.845  0.00  0.00    -0.020 A 
ATOM      8  C   UNL     1      46.623  19.144  19.412  0.00  0.00    +0.051 A 
ATOM      9  C   UNL     1      46.191  19.762  20.588  0.00  0.00    -0.099 A 
ATOM     10  C   UNL     1      46.977  20.765  21.184  0.00  0.00    +0.099 A 
ATOM     11  N   UNL     1      46.313  21.186  22.313  0.00  0.00    -0.596 N 
ATOM     12  C   UNL     1      45.143  20.488  22.451  0.00  0.00    +0.218 A 
ATOM     13  H   UNL     1      46.625  21.874  22.921  0.00  0.00    +0.415 HD
ATOM     14  C   UNL     1      45.011  19.613  21.442  0.00  0.00    -0.151 A 
ATOM     20  C   UNL     1      48.182  21.127  20.591  0.00  0.00    -0.011 A 
ENDROOT
BRANCH  14  15
ATOM     15  C   UNL     1      43.863  18.658  21.228  0.00  0.00    +0.038 C 
ATOM     18  C   UNL     1      42.893  18.755  22.407  0.00  0.00    +0.038 C 
ATOM     19  C   UNL     1      44.401  17.230  21.125  0.00  0.00    +0.033 C 
BRANCH  15  16
ATOM     16  C   UNL     1      43.143  19.017  19.953  0.00  0.00    -0.027 C 
ATOM     17  C   UNL     1      41.888  19.389  19.992  0.00  0.00    -0.004 C 
ENDBRANCH  15  16
ENDBRANCH  14  15
BRANCH   6   5
ATOM      5  C   UNL     1      49.890  20.907  18.786  0.00  0.00    +0.107 C 
BRANCH   5   4
ATOM      1  C   UNL     1      51.516  21.199  16.500  0.00  0.00    +0.073 C 
ATOM      2  C   UNL     1      51.237  19.828  17.059  0.00  0.00    -0.131 C 
ATOM      3  C   UNL     1      51.773  18.605  16.360  0.00  0.00    +0.072 C 
ATOM      4  C   UNL     1      50.530  19.698  18.155  0.00  0.00    -0.052 C 
ENDBRANCH   5   4
ENDBRANCH   6   5
TORSDOF 4
ENDMDL
