MODEL 1
REMARK VINA RESULT:      -5.4      0.000      0.000
REMARK  Name = ZINC95486167
REMARK  6 active torsions:
REMARK  status: ('A' for Active; 'I' for Inactive)
REMARK    1  A    between atoms: C1_1  and  C2_2
REMARK    2  A    between atoms: C7_8  and  O4_16
REMARK    3  A    between atoms: C9_10  and  O3_14
REMARK    4  A    between atoms: C10_11  and  O2_12
REMARK    5  A    between atoms: O2_12  and  C11_13
REMARK    6  A    between atoms: O3_14  and  C12_15
REMARK                            x       y       z     vdW  Elec       q    Type
REMARK                         _______ _______ _______ _____ _____    ______ ____
ROOT
ATOM      1  C   UNL     1      47.541  22.305  21.934  0.00  0.00    +0.075 C 
ATOM      2  C   UNL     1      46.168  21.831  21.534  0.00  0.00    -0.443 C 
ATOM      3  C   UNL     1      45.804  20.553  21.775  0.00  0.00    +0.247 C 
ATOM      4  O   UNL     1      46.673  19.704  22.373  0.00  0.00    -0.645 OA
ATOM      5  C   UNL     1      44.456  20.075  21.385  0.00  0.00    +0.392 C 
ATOM      6  C   UNL     1      43.639  20.898  20.476  0.00  0.00    -0.095 A 
ATOM      7  C   UNL     1      44.028  22.233  20.227  0.00  0.00    -0.146 A 
ATOM      8  C   UNL     1      43.268  23.029  19.369  0.00  0.00    +0.175 A 
ATOM     11  C   UNL     1      42.129  22.501  18.761  0.00  0.00    -0.077 A 
ATOM     12  C   UNL     1      41.746  21.197  18.999  0.00  0.00    +0.125 A 
ATOM     15  C   UNL     1      42.501  20.382  19.861  0.00  0.00    +0.101 A 
ATOM     18  O   UNL     1      44.029  19.018  21.810  0.00  0.00    -0.415 OA
ATOM     19  C   UNL     1      45.233  22.762  20.891  0.00  0.00    +0.430 C 
ATOM     20  O   UNL     1      45.453  23.959  20.903  0.00  0.00    -0.498 OA
ENDROOT
BRANCH   8   9
ATOM      9  O   UNL     1      43.636  24.311  19.130  0.00  0.00    -0.472 OA
ATOM     10  H   UNL     1      44.419  24.397  18.567  0.00  0.00    +0.392 HD
ENDBRANCH   8   9
BRANCH  12  13
ATOM     13  O   UNL     1      40.636  20.699  18.399  0.00  0.00    -0.302 OA
ATOM     14  C   UNL     1      39.433  21.461  18.525  0.00  0.00    +0.238 C 
ENDBRANCH  12  13
BRANCH  15  16
ATOM     16  O   UNL     1      42.122  19.102  20.094  0.00  0.00    -0.311 OA
ATOM     17  C   UNL     1      41.023  18.903  20.986  0.00  0.00    +0.229 C 
ENDBRANCH  15  16
TORSDOF 3
ENDMDL
MODEL 2
REMARK VINA RESULT:      -5.3      1.277      4.760
REMARK  Name = ZINC95486167
REMARK  6 active torsions:
REMARK  status: ('A' for Active; 'I' for Inactive)
REMARK    1  A    between atoms: C1_1  and  C2_2
REMARK    2  A    between atoms: C7_8  and  O4_16
REMARK    3  A    between atoms: C9_10  and  O3_14
REMARK    4  A    between atoms: C10_11  and  O2_12
REMARK    5  A    between atoms: O2_12  and  C11_13
REMARK    6  A    between atoms: O3_14  and  C12_15
REMARK                            x       y       z     vdW  Elec       q    Type
REMARK                         _______ _______ _______ _____ _____    ______ ____
ROOT
ATOM      1  C   UNL     1      39.618  21.305  18.487  0.00  0.00    +0.075 C 
ATOM      2  C   UNL     1      41.054  21.122  18.908  0.00  0.00    -0.443 C 
ATOM      3  C   UNL     1      41.470  19.923  19.368  0.00  0.00    +0.247 C 
ATOM      4  O   UNL     1      40.597  18.891  19.450  0.00  0.00    -0.645 OA
ATOM      5  C   UNL     1      42.880  19.732  19.785  0.00  0.00    +0.392 C 
ATOM      6  C   UNL     1      43.735  20.916  19.981  0.00  0.00    -0.095 A 
ATOM      7  C   UNL     1      43.292  22.167  19.498  0.00  0.00    -0.146 A 
ATOM      8  C   UNL     1      44.087  23.300  19.673  0.00  0.00    +0.175 A 
ATOM     11  C   UNL     1      45.316  23.191  20.324  0.00  0.00    -0.077 A 
ATOM     12  C   UNL     1      45.753  21.971  20.798  0.00  0.00    +0.125 A 
ATOM     15  C   UNL     1      44.963  20.820  20.630  0.00  0.00    +0.101 A 
ATOM     18  O   UNL     1      43.325  18.614  19.963  0.00  0.00    -0.415 OA
ATOM     19  C   UNL     1      41.992  22.247  18.809  0.00  0.00    +0.430 C 
ATOM     20  O   UNL     1      41.696  23.239  18.167  0.00  0.00    -0.498 OA
ENDROOT
BRANCH   8   9
ATOM      9  O   UNL     1      43.667  24.503  19.210  0.00  0.00    -0.472 OA
ATOM     10  H   UNL     1      43.077  24.445  18.445  0.00  0.00    +0.392 HD
ENDBRANCH   8   9
BRANCH  12  13
ATOM     13  O   UNL     1      46.951  21.882  21.430  0.00  0.00    -0.302 OA
ATOM     14  C   UNL     1      47.290  22.939  22.329  0.00  0.00    +0.238 C 
ENDBRANCH  12  13
BRANCH  15  16
ATOM     16  O   UNL     1      45.396  19.623  21.096  0.00  0.00    -0.311 OA
ATOM     17  C   UNL     1      45.306  19.403  22.505  0.00  0.00    +0.229 C 
ENDBRANCH  15  16
TORSDOF 3
ENDMDL
MODEL 3
REMARK VINA RESULT:      -4.9      4.217      5.524
REMARK  Name = ZINC95486167
REMARK  6 active torsions:
REMARK  status: ('A' for Active; 'I' for Inactive)
REMARK    1  A    between atoms: C1_1  and  C2_2
REMARK    2  A    between atoms: C7_8  and  O4_16
REMARK    3  A    between atoms: C9_10  and  O3_14
REMARK    4  A    between atoms: C10_11  and  O2_12
REMARK    5  A    between atoms: O2_12  and  C11_13
REMARK    6  A    between atoms: O3_14  and  C12_15
REMARK                            x       y       z     vdW  Elec       q    Type
REMARK                         _______ _______ _______ _____ _____    ______ ____
ROOT
ATOM      1  C   UNL     1      46.447  13.214  19.051  0.00  0.00    +0.075 C 
ATOM      2  C   UNL     1      45.974  14.561  19.532  0.00  0.00    -0.443 C 
ATOM      3  C   UNL     1      45.275  14.654  20.684  0.00  0.00    +0.247 C 
ATOM      4  O   UNL     1      45.001  13.537  21.399  0.00  0.00    -0.645 OA
ATOM      5  C   UNL     1      44.804  15.974  21.167  0.00  0.00    +0.392 C 
ATOM      6  C   UNL     1      44.837  17.126  20.249  0.00  0.00    -0.095 A 
ATOM      7  C   UNL     1      45.570  17.021  19.046  0.00  0.00    -0.146 A 
ATOM      8  C   UNL     1      45.614  18.100  18.163  0.00  0.00    +0.175 A 
ATOM     11  C   UNL     1      44.934  19.278  18.473  0.00  0.00    -0.077 A 
ATOM     12  C   UNL     1      44.216  19.385  19.647  0.00  0.00    +0.125 A 
ATOM     15  C   UNL     1      44.162  18.306  20.547  0.00  0.00    +0.101 A 
ATOM     18  O   UNL     1      44.396  16.104  22.305  0.00  0.00    -0.415 OA
ATOM     19  C   UNL     1      46.283  15.765  18.751  0.00  0.00    +0.430 C 
ATOM     20  O   UNL     1      47.117  15.724  17.864  0.00  0.00    -0.498 OA
ENDROOT
BRANCH   8   9
ATOM      9  O   UNL     1      46.317  18.004  17.008  0.00  0.00    -0.472 OA
ATOM     10  H   UNL     1      46.644  17.113  16.820  0.00  0.00    +0.392 HD
ENDBRANCH   8   9
BRANCH  12  13
ATOM     13  O   UNL     1      43.560  20.538  19.934  0.00  0.00    -0.302 OA
ATOM     14  C   UNL     1      42.483  20.904  19.068  0.00  0.00    +0.238 C 
ENDBRANCH  12  13
BRANCH  15  16
ATOM     16  O   UNL     1      43.457  18.415  21.699  0.00  0.00    -0.311 OA
ATOM     17  C   UNL     1      42.032  18.368  21.596  0.00  0.00    +0.229 C 
ENDBRANCH  15  16
TORSDOF 3
ENDMDL
MODEL 4
REMARK VINA RESULT:      -4.9     21.170     22.972
REMARK  Name = ZINC95486167
REMARK  6 active torsions:
REMARK  status: ('A' for Active; 'I' for Inactive)
REMARK    1  A    between atoms: C1_1  and  C2_2
REMARK    2  A    between atoms: C7_8  and  O4_16
REMARK    3  A    between atoms: C9_10  and  O3_14
REMARK    4  A    between atoms: C10_11  and  O2_12
REMARK    5  A    between atoms: O2_12  and  C11_13
REMARK    6  A    between atoms: O3_14  and  C12_15
REMARK                            x       y       z     vdW  Elec       q    Type
REMARK                         _______ _______ _______ _____ _____    ______ ____
ROOT
ATOM      1  C   UNL     1      57.188  31.705   1.125  0.00  0.00    +0.075 C 
ATOM      2  C   UNL     1      56.049  31.901   2.092  0.00  0.00    -0.443 C 
ATOM      3  C   UNL     1      54.775  31.791   1.657  0.00  0.00    +0.247 C 
ATOM      4  O   UNL     1      54.527  31.508   0.357  0.00  0.00    -0.645 OA
ATOM      5  C   UNL     1      53.647  31.982   2.599  0.00  0.00    +0.392 C 
ATOM      6  C   UNL     1      53.909  32.581   3.920  0.00  0.00    -0.095 A 
ATOM      7  C   UNL     1      55.245  32.693   4.367  0.00  0.00    -0.146 A 
ATOM      8  C   UNL     1      55.515  33.257   5.613  0.00  0.00    +0.175 A 
ATOM     11  C   UNL     1      54.464  33.708   6.413  0.00  0.00    -0.077 A 
ATOM     12  C   UNL     1      53.158  33.601   5.981  0.00  0.00    +0.125 A 
ATOM     15  C   UNL     1      52.869  33.035   4.726  0.00  0.00    +0.101 A 
ATOM     18  O   UNL     1      52.519  31.648   2.287  0.00  0.00    -0.415 OA
ATOM     19  C   UNL     1      56.332  32.202   3.501  0.00  0.00    +0.430 C 
ATOM     20  O   UNL     1      57.454  32.050   3.948  0.00  0.00    -0.498 OA
ENDROOT
BRANCH   8   9
ATOM      9  O   UNL     1      56.795  33.365   6.047  0.00  0.00    -0.472 OA
ATOM     10  H   UNL     1      56.993  32.825   6.824  0.00  0.00    +0.392 HD
ENDBRANCH   8   9
BRANCH  12  13
ATOM     13  O   UNL     1      52.147  34.045   6.770  0.00  0.00    -0.302 OA
ATOM     14  C   UNL     1      52.316  35.326   7.382  0.00  0.00    +0.238 C 
ENDBRANCH  12  13
BRANCH  15  16
ATOM     16  O   UNL     1      51.585  32.931   4.305  0.00  0.00    -0.311 OA
ATOM     17  C   UNL     1      50.938  34.136   3.892  0.00  0.00    +0.229 C 
ENDBRANCH  15  16
TORSDOF 3
ENDMDL
MODEL 5
REMARK VINA RESULT:      -4.9      1.604      4.128
REMARK  Name = ZINC95486167
REMARK  6 active torsions:
REMARK  status: ('A' for Active; 'I' for Inactive)
REMARK    1  A    between atoms: C1_1  and  C2_2
REMARK    2  A    between atoms: C7_8  and  O4_16
REMARK    3  A    between atoms: C9_10  and  O3_14
REMARK    4  A    between atoms: C10_11  and  O2_12
REMARK    5  A    between atoms: O2_12  and  C11_13
REMARK    6  A    between atoms: O3_14  and  C12_15
REMARK                            x       y       z     vdW  Elec       q    Type
REMARK                         _______ _______ _______ _____ _____    ______ ____
ROOT
ATOM      1  C   UNL     1      44.169  24.886  19.001  0.00  0.00    +0.075 C 
ATOM      2  C   UNL     1      44.238  23.595  19.776  0.00  0.00    -0.443 C 
ATOM      3  C   UNL     1      45.184  23.433  20.726  0.00  0.00    +0.247 C 
ATOM      4  O   UNL     1      46.066  24.430  20.977  0.00  0.00    -0.645 OA
ATOM      5  C   UNL     1      45.262  22.168  21.494  0.00  0.00    +0.392 C 
ATOM      6  C   UNL     1      44.511  20.993  21.017  0.00  0.00    -0.095 A 
ATOM      7  C   UNL     1      43.524  21.170  20.022  0.00  0.00    -0.146 A 
ATOM      8  C   UNL     1      42.803  20.071  19.556  0.00  0.00    +0.175 A 
ATOM     11  C   UNL     1      43.060  18.802  20.076  0.00  0.00    -0.077 A 
ATOM     12  C   UNL     1      44.023  18.624  21.048  0.00  0.00    +0.125 A 
ATOM     15  C   UNL     1      44.759  19.722  21.527  0.00  0.00    +0.101 A 
ATOM     18  O   UNL     1      45.935  22.100  22.505  0.00  0.00    -0.415 OA
ATOM     19  C   UNL     1      43.272  22.525  19.498  0.00  0.00    +0.430 C 
ATOM     20  O   UNL     1      42.275  22.754  18.838  0.00  0.00    -0.498 OA
ENDROOT
BRANCH   8   9
ATOM      9  O   UNL     1      41.853  20.236  18.603  0.00  0.00    -0.472 OA
ATOM     10  H   UNL     1      41.054  19.711  18.749  0.00  0.00    +0.392 HD
ENDBRANCH   8   9
BRANCH  12  13
ATOM     13  O   UNL     1      44.261  17.383  21.543  0.00  0.00    -0.302 OA
ATOM     14  C   UNL     1      43.245  16.807  22.366  0.00  0.00    +0.238 C 
ENDBRANCH  12  13
BRANCH  15  16
ATOM     16  O   UNL     1      45.704  19.543  22.483  0.00  0.00    -0.311 OA
ATOM     17  C   UNL     1      46.975  19.048  22.055  0.00  0.00    +0.229 C 
ENDBRANCH  15  16
TORSDOF 3
ENDMDL
MODEL 6
REMARK VINA RESULT:      -4.8     21.097     22.987
REMARK  Name = ZINC95486167
REMARK  6 active torsions:
REMARK  status: ('A' for Active; 'I' for Inactive)
REMARK    1  A    between atoms: C1_1  and  C2_2
REMARK    2  A    between atoms: C7_8  and  O4_16
REMARK    3  A    between atoms: C9_10  and  O3_14
REMARK    4  A    between atoms: C10_11  and  O2_12
REMARK    5  A    between atoms: O2_12  and  C11_13
REMARK    6  A    between atoms: O3_14  and  C12_15
REMARK                            x       y       z     vdW  Elec       q    Type
REMARK                         _______ _______ _______ _____ _____    ______ ____
ROOT
ATOM      1  C   UNL     1      52.224  34.862   7.474  0.00  0.00    +0.075 C 
ATOM      2  C   UNL     1      52.890  34.228   6.280  0.00  0.00    -0.443 C 
ATOM      3  C   UNL     1      52.140  33.598   5.350  0.00  0.00    +0.247 C 
ATOM      4  O   UNL     1      50.795  33.539   5.494  0.00  0.00    -0.645 OA
ATOM      5  C   UNL     1      52.784  32.971   4.171  0.00  0.00    +0.392 C 
ATOM      6  C   UNL     1      54.244  32.775   4.173  0.00  0.00    -0.095 A 
ATOM      7  C   UNL     1      55.022  33.435   5.151  0.00  0.00    -0.146 A 
ATOM      8  C   UNL     1      56.406  33.262   5.170  0.00  0.00    +0.175 A 
ATOM     11  C   UNL     1      57.015  32.438   4.224  0.00  0.00    -0.077 A 
ATOM     12  C   UNL     1      56.260  31.790   3.268  0.00  0.00    +0.125 A 
ATOM     15  C   UNL     1      54.864  31.953   3.235  0.00  0.00    +0.101 A 
ATOM     18  O   UNL     1      52.117  32.623   3.216  0.00  0.00    -0.415 OA
ATOM     19  C   UNL     1      54.348  34.305   6.132  0.00  0.00    +0.430 C 
ATOM     20  O   UNL     1      54.995  35.076   6.817  0.00  0.00    -0.498 OA
ENDROOT
BRANCH   8   9
ATOM      9  O   UNL     1      57.156  33.896   6.105  0.00  0.00    -0.472 OA
ATOM     10  H   UNL     1      57.672  33.299   6.665  0.00  0.00    +0.392 HD
ENDBRANCH   8   9
BRANCH  12  13
ATOM     13  O   UNL     1      56.868  30.990   2.355  0.00  0.00    -0.302 OA
ATOM     14  C   UNL     1      58.296  31.017   2.319  0.00  0.00    +0.238 C 
ENDBRANCH  12  13
BRANCH  15  16
ATOM     16  O   UNL     1      54.125  31.316   2.294  0.00  0.00    -0.311 OA
ATOM     17  C   UNL     1      54.250  31.779   0.948  0.00  0.00    +0.229 C 
ENDBRANCH  15  16
TORSDOF 3
ENDMDL
MODEL 7
REMARK VINA RESULT:      -4.8      4.214      5.801
REMARK  Name = ZINC95486167
REMARK  6 active torsions:
REMARK  status: ('A' for Active; 'I' for Inactive)
REMARK    1  A    between atoms: C1_1  and  C2_2
REMARK    2  A    between atoms: C7_8  and  O4_16
REMARK    3  A    between atoms: C9_10  and  O3_14
REMARK    4  A    between atoms: C10_11  and  O2_12
REMARK    5  A    between atoms: O2_12  and  C11_13
REMARK    6  A    between atoms: O3_14  and  C12_15
REMARK                            x       y       z     vdW  Elec       q    Type
REMARK                         _______ _______ _______ _____ _____    ______ ____
ROOT
ATOM      1  C   UNL     1      44.011  21.308  20.385  0.00  0.00    +0.075 C 
ATOM      2  C   UNL     1      44.152  19.808  20.337  0.00  0.00    -0.443 C 
ATOM      3  C   UNL     1      43.778  19.065  21.401  0.00  0.00    +0.247 C 
ATOM      4  O   UNL     1      43.280  19.670  22.505  0.00  0.00    -0.645 OA
ATOM      5  C   UNL     1      43.913  17.590  21.365  0.00  0.00    +0.392 C 
ATOM      6  C   UNL     1      44.725  16.970  20.303  0.00  0.00    -0.095 A 
ATOM      7  C   UNL     1      45.113  17.754  19.193  0.00  0.00    -0.146 A 
ATOM      8  C   UNL     1      45.882  17.187  18.177  0.00  0.00    +0.175 A 
ATOM     11  C   UNL     1      46.264  15.848  18.262  0.00  0.00    -0.077 A 
ATOM     12  C   UNL     1      45.887  15.078  19.343  0.00  0.00    +0.125 A 
ATOM     15  C   UNL     1      45.113  15.635  20.376  0.00  0.00    +0.101 A 
ATOM     18  O   UNL     1      43.361  16.899  22.200  0.00  0.00    -0.415 OA
ATOM     19  C   UNL     1      44.688  19.164  19.131  0.00  0.00    +0.430 C 
ATOM     20  O   UNL     1      44.785  19.791  18.092  0.00  0.00    -0.498 OA
ENDROOT
BRANCH   8   9
ATOM      9  O   UNL     1      46.255  17.935  17.110  0.00  0.00    -0.472 OA
ATOM     10  H   UNL     1      46.328  17.434  16.285  0.00  0.00    +0.392 HD
ENDBRANCH   8   9
BRANCH  12  13
ATOM     13  O   UNL     1      46.267  13.777  19.410  0.00  0.00    -0.302 OA
ATOM     14  C   UNL     1      45.743  12.896  18.415  0.00  0.00    +0.238 C 
ENDBRANCH  12  13
BRANCH  15  16
ATOM     16  O   UNL     1      44.744  14.876  21.436  0.00  0.00    -0.311 OA
ATOM     17  C   UNL     1      45.755  14.572  22.400  0.00  0.00    +0.229 C 
ENDBRANCH  15  16
TORSDOF 3
ENDMDL
MODEL 8
REMARK VINA RESULT:      -4.7     21.029     22.516
REMARK  Name = ZINC95486167
REMARK  6 active torsions:
REMARK  status: ('A' for Active; 'I' for Inactive)
REMARK    1  A    between atoms: C1_1  and  C2_2
REMARK    2  A    between atoms: C7_8  and  O4_16
REMARK    3  A    between atoms: C9_10  and  O3_14
REMARK    4  A    between atoms: C10_11  and  O2_12
REMARK    5  A    between atoms: O2_12  and  C11_13
REMARK    6  A    between atoms: O3_14  and  C12_15
REMARK                            x       y       z     vdW  Elec       q    Type
REMARK                         _______ _______ _______ _____ _____    ______ ____
ROOT
ATOM      1  C   UNL     1      57.705  33.251   5.276  0.00  0.00    +0.075 C 
ATOM      2  C   UNL     1      56.308  32.956   4.794  0.00  0.00    -0.443 C 
ATOM      3  C   UNL     1      56.115  32.500   3.537  0.00  0.00    +0.247 C 
ATOM      4  O   UNL     1      57.176  32.311   2.717  0.00  0.00    -0.645 OA
ATOM      5  C   UNL     1      54.745  32.208   3.052  0.00  0.00    +0.392 C 
ATOM      6  C   UNL     1      53.591  32.696   3.827  0.00  0.00    -0.095 A 
ATOM      7  C   UNL     1      53.801  33.173   5.140  0.00  0.00    -0.146 A 
ATOM      8  C   UNL     1      52.722  33.640   5.890  0.00  0.00    +0.175 A 
ATOM     11  C   UNL     1      51.440  33.634   5.339  0.00  0.00    -0.077 A 
ATOM     12  C   UNL     1      51.230  33.170   4.057  0.00  0.00    +0.125 A 
ATOM     15  C   UNL     1      52.307  32.696   3.288  0.00  0.00    +0.101 A 
ATOM     18  O   UNL     1      54.576  31.573   2.028  0.00  0.00    -0.415 OA
ATOM     19  C   UNL     1      55.167  33.160   5.695  0.00  0.00    +0.430 C 
ATOM     20  O   UNL     1      55.348  33.321   6.888  0.00  0.00    -0.498 OA
ENDROOT
BRANCH   8   9
ATOM      9  O   UNL     1      52.919  34.097   7.151  0.00  0.00    -0.472 OA
ATOM     10  H   UNL     1      53.430  34.917   7.197  0.00  0.00    +0.392 HD
ENDBRANCH   8   9
BRANCH  12  13
ATOM     13  O   UNL     1      49.977  33.172   3.536  0.00  0.00    -0.302 OA
ATOM     14  C   UNL     1      49.350  34.443   3.355  0.00  0.00    +0.238 C 
ENDBRANCH  12  13
BRANCH  15  16
ATOM     16  O   UNL     1      52.097  32.241   2.029  0.00  0.00    -0.311 OA
ATOM     17  C   UNL     1      51.910  33.221   1.006  0.00  0.00    +0.229 C 
ENDBRANCH  15  16
TORSDOF 3
ENDMDL
MODEL 9
REMARK VINA RESULT:      -4.6      1.422      5.760
REMARK  Name = ZINC95486167
REMARK  6 active torsions:
REMARK  status: ('A' for Active; 'I' for Inactive)
REMARK    1  A    between atoms: C1_1  and  C2_2
REMARK    2  A    between atoms: C7_8  and  O4_16
REMARK    3  A    between atoms: C9_10  and  O3_14
REMARK    4  A    between atoms: C10_11  and  O2_12
REMARK    5  A    between atoms: O2_12  and  C11_13
REMARK    6  A    between atoms: O3_14  and  C12_15
REMARK                            x       y       z     vdW  Elec       q    Type
REMARK                         _______ _______ _______ _____ _____    ______ ____
ROOT
ATOM      1  C   UNL     1      39.924  20.686  18.459  0.00  0.00    +0.075 C 
ATOM      2  C   UNL     1      41.269  20.874  19.112  0.00  0.00    -0.443 C 
ATOM      3  C   UNL     1      41.946  22.028  18.931  0.00  0.00    +0.247 C 
ATOM      4  O   UNL     1      41.415  23.010  18.165  0.00  0.00    -0.645 OA
ATOM      5  C   UNL     1      43.270  22.224  19.568  0.00  0.00    +0.392 C 
ATOM      6  C   UNL     1      43.970  21.060  20.139  0.00  0.00    -0.095 A 
ATOM      7  C   UNL     1      43.256  19.855  20.323  0.00  0.00    -0.146 A 
ATOM      8  C   UNL     1      43.900  18.741  20.861  0.00  0.00    +0.175 A 
ATOM     11  C   UNL     1      45.247  18.822  21.214  0.00  0.00    -0.077 A 
ATOM     12  C   UNL     1      45.949  19.996  21.035  0.00  0.00    +0.125 A 
ATOM     15  C   UNL     1      45.315  21.128  20.494  0.00  0.00    +0.101 A 
ATOM     18  O   UNL     1      43.772  23.331  19.620  0.00  0.00    -0.415 OA
ATOM     19  C   UNL     1      41.832  19.804  19.945  0.00  0.00    +0.430 C 
ATOM     20  O   UNL     1      41.129  18.882  20.317  0.00  0.00    -0.498 OA
ENDROOT
BRANCH   8   9
ATOM      9  O   UNL     1      43.218  17.584  21.042  0.00  0.00    -0.472 OA
ATOM     10  H   UNL     1      42.418  17.511  20.502  0.00  0.00    +0.392 HD
ENDBRANCH   8   9
BRANCH  12  13
ATOM     13  O   UNL     1      47.260  20.059  21.384  0.00  0.00    -0.302 OA
ATOM     14  C   UNL     1      48.204  19.525  20.454  0.00  0.00    +0.238 C 
ENDBRANCH  12  13
BRANCH  15  16
ATOM     16  O   UNL     1      46.007  22.280  20.320  0.00  0.00    -0.311 OA
ATOM     17  C   UNL     1      46.391  22.991  21.499  0.00  0.00    +0.229 C 
ENDBRANCH  15  16
TORSDOF 3
ENDMDL
