MODEL 1
REMARK VINA RESULT:      -8.0      0.000      0.000
REMARK  Name = ZINC95486210
REMARK  14 active torsions:
REMARK  status: ('A' for Active; 'I' for Inactive)
REMARK    1  A    between atoms: C1_1  and  N1_2
REMARK    2  A    between atoms: C6_8  and  O6_48
REMARK    3  A    between atoms: C7_9  and  O5_46
REMARK    4  A    between atoms: C15_18  and  O4_44
REMARK    5  A    between atoms: C16_19  and  O3_42
REMARK    6  A    between atoms: C17_20  and  O1_21
REMARK    7  A    between atoms: O1_21  and  C18_22
REMARK    8  A    between atoms: C24_28  and  C27_33
REMARK    9  A    between atoms: C27_33  and  C28_34
REMARK   10  A    between atoms: C31_37  and  O2_40
REMARK   11  A    between atoms: O2_40  and  C34_41
REMARK   12  A    between atoms: O3_42  and  C35_43
REMARK   13  A    between atoms: O4_44  and  C36_45
REMARK   14  A    between atoms: O5_46  and  C37_47
REMARK                            x       y       z     vdW  Elec       q    Type
REMARK                         _______ _______ _______ _____ _____    ______ ____
ROOT
ATOM      1  C   UNL     1      52.419  14.480  19.399  0.00  0.00    +0.332 C 
ATOM      2  N   UNL     1      52.504  15.700  18.585  0.00  0.00    -0.372 N 
ATOM      3  H   UNL     1      53.448  15.811  18.244  0.00  0.00    +0.434 HD
ATOM      4  C   UNL     1      51.586  15.592  17.450  0.00  0.00    +0.239 C 
ATOM      5  C   UNL     1      51.867  16.727  16.465  0.00  0.00    +0.142 C 
ATOM      6  C   UNL     1      51.872  18.046  17.197  0.00  0.00    -0.105 A 
ATOM      7  C   UNL     1      51.741  19.214  16.462  0.00  0.00    +0.052 A 
ATOM      8  C   UNL     1      51.743  20.443  17.098  0.00  0.00    +0.108 A 
ATOM     11  C   UNL     1      51.880  20.501  18.481  0.00  0.00    +0.124 A 
ATOM     14  C   UNL     1      52.009  19.332  19.209  0.00  0.00    -0.030 A 
ATOM     15  C   UNL     1      52.005  18.101  18.568  0.00  0.00    -0.088 A 
ATOM     16  C   UNL     1      50.151  15.661  17.894  0.00  0.00    -0.067 A 
ATOM     17  C   UNL     1      49.166  15.235  17.015  0.00  0.00    -0.030 A 
ATOM     18  C   UNL     1      47.830  15.281  17.379  0.00  0.00    +0.140 A 
ATOM     21  C   UNL     1      47.471  15.757  18.634  0.00  0.00    +0.086 A 
ATOM     24  C   UNL     1      48.455  16.135  19.521  0.00  0.00    +0.122 A 
ATOM     46  C   UNL     1      49.794  16.101  19.147  0.00  0.00    -0.118 A 
ATOM     47  C   UNL     1      50.832  16.571  20.133  0.00  0.00    +0.144 C 
ATOM     48  C   UNL     1      52.144  16.858  19.403  0.00  0.00    +0.236 C 
ENDROOT
BRANCH   8   9
ATOM      9  O   UNL     1      51.614  21.588  16.374  0.00  0.00    -0.480 OA
ATOM     10  H   UNL     1      52.060  22.352  16.764  0.00  0.00    +0.398 HD
ENDBRANCH   8   9
BRANCH  11  12
ATOM     12  O   UNL     1      51.885  21.704  19.116  0.00  0.00    -0.296 OA
ATOM     13  C   UNL     1      52.625  21.791  20.336  0.00  0.00    +0.251 C 
ENDBRANCH  11  12
BRANCH  18  19
ATOM     19  O   UNL     1      46.873  14.861  16.509  0.00  0.00    -0.292 OA
ATOM     20  C   UNL     1      46.914  13.491  16.108  0.00  0.00    +0.256 C 
ENDBRANCH  18  19
BRANCH  21  22
ATOM     22  O   UNL     1      46.162  15.807  18.998  0.00  0.00    -0.314 OA
ATOM     23  C   UNL     1      45.616  14.642  19.620  0.00  0.00    +0.245 C 
ENDBRANCH  21  22
BRANCH  24  25
ATOM     25  O   UNL     1      48.107  16.589  20.755  0.00  0.00    -0.249 OA
BRANCH  25  26
ATOM     26  C   UNL     1      47.653  17.865  20.860  0.00  0.00    +0.116 A 
ATOM     27  C   UNL     1      48.406  18.917  20.358  0.00  0.00    -0.061 A 
ATOM     28  C   UNL     1      47.937  20.209  20.467  0.00  0.00    +0.044 A 
ATOM     29  C   UNL     1      46.717  20.464  21.076  0.00  0.00    -0.097 A 
ATOM     30  C   UNL     1      45.967  19.422  21.580  0.00  0.00    -0.072 A 
ATOM     31  C   UNL     1      44.643  19.651  22.261  0.00  0.00    +0.231 C 
ATOM     41  N   UNL     1      44.120  20.980  21.933  0.00  0.00    -0.665 NA
ATOM     42  H   UNL     1      43.817  21.023  20.972  0.00  0.00    +0.344 HD
ATOM     43  C   UNL     1      45.134  22.011  22.212  0.00  0.00    +0.218 C 
ATOM     44  C   UNL     1      46.245  21.892  21.167  0.00  0.00    +0.040 C 
ATOM     45  C   UNL     1      46.433  18.121  21.465  0.00  0.00    +0.004 A 
BRANCH  31  32
ATOM     32  C   UNL     1      43.646  18.588  21.796  0.00  0.00    +0.085 C 
BRANCH  32  33
ATOM     33  C   UNL     1      42.712  19.188  20.776  0.00  0.00    -0.113 A 
ATOM     34  C   UNL     1      43.197  19.582  19.542  0.00  0.00    +0.045 A 
ATOM     35  C   UNL     1      42.343  20.132  18.607  0.00  0.00    -0.024 A 
ATOM     36  C   UNL     1      40.998  20.291  18.906  0.00  0.00    +0.127 A 
ATOM     39  C   UNL     1      40.514  19.896  20.144  0.00  0.00    -0.080 A 
ATOM     40  C   UNL     1      41.371  19.340  21.074  0.00  0.00    +0.068 A 
BRANCH  36  37
ATOM     37  O   UNL     1      40.156  20.833  17.987  0.00  0.00    -0.319 OA
ATOM     38  C   UNL     1      38.966  21.450  18.482  0.00  0.00    +0.240 C 
ENDBRANCH  36  37
ENDBRANCH  32  33
ENDBRANCH  31  32
ENDBRANCH  25  26
ENDBRANCH  24  25
TORSDOF 9
ENDMDL
MODEL 2
REMARK VINA RESULT:      -6.7      3.254      8.076
REMARK  Name = ZINC95486210
REMARK  14 active torsions:
REMARK  status: ('A' for Active; 'I' for Inactive)
REMARK    1  A    between atoms: C1_1  and  N1_2
REMARK    2  A    between atoms: C6_8  and  O6_48
REMARK    3  A    between atoms: C7_9  and  O5_46
REMARK    4  A    between atoms: C15_18  and  O4_44
REMARK    5  A    between atoms: C16_19  and  O3_42
REMARK    6  A    between atoms: C17_20  and  O1_21
REMARK    7  A    between atoms: O1_21  and  C18_22
REMARK    8  A    between atoms: C24_28  and  C27_33
REMARK    9  A    between atoms: C27_33  and  C28_34
REMARK   10  A    between atoms: C31_37  and  O2_40
REMARK   11  A    between atoms: O2_40  and  C34_41
REMARK   12  A    between atoms: O3_42  and  C35_43
REMARK   13  A    between atoms: O4_44  and  C36_45
REMARK   14  A    between atoms: O5_46  and  C37_47
REMARK                            x       y       z     vdW  Elec       q    Type
REMARK                         _______ _______ _______ _____ _____    ______ ____
ROOT
ATOM      1  C   UNL     1      51.595  19.397  15.766  0.00  0.00    +0.332 C 
ATOM      2  N   UNL     1      52.185  18.900  17.017  0.00  0.00    -0.372 N 
ATOM      3  H   UNL     1      53.191  18.956  16.960  0.00  0.00    +0.434 HD
ATOM      4  C   UNL     1      51.714  19.718  18.136  0.00  0.00    +0.239 C 
ATOM      5  C   UNL     1      52.527  19.378  19.385  0.00  0.00    +0.142 C 
ATOM      6  C   UNL     1      52.525  17.886  19.603  0.00  0.00    -0.105 A 
ATOM      7  C   UNL     1      52.877  17.395  20.850  0.00  0.00    +0.052 A 
ATOM      8  C   UNL     1      52.889  16.032  21.087  0.00  0.00    +0.108 A 
ATOM     11  C   UNL     1      52.545  15.154  20.064  0.00  0.00    +0.124 A 
ATOM     14  C   UNL     1      52.193  15.648  18.822  0.00  0.00    -0.030 A 
ATOM     15  C   UNL     1      52.181  17.017  18.588  0.00  0.00    -0.088 A 
ATOM     16  C   UNL     1      50.255  19.487  18.412  0.00  0.00    -0.067 A 
ATOM     17  C   UNL     1      49.574  20.413  19.191  0.00  0.00    -0.030 A 
ATOM     18  C   UNL     1      48.230  20.242  19.473  0.00  0.00    +0.140 A 
ATOM     21  C   UNL     1      47.553  19.135  18.974  0.00  0.00    +0.086 A 
ATOM     24  C   UNL     1      48.220  18.244  18.164  0.00  0.00    +0.122 A 
ATOM     46  C   UNL     1      49.574  18.411  17.893  0.00  0.00    -0.118 A 
ATOM     47  C   UNL     1      50.273  17.383  17.042  0.00  0.00    +0.144 C 
ATOM     48  C   UNL     1      51.786  17.507  17.223  0.00  0.00    +0.236 C 
ENDROOT
BRANCH   8   9
ATOM      9  O   UNL     1      53.236  15.553  22.312  0.00  0.00    -0.480 OA
ATOM     10  H   UNL     1      53.670  14.690  22.289  0.00  0.00    +0.398 HD
ENDBRANCH   8   9
BRANCH  11  12
ATOM     12  O   UNL     1      52.555  13.811  20.286  0.00  0.00    -0.296 OA
ATOM     13  C   UNL     1      53.289  13.006  19.361  0.00  0.00    +0.251 C 
ENDBRANCH  11  12
BRANCH  18  19
ATOM     19  O   UNL     1      47.573  21.155  20.238  0.00  0.00    -0.292 OA
ATOM     20  C   UNL     1      48.034  21.329  21.580  0.00  0.00    +0.256 C 
ENDBRANCH  18  19
BRANCH  21  22
ATOM     22  O   UNL     1      46.233  18.959  19.248  0.00  0.00    -0.314 OA
ATOM     23  C   UNL     1      45.299  19.422  18.270  0.00  0.00    +0.245 C 
ENDBRANCH  21  22
BRANCH  24  25
ATOM     25  O   UNL     1      47.557  17.167  17.663  0.00  0.00    -0.249 OA
BRANCH  25  26
ATOM     26  C   UNL     1      47.807  15.951  18.215  0.00  0.00    +0.116 A 
ATOM     27  C   UNL     1      47.636  15.756  19.578  0.00  0.00    -0.061 A 
ATOM     28  C   UNL     1      47.889  14.518  20.130  0.00  0.00    +0.044 A 
ATOM     29  C   UNL     1      48.314  13.466  19.331  0.00  0.00    -0.097 A 
ATOM     30  C   UNL     1      48.490  13.658  17.977  0.00  0.00    -0.072 A 
ATOM     31  C   UNL     1      48.962  12.550  17.072  0.00  0.00    +0.231 C 
ATOM     41  N   UNL     1      48.789  11.247  17.722  0.00  0.00    -0.665 NA
ATOM     42  H   UNL     1      47.813  11.000  17.783  0.00  0.00    +0.344 HD
ATOM     43  C   UNL     1      49.416  11.254  19.053  0.00  0.00    +0.218 C 
ATOM     44  C   UNL     1      48.573  12.131  19.980  0.00  0.00    +0.040 C 
ATOM     45  C   UNL     1      48.228  14.899  17.417  0.00  0.00    +0.004 A 
BRANCH  31  32
ATOM     32  C   UNL     1      48.152  12.577  15.774  0.00  0.00    +0.085 C 
BRANCH  32  33
ATOM     33  C   UNL     1      49.081  12.785  14.607  0.00  0.00    -0.113 A 
ATOM     34  C   UNL     1      48.569  12.902  13.328  0.00  0.00    +0.045 A 
ATOM     35  C   UNL     1      49.420  13.092  12.256  0.00  0.00    -0.024 A 
ATOM     36  C   UNL     1      50.789  13.164  12.464  0.00  0.00    +0.127 A 
ATOM     39  C   UNL     1      51.302  13.046  13.747  0.00  0.00    -0.080 A 
ATOM     40  C   UNL     1      50.446  12.862  14.817  0.00  0.00    +0.068 A 
BRANCH  36  37
ATOM     37  O   UNL     1      51.629  13.350  11.411  0.00  0.00    -0.319 OA
ATOM     38  C   UNL     1      51.202  12.845  10.144  0.00  0.00    +0.240 C 
ENDBRANCH  36  37
ENDBRANCH  32  33
ENDBRANCH  31  32
ENDBRANCH  25  26
ENDBRANCH  24  25
TORSDOF 9
ENDMDL
MODEL 3
REMARK VINA RESULT:      -6.4      2.418      9.126
REMARK  Name = ZINC95486210
REMARK  14 active torsions:
REMARK  status: ('A' for Active; 'I' for Inactive)
REMARK    1  A    between atoms: C1_1  and  N1_2
REMARK    2  A    between atoms: C6_8  and  O6_48
REMARK    3  A    between atoms: C7_9  and  O5_46
REMARK    4  A    between atoms: C15_18  and  O4_44
REMARK    5  A    between atoms: C16_19  and  O3_42
REMARK    6  A    between atoms: C17_20  and  O1_21
REMARK    7  A    between atoms: O1_21  and  C18_22
REMARK    8  A    between atoms: C24_28  and  C27_33
REMARK    9  A    between atoms: C27_33  and  C28_34
REMARK   10  A    between atoms: C31_37  and  O2_40
REMARK   11  A    between atoms: O2_40  and  C34_41
REMARK   12  A    between atoms: O3_42  and  C35_43
REMARK   13  A    between atoms: O4_44  and  C36_45
REMARK   14  A    between atoms: O5_46  and  C37_47
REMARK                            x       y       z     vdW  Elec       q    Type
REMARK                         _______ _______ _______ _____ _____    ______ ____
ROOT
ATOM      1  C   UNL     1      45.426  16.807  22.505  0.00  0.00    +0.332 C 
ATOM      2  N   UNL     1      44.907  18.131  22.137  0.00  0.00    -0.372 N 
ATOM      3  H   UNL     1      44.373  18.508  22.906  0.00  0.00    +0.434 HD
ATOM      4  C   UNL     1      46.025  19.026  21.835  0.00  0.00    +0.239 C 
ATOM      5  C   UNL     1      45.506  20.459  21.717  0.00  0.00    +0.142 C 
ATOM      6  C   UNL     1      44.341  20.500  20.760  0.00  0.00    -0.105 A 
ATOM      7  C   UNL     1      43.960  21.722  20.229  0.00  0.00    +0.052 A 
ATOM      8  C   UNL     1      42.894  21.801  19.350  0.00  0.00    +0.108 A 
ATOM     11  C   UNL     1      42.205  20.644  19.001  0.00  0.00    +0.124 A 
ATOM     14  C   UNL     1      42.590  19.427  19.533  0.00  0.00    -0.030 A 
ATOM     15  C   UNL     1      43.660  19.352  20.414  0.00  0.00    -0.088 A 
ATOM     16  C   UNL     1      46.712  18.637  20.555  0.00  0.00    -0.067 A 
ATOM     17  C   UNL     1      47.977  19.148  20.302  0.00  0.00    -0.030 A 
ATOM     18  C   UNL     1      48.648  18.819  19.136  0.00  0.00    +0.140 A 
ATOM     21  C   UNL     1      48.052  17.971  18.210  0.00  0.00    +0.086 A 
ATOM     24  C   UNL     1      46.816  17.429  18.487  0.00  0.00    +0.122 A 
ATOM     46  C   UNL     1      46.139  17.772  19.652  0.00  0.00    -0.118 A 
ATOM     47  C   UNL     1      44.768  17.193  19.889  0.00  0.00    +0.144 C 
ATOM     48  C   UNL     1      44.044  18.005  20.962  0.00  0.00    +0.236 C 
ENDROOT
BRANCH   8   9
ATOM      9  O   UNL     1      42.523  23.002  18.831  0.00  0.00    -0.480 OA
ATOM     10  H   UNL     1      42.580  23.736  19.457  0.00  0.00    +0.398 HD
ENDBRANCH   8   9
BRANCH  11  12
ATOM     12  O   UNL     1      41.154  20.710  18.139  0.00  0.00    -0.296 OA
ATOM     13  C   UNL     1      39.913  21.186  18.663  0.00  0.00    +0.251 C 
ENDBRANCH  11  12
BRANCH  18  19
ATOM     19  O   UNL     1      49.887  19.326  18.897  0.00  0.00    -0.292 OA
ATOM     20  C   UNL     1      49.995  20.746  18.778  0.00  0.00    +0.256 C 
ENDBRANCH  18  19
BRANCH  21  22
ATOM     22  O   UNL     1      48.704  17.644  17.062  0.00  0.00    -0.314 OA
ATOM     23  C   UNL     1      49.896  16.867  17.191  0.00  0.00    +0.245 C 
ENDBRANCH  21  22
BRANCH  24  25
ATOM     25  O   UNL     1      46.236  16.588  17.589  0.00  0.00    -0.249 OA
BRANCH  25  26
ATOM     26  C   UNL     1      46.743  15.333  17.471  0.00  0.00    +0.116 A 
ATOM     27  C   UNL     1      46.865  14.744  16.220  0.00  0.00    -0.061 A 
ATOM     28  C   UNL     1      47.383  13.471  16.109  0.00  0.00    +0.044 A 
ATOM     29  C   UNL     1      47.782  12.775  17.241  0.00  0.00    -0.097 A 
ATOM     30  C   UNL     1      47.660  13.355  18.486  0.00  0.00    -0.072 A 
ATOM     31  C   UNL     1      48.069  12.633  19.743  0.00  0.00    +0.231 C 
ATOM     41  N   UNL     1      48.948  11.505  19.424  0.00  0.00    -0.665 NA
ATOM     42  H   UNL     1      49.855  11.827  19.121  0.00  0.00    +0.344 HD
ATOM     43  C   UNL     1      48.327  10.645  18.404  0.00  0.00    +0.218 C 
ATOM     44  C   UNL     1      48.347  11.388  17.067  0.00  0.00    +0.040 C 
ATOM     45  C   UNL     1      47.147  14.638  18.600  0.00  0.00    +0.004 A 
BRANCH  31  32
ATOM     32  C   UNL     1      48.808  13.604  20.665  0.00  0.00    +0.085 C 
BRANCH  32  33
ATOM     33  C   UNL     1      50.286  13.543  20.377  0.00  0.00    -0.113 A 
ATOM     34  C   UNL     1      50.797  14.165  19.253  0.00  0.00    +0.045 A 
ATOM     35  C   UNL     1      52.151  14.109  18.987  0.00  0.00    -0.024 A 
ATOM     36  C   UNL     1      52.999  13.428  19.848  0.00  0.00    +0.127 A 
ATOM     39  C   UNL     1      52.485  12.804  20.975  0.00  0.00    -0.080 A 
ATOM     40  C   UNL     1      51.130  12.868  21.240  0.00  0.00    +0.068 A 
BRANCH  36  37
ATOM     37  O   UNL     1      54.332  13.371  19.588  0.00  0.00    -0.319 OA
ATOM     38  C   UNL     1      54.934  12.076  19.564  0.00  0.00    +0.240 C 
ENDBRANCH  36  37
ENDBRANCH  32  33
ENDBRANCH  31  32
ENDBRANCH  25  26
ENDBRANCH  24  25
TORSDOF 9
ENDMDL
MODEL 4
REMARK VINA RESULT:      -6.3      2.195      4.963
REMARK  Name = ZINC95486210
REMARK  14 active torsions:
REMARK  status: ('A' for Active; 'I' for Inactive)
REMARK    1  A    between atoms: C1_1  and  N1_2
REMARK    2  A    between atoms: C6_8  and  O6_48
REMARK    3  A    between atoms: C7_9  and  O5_46
REMARK    4  A    between atoms: C15_18  and  O4_44
REMARK    5  A    between atoms: C16_19  and  O3_42
REMARK    6  A    between atoms: C17_20  and  O1_21
REMARK    7  A    between atoms: O1_21  and  C18_22
REMARK    8  A    between atoms: C24_28  and  C27_33
REMARK    9  A    between atoms: C27_33  and  C28_34
REMARK   10  A    between atoms: C31_37  and  O2_40
REMARK   11  A    between atoms: O2_40  and  C34_41
REMARK   12  A    between atoms: O3_42  and  C35_43
REMARK   13  A    between atoms: O4_44  and  C36_45
REMARK   14  A    between atoms: O5_46  and  C37_47
REMARK                            x       y       z     vdW  Elec       q    Type
REMARK                         _______ _______ _______ _____ _____    ______ ____
ROOT
ATOM      1  C   UNL     1      46.496  16.645  17.298  0.00  0.00    +0.332 C 
ATOM      2  N   UNL     1      47.356  15.466  17.473  0.00  0.00    -0.372 N 
ATOM      3  H   UNL     1      46.942  14.676  17.001  0.00  0.00    +0.434 HD
ATOM      4  C   UNL     1      48.676  15.737  16.902  0.00  0.00    +0.239 C 
ATOM      5  C   UNL     1      49.476  14.436  16.841  0.00  0.00    +0.142 C 
ATOM      6  C   UNL     1      49.457  13.764  18.191  0.00  0.00    -0.105 A 
ATOM      7  C   UNL     1      50.402  12.786  18.460  0.00  0.00    +0.052 A 
ATOM      8  C   UNL     1      50.416  12.146  19.686  0.00  0.00    +0.108 A 
ATOM     11  C   UNL     1      49.474  12.489  20.651  0.00  0.00    +0.124 A 
ATOM     14  C   UNL     1      48.535  13.467  20.379  0.00  0.00    -0.030 A 
ATOM     15  C   UNL     1      48.525  14.108  19.147  0.00  0.00    -0.088 A 
ATOM     16  C   UNL     1      49.432  16.749  17.718  0.00  0.00    -0.067 A 
ATOM     17  C   UNL     1      50.532  17.371  17.145  0.00  0.00    -0.030 A 
ATOM     18  C   UNL     1      51.260  18.309  17.858  0.00  0.00    +0.140 A 
ATOM     21  C   UNL     1      50.888  18.632  19.158  0.00  0.00    +0.086 A 
ATOM     24  C   UNL     1      49.768  18.047  19.706  0.00  0.00    +0.122 A 
ATOM     46  C   UNL     1      49.047  17.096  18.992  0.00  0.00    -0.118 A 
ATOM     47  C   UNL     1      47.858  16.446  19.650  0.00  0.00    +0.144 C 
ATOM     48  C   UNL     1      47.487  15.167  18.900  0.00  0.00    +0.236 C 
ENDROOT
BRANCH   8   9
ATOM      9  O   UNL     1      51.344  11.186  19.947  0.00  0.00    -0.480 OA
ATOM     10  H   UNL     1      51.181  10.348  19.493  0.00  0.00    +0.398 HD
ENDBRANCH   8   9
BRANCH  11  12
ATOM     12  O   UNL     1      49.477  11.864  21.860  0.00  0.00    -0.296 OA
ATOM     13  C   UNL     1      48.213  11.689  22.504  0.00  0.00    +0.251 C 
ENDBRANCH  11  12
BRANCH  18  19
ATOM     19  O   UNL     1      52.338  18.912  17.288  0.00  0.00    -0.292 OA
ATOM     20  C   UNL     1      52.173  19.418  15.962  0.00  0.00    +0.256 C 
ENDBRANCH  18  19
BRANCH  21  22
ATOM     22  O   UNL     1      51.599  19.551  19.865  0.00  0.00    -0.314 OA
ATOM     23  C   UNL     1      52.444  19.056  20.906  0.00  0.00    +0.245 C 
ENDBRANCH  21  22
BRANCH  24  25
ATOM     25  O   UNL     1      49.393  18.371  20.973  0.00  0.00    -0.249 OA
BRANCH  25  26
ATOM     26  C   UNL     1      48.547  19.420  21.139  0.00  0.00    +0.116 A 
ATOM     27  C   UNL     1      48.978  20.712  20.873  0.00  0.00    -0.061 A 
ATOM     28  C   UNL     1      48.112  21.772  21.042  0.00  0.00    +0.044 A 
ATOM     29  C   UNL     1      46.812  21.554  21.476  0.00  0.00    -0.097 A 
ATOM     30  C   UNL     1      46.382  20.272  21.745  0.00  0.00    -0.072 A 
ATOM     31  C   UNL     1      44.984  19.988  22.230  0.00  0.00    +0.231 C 
ATOM     41  N   UNL     1      44.106  21.132  21.965  0.00  0.00    -0.665 NA
ATOM     42  H   UNL     1      43.919  21.223  20.979  0.00  0.00    +0.344 HD
ATOM     43  C   UNL     1      44.699  22.366  22.505  0.00  0.00    +0.218 C 
ATOM     44  C   UNL     1      45.902  22.744  21.641  0.00  0.00    +0.040 C 
ATOM     45  C   UNL     1      47.248  19.204  21.569  0.00  0.00    +0.004 A 
BRANCH  31  32
ATOM     32  C   UNL     1      44.439  18.756  21.506  0.00  0.00    +0.085 C 
BRANCH  32  33
ATOM     33  C   UNL     1      43.346  19.174  20.557  0.00  0.00    -0.113 A 
ATOM     34  C   UNL     1      42.020  19.039  20.926  0.00  0.00    +0.045 A 
ATOM     35  C   UNL     1      41.017  19.421  20.057  0.00  0.00    -0.024 A 
ATOM     36  C   UNL     1      41.340  19.941  18.812  0.00  0.00    +0.127 A 
ATOM     39  C   UNL     1      42.670  20.076  18.443  0.00  0.00    -0.080 A 
ATOM     40  C   UNL     1      43.671  19.697  19.318  0.00  0.00    +0.068 A 
BRANCH  36  37
ATOM     37  O   UNL     1      40.355  20.317  17.955  0.00  0.00    -0.319 OA
ATOM     38  C   UNL     1      39.366  21.218  18.458  0.00  0.00    +0.240 C 
ENDBRANCH  36  37
ENDBRANCH  32  33
ENDBRANCH  31  32
ENDBRANCH  25  26
ENDBRANCH  24  25
TORSDOF 9
ENDMDL
MODEL 5
REMARK VINA RESULT:      -6.2      2.064      7.723
REMARK  Name = ZINC95486210
REMARK  14 active torsions:
REMARK  status: ('A' for Active; 'I' for Inactive)
REMARK    1  A    between atoms: C1_1  and  N1_2
REMARK    2  A    between atoms: C6_8  and  O6_48
REMARK    3  A    between atoms: C7_9  and  O5_46
REMARK    4  A    between atoms: C15_18  and  O4_44
REMARK    5  A    between atoms: C16_19  and  O3_42
REMARK    6  A    between atoms: C17_20  and  O1_21
REMARK    7  A    between atoms: O1_21  and  C18_22
REMARK    8  A    between atoms: C24_28  and  C27_33
REMARK    9  A    between atoms: C27_33  and  C28_34
REMARK   10  A    between atoms: C31_37  and  O2_40
REMARK   11  A    between atoms: O2_40  and  C34_41
REMARK   12  A    between atoms: O3_42  and  C35_43
REMARK   13  A    between atoms: O4_44  and  C36_45
REMARK   14  A    between atoms: O5_46  and  C37_47
REMARK                            x       y       z     vdW  Elec       q    Type
REMARK                         _______ _______ _______ _____ _____    ______ ____
ROOT
ATOM      1  C   UNL     1      48.346  17.618  22.505  0.00  0.00    +0.332 C 
ATOM      2  N   UNL     1      47.417  18.727  22.246  0.00  0.00    -0.372 N 
ATOM      3  H   UNL     1      46.800  18.840  23.037  0.00  0.00    +0.434 HD
ATOM      4  C   UNL     1      48.177  19.961  22.043  0.00  0.00    +0.239 C 
ATOM      5  C   UNL     1      47.217  21.151  22.044  0.00  0.00    +0.142 C 
ATOM      6  C   UNL     1      46.090  20.895  21.075  0.00  0.00    -0.105 A 
ATOM      7  C   UNL     1      45.324  21.968  20.647  0.00  0.00    +0.052 A 
ATOM      8  C   UNL     1      44.280  21.772  19.761  0.00  0.00    +0.108 A 
ATOM     11  C   UNL     1      44.002  20.489  19.299  0.00  0.00    +0.124 A 
ATOM     14  C   UNL     1      44.770  19.423  19.728  0.00  0.00    -0.030 A 
ATOM     15  C   UNL     1      45.818  19.623  20.617  0.00  0.00    -0.088 A 
ATOM     16  C   UNL     1      48.937  19.934  20.746  0.00  0.00    -0.067 A 
ATOM     17  C   UNL     1      49.962  20.850  20.560  0.00  0.00    -0.030 A 
ATOM     18  C   UNL     1      50.689  20.864  19.381  0.00  0.00    +0.140 A 
ATOM     21  C   UNL     1      50.391  19.954  18.374  0.00  0.00    +0.086 A 
ATOM     24  C   UNL     1      49.404  19.016  18.581  0.00  0.00    +0.122 A 
ATOM     46  C   UNL     1      48.667  19.014  19.760  0.00  0.00    -0.118 A 
ATOM     47  C   UNL     1      47.564  18.000  19.922  0.00  0.00    +0.144 C 
ATOM     48  C   UNL     1      46.627  18.432  21.050  0.00  0.00    +0.236 C 
ENDROOT
BRANCH   8   9
ATOM      9  O   UNL     1      43.530  22.827  19.343  0.00  0.00    -0.480 OA
ATOM     10  H   UNL     1      44.050  23.589  19.054  0.00  0.00    +0.398 HD
ENDBRANCH   8   9
BRANCH  11  12
ATOM     12  O   UNL     1      42.976  20.285  18.429  0.00  0.00    -0.296 OA
ATOM     13  C   UNL     1      41.703  19.960  18.990  0.00  0.00    +0.251 C 
ENDBRANCH  11  12
BRANCH  18  19
ATOM     19  O   UNL     1      51.691  21.767  19.209  0.00  0.00    -0.292 OA
ATOM     20  C   UNL     1      52.674  21.851  20.242  0.00  0.00    +0.256 C 
ENDBRANCH  18  19
BRANCH  21  22
ATOM     22  O   UNL     1      51.099  19.961  17.213  0.00  0.00    -0.314 OA
ATOM     23  C   UNL     1      52.400  19.374  17.242  0.00  0.00    +0.245 C 
ENDBRANCH  21  22
BRANCH  24  25
ATOM     25  O   UNL     1      49.119  18.115  17.602  0.00  0.00    -0.249 OA
BRANCH  25  26
ATOM     26  C   UNL     1      49.542  16.835  17.771  0.00  0.00    +0.116 A 
ATOM     27  C   UNL     1      50.570  16.552  18.658  0.00  0.00    -0.061 A 
ATOM     28  C   UNL     1      50.992  15.250  18.826  0.00  0.00    +0.044 A 
ATOM     29  C   UNL     1      50.395  14.221  18.112  0.00  0.00    -0.097 A 
ATOM     30  C   UNL     1      49.375  14.499  17.226  0.00  0.00    -0.072 A 
ATOM     31  C   UNL     1      48.705  13.417  16.420  0.00  0.00    +0.231 C 
ATOM     41  N   UNL     1      48.977  12.099  17.003  0.00  0.00    -0.665 NA
ATOM     42  H   UNL     1      48.483  11.980  17.874  0.00  0.00    +0.344 HD
ATOM     43  C   UNL     1      50.425  11.912  17.188  0.00  0.00    +0.218 C 
ATOM     44  C   UNL     1      50.887  12.814  18.333  0.00  0.00    +0.040 C 
ATOM     45  C   UNL     1      48.943  15.806  17.061  0.00  0.00    +0.004 A 
BRANCH  31  32
ATOM     32  C   UNL     1      47.194  13.660  16.406  0.00  0.00    +0.085 C 
BRANCH  32  33
ATOM     33  C   UNL     1      46.687  13.752  17.822  0.00  0.00    -0.113 A 
ATOM     34  C   UNL     1      46.924  12.718  18.709  0.00  0.00    +0.045 A 
ATOM     35  C   UNL     1      46.460  12.801  20.007  0.00  0.00    -0.024 A 
ATOM     36  C   UNL     1      45.754  13.922  20.420  0.00  0.00    +0.127 A 
ATOM     39  C   UNL     1      45.517  14.957  19.529  0.00  0.00    -0.080 A 
ATOM     40  C   UNL     1      45.989  14.872  18.233  0.00  0.00    +0.068 A 
BRANCH  36  37
ATOM     37  O   UNL     1      45.295  14.005  21.697  0.00  0.00    -0.319 OA
ATOM     38  C   UNL     1      45.813  15.064  22.505  0.00  0.00    +0.240 C 
ENDBRANCH  36  37
ENDBRANCH  32  33
ENDBRANCH  31  32
ENDBRANCH  25  26
ENDBRANCH  24  25
TORSDOF 9
ENDMDL
MODEL 6
REMARK VINA RESULT:      -6.1      3.555      7.435
REMARK  Name = ZINC95486210
REMARK  14 active torsions:
REMARK  status: ('A' for Active; 'I' for Inactive)
REMARK    1  A    between atoms: C1_1  and  N1_2
REMARK    2  A    between atoms: C6_8  and  O6_48
REMARK    3  A    between atoms: C7_9  and  O5_46
REMARK    4  A    between atoms: C15_18  and  O4_44
REMARK    5  A    between atoms: C16_19  and  O3_42
REMARK    6  A    between atoms: C17_20  and  O1_21
REMARK    7  A    between atoms: O1_21  and  C18_22
REMARK    8  A    between atoms: C24_28  and  C27_33
REMARK    9  A    between atoms: C27_33  and  C28_34
REMARK   10  A    between atoms: C31_37  and  O2_40
REMARK   11  A    between atoms: O2_40  and  C34_41
REMARK   12  A    between atoms: O3_42  and  C35_43
REMARK   13  A    between atoms: O4_44  and  C36_45
REMARK   14  A    between atoms: O5_46  and  C37_47
REMARK                            x       y       z     vdW  Elec       q    Type
REMARK                         _______ _______ _______ _____ _____    ______ ____
ROOT
ATOM      1  C   UNL     1      46.463  16.680  16.706  0.00  0.00    +0.332 C 
ATOM      2  N   UNL     1      46.618  17.700  17.752  0.00  0.00    -0.372 N 
ATOM      3  H   UNL     1      46.137  18.543  17.474  0.00  0.00    +0.434 HD
ATOM      4  C   UNL     1      46.045  17.204  19.005  0.00  0.00    +0.239 C 
ATOM      5  C   UNL     1      45.962  18.352  20.011  0.00  0.00    +0.142 C 
ATOM      6  C   UNL     1      47.303  19.035  20.115  0.00  0.00    -0.105 A 
ATOM      7  C   UNL     1      47.553  19.844  21.211  0.00  0.00    +0.052 A 
ATOM      8  C   UNL     1      48.770  20.489  21.341  0.00  0.00    +0.108 A 
ATOM     11  C   UNL     1      49.744  20.322  20.361  0.00  0.00    +0.124 A 
ATOM     14  C   UNL     1      49.490  19.512  19.270  0.00  0.00    -0.030 A 
ATOM     15  C   UNL     1      48.268  18.865  19.144  0.00  0.00    -0.088 A 
ATOM     16  C   UNL     1      46.872  16.091  19.586  0.00  0.00    -0.067 A 
ATOM     17  C   UNL     1      46.303  15.285  20.563  0.00  0.00    -0.030 A 
ATOM     18  C   UNL     1      47.026  14.248  21.128  0.00  0.00    +0.140 A 
ATOM     21  C   UNL     1      48.332  14.009  20.716  0.00  0.00    +0.086 A 
ATOM     24  C   UNL     1      48.876  14.781  19.714  0.00  0.00    +0.122 A 
ATOM     46  C   UNL     1      48.153  15.830  19.158  0.00  0.00    -0.118 A 
ATOM     47  C   UNL     1      48.807  16.679  18.098  0.00  0.00    +0.144 C 
ATOM     48  C   UNL     1      48.040  17.992  17.942  0.00  0.00    +0.236 C 
ENDROOT
BRANCH   8   9
ATOM      9  O   UNL     1      49.013  21.283  22.418  0.00  0.00    -0.480 OA
ATOM     10  H   UNL     1      49.838  21.078  22.880  0.00  0.00    +0.398 HD
ENDBRANCH   8   9
BRANCH  11  12
ATOM     12  O   UNL     1      50.944  20.953  20.477  0.00  0.00    -0.296 OA
ATOM     13  C   UNL     1      52.107  20.126  20.560  0.00  0.00    +0.251 C 
ENDBRANCH  11  12
BRANCH  18  19
ATOM     19  O   UNL     1      46.460  13.466  22.085  0.00  0.00    -0.292 OA
ATOM     20  C   UNL     1      45.049  13.253  22.000  0.00  0.00    +0.256 C 
ENDBRANCH  18  19
BRANCH  21  22
ATOM     22  O   UNL     1      49.049  12.994  21.267  0.00  0.00    -0.314 OA
ATOM     23  C   UNL     1      48.898  11.700  20.681  0.00  0.00    +0.245 C 
ENDBRANCH  21  22
BRANCH  24  25
ATOM     25  O   UNL     1      50.149  14.542  19.299  0.00  0.00    -0.249 OA
BRANCH  25  26
ATOM     26  C   UNL     1      50.340  14.180  18.003  0.00  0.00    +0.116 A 
ATOM     27  C   UNL     1      51.513  14.527  17.348  0.00  0.00    -0.061 A 
ATOM     28  C   UNL     1      51.700  14.153  16.034  0.00  0.00    +0.044 A 
ATOM     29  C   UNL     1      50.722  13.434  15.362  0.00  0.00    -0.097 A 
ATOM     30  C   UNL     1      49.553  13.091  16.009  0.00  0.00    -0.072 A 
ATOM     31  C   UNL     1      48.458  12.322  15.317  0.00  0.00    +0.231 C 
ATOM     41  N   UNL     1      48.972  11.671  14.108  0.00  0.00    -0.665 NA
ATOM     42  H   UNL     1      49.584  10.905  14.343  0.00  0.00    +0.344 HD
ATOM     43  C   UNL     1      49.660  12.652  13.253  0.00  0.00    +0.218 C 
ATOM     44  C   UNL     1      50.975  13.045  13.928  0.00  0.00    +0.040 C 
ATOM     45  C   UNL     1      49.365  13.458  17.333  0.00  0.00    +0.004 A 
BRANCH  31  32
ATOM     32  C   UNL     1      47.910  11.256  16.269  0.00  0.00    +0.085 C 
BRANCH  32  33
ATOM     33  C   UNL     1      46.404  11.282  16.237  0.00  0.00    -0.113 A 
ATOM     34  C   UNL     1      45.711  12.165  17.044  0.00  0.00    +0.045 A 
ATOM     35  C   UNL     1      44.330  12.189  17.016  0.00  0.00    -0.024 A 
ATOM     36  C   UNL     1      43.639  11.326  16.179  0.00  0.00    +0.127 A 
ATOM     39  C   UNL     1      44.336  10.440  15.371  0.00  0.00    -0.080 A 
ATOM     40  C   UNL     1      45.717  10.423  15.398  0.00  0.00    +0.068 A 
BRANCH  36  37
ATOM     37  O   UNL     1      42.280  11.347  16.151  0.00  0.00    -0.319 OA
ATOM     38  C   UNL     1      41.633  10.383  15.318  0.00  0.00    +0.240 C 
ENDBRANCH  36  37
ENDBRANCH  32  33
ENDBRANCH  31  32
ENDBRANCH  25  26
ENDBRANCH  24  25
TORSDOF 9
ENDMDL
MODEL 7
REMARK VINA RESULT:      -6.0      2.273      5.191
REMARK  Name = ZINC95486210
REMARK  14 active torsions:
REMARK  status: ('A' for Active; 'I' for Inactive)
REMARK    1  A    between atoms: C1_1  and  N1_2
REMARK    2  A    between atoms: C6_8  and  O6_48
REMARK    3  A    between atoms: C7_9  and  O5_46
REMARK    4  A    between atoms: C15_18  and  O4_44
REMARK    5  A    between atoms: C16_19  and  O3_42
REMARK    6  A    between atoms: C17_20  and  O1_21
REMARK    7  A    between atoms: O1_21  and  C18_22
REMARK    8  A    between atoms: C24_28  and  C27_33
REMARK    9  A    between atoms: C27_33  and  C28_34
REMARK   10  A    between atoms: C31_37  and  O2_40
REMARK   11  A    between atoms: O2_40  and  C34_41
REMARK   12  A    between atoms: O3_42  and  C35_43
REMARK   13  A    between atoms: O4_44  and  C36_45
REMARK   14  A    between atoms: O5_46  and  C37_47
REMARK                            x       y       z     vdW  Elec       q    Type
REMARK                         _______ _______ _______ _____ _____    ______ ____
ROOT
ATOM      1  C   UNL     1      51.598  20.240  16.133  0.00  0.00    +0.332 C 
ATOM      2  N   UNL     1      52.290  19.177  16.874  0.00  0.00    -0.372 N 
ATOM      3  H   UNL     1      53.157  18.952  16.409  0.00  0.00    +0.434 HD
ATOM      4  C   UNL     1      52.573  19.638  18.235  0.00  0.00    +0.239 C 
ATOM      5  C   UNL     1      53.521  18.649  18.915  0.00  0.00    +0.142 C 
ATOM      6  C   UNL     1      52.974  17.250  18.785  0.00  0.00    -0.105 A 
ATOM      7  C   UNL     1      53.465  16.264  19.626  0.00  0.00    +0.052 A 
ATOM      8  C   UNL     1      52.989  14.968  19.535  0.00  0.00    +0.108 A 
ATOM     11  C   UNL     1      52.014  14.658  18.593  0.00  0.00    +0.124 A 
ATOM     14  C   UNL     1      51.527  15.646  17.757  0.00  0.00    -0.030 A 
ATOM     15  C   UNL     1      52.005  16.945  17.852  0.00  0.00    -0.088 A 
ATOM     16  C   UNL     1      51.315  19.763  19.048  0.00  0.00    -0.067 A 
ATOM     17  C   UNL     1      51.356  20.503  20.221  0.00  0.00    -0.030 A 
ATOM     18  C   UNL     1      50.223  20.645  21.003  0.00  0.00    +0.140 A 
ATOM     21  C   UNL     1      49.033  20.042  20.613  0.00  0.00    +0.086 A 
ATOM     24  C   UNL     1      48.984  19.348  19.425  0.00  0.00    +0.122 A 
ATOM     46  C   UNL     1      50.127  19.195  18.649  0.00  0.00    -0.118 A 
ATOM     47  C   UNL     1      50.038  18.386  17.381  0.00  0.00    +0.144 C 
ATOM     48  C   UNL     1      51.441  17.986  16.925  0.00  0.00    +0.236 C 
ENDROOT
BRANCH   8   9
ATOM      9  O   UNL     1      53.473  14.002  20.362  0.00  0.00    -0.480 OA
ATOM     10  H   UNL     1      52.851  13.281  20.532  0.00  0.00    +0.398 HD
ENDBRANCH   8   9
BRANCH  11  12
ATOM     12  O   UNL     1      51.541  13.386  18.494  0.00  0.00    -0.296 OA
ATOM     13  C   UNL     1      52.206  12.515  17.576  0.00  0.00    +0.251 C 
ENDBRANCH  11  12
BRANCH  18  19
ATOM     19  O   UNL     1      50.274  21.371  22.152  0.00  0.00    -0.292 OA
ATOM     20  C   UNL     1      51.430  22.186  22.353  0.00  0.00    +0.256 C 
ENDBRANCH  18  19
BRANCH  21  22
ATOM     22  O   UNL     1      47.915  20.175  21.377  0.00  0.00    -0.314 OA
ATOM     23  C   UNL     1      47.055  21.278  21.083  0.00  0.00    +0.245 C 
ENDBRANCH  21  22
BRANCH  24  25
ATOM     25  O   UNL     1      47.817  18.768  19.034  0.00  0.00    -0.249 OA
BRANCH  25  26
ATOM     26  C   UNL     1      47.451  17.605  19.633  0.00  0.00    +0.116 A 
ATOM     27  C   UNL     1      48.311  16.516  19.627  0.00  0.00    -0.061 A 
ATOM     28  C   UNL     1      47.932  15.340  20.239  0.00  0.00    +0.044 A 
ATOM     29  C   UNL     1      46.696  15.239  20.861  0.00  0.00    -0.097 A 
ATOM     30  C   UNL     1      45.836  16.317  20.865  0.00  0.00    -0.072 A 
ATOM     31  C   UNL     1      44.480  16.250  21.516  0.00  0.00    +0.231 C 
ATOM     41  N   UNL     1      44.410  15.116  22.441  0.00  0.00    -0.665 NA
ATOM     42  H   UNL     1      44.973  15.282  23.261  0.00  0.00    +0.344 HD
ATOM     43  C   UNL     1      44.820  13.876  21.762  0.00  0.00    +0.218 C 
ATOM     44  C   UNL     1      46.329  13.934  21.520  0.00  0.00    +0.040 C 
ATOM     45  C   UNL     1      46.218  17.504  20.257  0.00  0.00    +0.004 A 
BRANCH  31  32
ATOM     32  C   UNL     1      44.225  17.547  22.287  0.00  0.00    +0.085 C 
BRANCH  32  33
ATOM     33  C   UNL     1      43.214  18.382  21.545  0.00  0.00    -0.113 A 
ATOM     34  C   UNL     1      41.863  18.135  21.705  0.00  0.00    +0.045 A 
ATOM     35  C   UNL     1      40.935  18.899  21.025  0.00  0.00    -0.024 A 
ATOM     36  C   UNL     1      41.359  19.914  20.180  0.00  0.00    +0.127 A 
ATOM     39  C   UNL     1      42.714  20.160  20.020  0.00  0.00    -0.080 A 
ATOM     40  C   UNL     1      43.639  19.396  20.707  0.00  0.00    +0.068 A 
BRANCH  36  37
ATOM     37  O   UNL     1      40.447  20.667  19.509  0.00  0.00    -0.319 OA
ATOM     38  C   UNL     1      40.932  21.452  18.418  0.00  0.00    +0.240 C 
ENDBRANCH  36  37
ENDBRANCH  32  33
ENDBRANCH  31  32
ENDBRANCH  25  26
ENDBRANCH  24  25
TORSDOF 9
ENDMDL
MODEL 8
REMARK VINA RESULT:      -6.0      3.216      6.155
REMARK  Name = ZINC95486210
REMARK  14 active torsions:
REMARK  status: ('A' for Active; 'I' for Inactive)
REMARK    1  A    between atoms: C1_1  and  N1_2
REMARK    2  A    between atoms: C6_8  and  O6_48
REMARK    3  A    between atoms: C7_9  and  O5_46
REMARK    4  A    between atoms: C15_18  and  O4_44
REMARK    5  A    between atoms: C16_19  and  O3_42
REMARK    6  A    between atoms: C17_20  and  O1_21
REMARK    7  A    between atoms: O1_21  and  C18_22
REMARK    8  A    between atoms: C24_28  and  C27_33
REMARK    9  A    between atoms: C27_33  and  C28_34
REMARK   10  A    between atoms: C31_37  and  O2_40
REMARK   11  A    between atoms: O2_40  and  C34_41
REMARK   12  A    between atoms: O3_42  and  C35_43
REMARK   13  A    between atoms: O4_44  and  C36_45
REMARK   14  A    between atoms: O5_46  and  C37_47
REMARK                            x       y       z     vdW  Elec       q    Type
REMARK                         _______ _______ _______ _____ _____    ______ ____
ROOT
ATOM      1  C   UNL     1      52.534  14.024  20.036  0.00  0.00    +0.332 C 
ATOM      2  N   UNL     1      51.963  13.028  19.120  0.00  0.00    -0.372 N 
ATOM      3  H   UNL     1      52.454  12.152  19.226  0.00  0.00    +0.434 HD
ATOM      4  C   UNL     1      50.547  12.833  19.434  0.00  0.00    +0.239 C 
ATOM      5  C   UNL     1      50.024  11.616  18.671  0.00  0.00    +0.142 C 
ATOM      6  C   UNL     1      50.371  11.746  17.209  0.00  0.00    -0.105 A 
ATOM      7  C   UNL     1      49.690  10.960  16.292  0.00  0.00    +0.052 A 
ATOM      8  C   UNL     1      49.982  11.049  14.943  0.00  0.00    +0.108 A 
ATOM     11  C   UNL     1      50.965  11.933  14.509  0.00  0.00    +0.124 A 
ATOM     14  C   UNL     1      51.640  12.715  15.428  0.00  0.00    -0.030 A 
ATOM     15  C   UNL     1      51.344  12.624  16.781  0.00  0.00    -0.088 A 
ATOM     16  C   UNL     1      49.729  14.040  19.068  0.00  0.00    -0.067 A 
ATOM     17  C   UNL     1      48.456  14.165  19.605  0.00  0.00    -0.030 A 
ATOM     18  C   UNL     1      47.666  15.259  19.296  0.00  0.00    +0.140 A 
ATOM     21  C   UNL     1      48.149  16.242  18.442  0.00  0.00    +0.086 A 
ATOM     24  C   UNL     1      49.431  16.139  17.948  0.00  0.00    +0.122 A 
ATOM     46  C   UNL     1      50.216  15.032  18.249  0.00  0.00    -0.118 A 
ATOM     47  C   UNL     1      51.594  14.938  17.647  0.00  0.00    +0.144 C 
ATOM     48  C   UNL     1      52.101  13.499  17.741  0.00  0.00    +0.236 C 
ENDROOT
BRANCH   8   9
ATOM      9  O   UNL     1      49.312  10.277  14.045  0.00  0.00    -0.480 OA
ATOM     10  H   UNL     1      48.430  10.606  13.824  0.00  0.00    +0.398 HD
ENDBRANCH   8   9
BRANCH  11  12
ATOM     12  O   UNL     1      51.262  12.027  13.184  0.00  0.00    -0.296 OA
ATOM     13  C   UNL     1      50.463  12.917  12.402  0.00  0.00    +0.251 C 
ENDBRANCH  11  12
BRANCH  18  19
ATOM     19  O   UNL     1      46.418  15.370  19.827  0.00  0.00    -0.292 OA
ATOM     20  C   UNL     1      46.322  15.880  21.158  0.00  0.00    +0.256 C 
ENDBRANCH  18  19
BRANCH  21  22
ATOM     22  O   UNL     1      47.379  17.319  18.132  0.00  0.00    -0.314 OA
ATOM     23  C   UNL     1      46.508  17.192  17.006  0.00  0.00    +0.245 C 
ENDBRANCH  21  22
BRANCH  24  25
ATOM     25  O   UNL     1      49.912  17.106  17.122  0.00  0.00    -0.249 OA
BRANCH  25  26
ATOM     26  C   UNL     1      50.474  18.206  17.688  0.00  0.00    +0.116 A 
ATOM     27  C   UNL     1      51.015  19.203  16.888  0.00  0.00    -0.061 A 
ATOM     28  C   UNL     1      51.582  20.317  17.470  0.00  0.00    +0.044 A 
ATOM     29  C   UNL     1      51.616  20.447  18.851  0.00  0.00    -0.097 A 
ATOM     30  C   UNL     1      51.083  19.456  19.649  0.00  0.00    -0.072 A 
ATOM     31  C   UNL     1      51.109  19.547  21.153  0.00  0.00    +0.231 C 
ATOM     41  N   UNL     1      51.359  20.927  21.579  0.00  0.00    -0.665 NA
ATOM     42  H   UNL     1      50.559  21.513  21.396  0.00  0.00    +0.344 HD
ATOM     43  C   UNL     1      52.563  21.456  20.918  0.00  0.00    +0.218 C 
ATOM     44  C   UNL     1      52.242  21.684  19.440  0.00  0.00    +0.040 C 
ATOM     45  C   UNL     1      50.505  18.338  19.067  0.00  0.00    +0.004 A 
BRANCH  31  32
ATOM     32  C   UNL     1      49.761  19.084  21.710  0.00  0.00    +0.085 C 
BRANCH  32  33
ATOM     33  C   UNL     1      48.735  20.170  21.509  0.00  0.00    -0.113 A 
ATOM     34  C   UNL     1      48.511  21.101  22.505  0.00  0.00    +0.045 A 
ATOM     35  C   UNL     1      47.570  22.096  22.323  0.00  0.00    -0.024 A 
ATOM     36  C   UNL     1      46.850  22.160  21.139  0.00  0.00    +0.127 A 
ATOM     39  C   UNL     1      47.076  21.224  20.141  0.00  0.00    -0.080 A 
ATOM     40  C   UNL     1      48.022  20.234  20.325  0.00  0.00    +0.068 A 
BRANCH  36  37
ATOM     37  O   UNL     1      45.924  23.138  20.957  0.00  0.00    -0.319 OA
ATOM     38  C   UNL     1      44.716  23.036  21.713  0.00  0.00    +0.240 C 
ENDBRANCH  36  37
ENDBRANCH  32  33
ENDBRANCH  31  32
ENDBRANCH  25  26
ENDBRANCH  24  25
TORSDOF 9
ENDMDL
MODEL 9
REMARK VINA RESULT:      -6.0      3.150      7.783
REMARK  Name = ZINC95486210
REMARK  14 active torsions:
REMARK  status: ('A' for Active; 'I' for Inactive)
REMARK    1  A    between atoms: C1_1  and  N1_2
REMARK    2  A    between atoms: C6_8  and  O6_48
REMARK    3  A    between atoms: C7_9  and  O5_46
REMARK    4  A    between atoms: C15_18  and  O4_44
REMARK    5  A    between atoms: C16_19  and  O3_42
REMARK    6  A    between atoms: C17_20  and  O1_21
REMARK    7  A    between atoms: O1_21  and  C18_22
REMARK    8  A    between atoms: C24_28  and  C27_33
REMARK    9  A    between atoms: C27_33  and  C28_34
REMARK   10  A    between atoms: C31_37  and  O2_40
REMARK   11  A    between atoms: O2_40  and  C34_41
REMARK   12  A    between atoms: O3_42  and  C35_43
REMARK   13  A    between atoms: O4_44  and  C36_45
REMARK   14  A    between atoms: O5_46  and  C37_47
REMARK                            x       y       z     vdW  Elec       q    Type
REMARK                         _______ _______ _______ _____ _____    ______ ____
ROOT
ATOM      1  C   UNL     1      51.084  20.793  17.476  0.00  0.00    +0.332 C 
ATOM      2  N   UNL     1      51.455  19.813  18.506  0.00  0.00    -0.372 N 
ATOM      3  H   UNL     1      52.450  19.647  18.469  0.00  0.00    +0.434 HD
ATOM      4  C   UNL     1      51.097  20.334  19.826  0.00  0.00    +0.239 C 
ATOM      5  C   UNL     1      51.720  19.447  20.904  0.00  0.00    +0.142 C 
ATOM      6  C   UNL     1      51.371  18.004  20.639  0.00  0.00    -0.105 A 
ATOM      7  C   UNL     1      51.513  17.086  21.667  0.00  0.00    +0.052 A 
ATOM      8  C   UNL     1      51.205  15.753  21.462  0.00  0.00    +0.108 A 
ATOM     11  C   UNL     1      50.751  15.337  20.215  0.00  0.00    +0.124 A 
ATOM     14  C   UNL     1      50.609  16.257  19.193  0.00  0.00    -0.030 A 
ATOM     15  C   UNL     1      50.918  17.594  19.402  0.00  0.00    -0.088 A 
ATOM     16  C   UNL     1      49.606  20.377  20.016  0.00  0.00    -0.067 A 
ATOM     17  C   UNL     1      49.093  21.151  21.047  0.00  0.00    -0.030 A 
ATOM     18  C   UNL     1      47.727  21.221  21.261  0.00  0.00    +0.140 A 
ATOM     21  C   UNL     1      46.860  20.512  20.438  0.00  0.00    +0.086 A 
ATOM     24  C   UNL     1      47.370  19.782  19.388  0.00  0.00    +0.122 A 
ATOM     46  C   UNL     1      48.743  19.703  19.184  0.00  0.00    -0.118 A 
ATOM     47  C   UNL     1      49.259  18.853  18.051  0.00  0.00    +0.144 C 
ATOM     48  C   UNL     1      50.743  18.558  18.262  0.00  0.00    +0.236 C 
ENDROOT
BRANCH   8   9
ATOM      9  O   UNL     1      51.346  14.854  22.474  0.00  0.00    -0.480 OA
ATOM     10  H   UNL     1      50.659  14.174  22.494  0.00  0.00    +0.398 HD
ENDBRANCH   8   9
BRANCH  11  12
ATOM     12  O   UNL     1      50.447  14.028  20.001  0.00  0.00    -0.296 OA
ATOM     13  C   UNL     1      51.484  13.198  19.474  0.00  0.00    +0.251 C 
ENDBRANCH  11  12
BRANCH  18  19
ATOM     19  O   UNL     1      47.235  21.982  22.275  0.00  0.00    -0.292 OA
ATOM     20  C   UNL     1      47.330  23.400  22.129  0.00  0.00    +0.256 C 
ENDBRANCH  18  19
BRANCH  21  22
ATOM     22  O   UNL     1      45.517  20.573  20.643  0.00  0.00    -0.314 OA
ATOM     23  C   UNL     1      44.803  21.605  19.960  0.00  0.00    +0.245 C 
ENDBRANCH  21  22
BRANCH  24  25
ATOM     25  O   UNL     1      46.524  19.097  18.573  0.00  0.00    -0.249 OA
BRANCH  25  26
ATOM     26  C   UNL     1      46.185  17.830  18.926  0.00  0.00    +0.116 A 
ATOM     27  C   UNL     1      45.229  17.611  19.908  0.00  0.00    -0.061 A 
ATOM     28  C   UNL     1      44.889  16.322  20.259  0.00  0.00    +0.044 A 
ATOM     29  C   UNL     1      45.496  15.241  19.636  0.00  0.00    -0.097 A 
ATOM     30  C   UNL     1      46.449  15.454  18.662  0.00  0.00    -0.072 A 
ATOM     31  C   UNL     1      47.145  14.313  17.968  0.00  0.00    +0.231 C 
ATOM     41  N   UNL     1      46.397  13.066  18.154  0.00  0.00    -0.665 NA
ATOM     42  H   UNL     1      45.538  13.077  17.625  0.00  0.00    +0.344 HD
ATOM     43  C   UNL     1      46.133  12.838  19.584  0.00  0.00    +0.218 C 
ATOM     44  C   UNL     1      45.087  13.852  20.051  0.00  0.00    +0.040 C 
ATOM     45  C   UNL     1      46.788  16.750  18.302  0.00  0.00    +0.004 A 
BRANCH  31  32
ATOM     32  C   UNL     1      47.249  14.620  16.472  0.00  0.00    +0.085 C 
BRANCH  32  33
ATOM     33  C   UNL     1      48.365  13.805  15.870  0.00  0.00    -0.113 A 
ATOM     34  C   UNL     1      48.093  12.901  14.860  0.00  0.00    +0.045 A 
ATOM     35  C   UNL     1      49.115  12.154  14.307  0.00  0.00    -0.024 A 
ATOM     36  C   UNL     1      50.414  12.310  14.766  0.00  0.00    +0.127 A 
ATOM     39  C   UNL     1      50.685  13.217  15.780  0.00  0.00    -0.080 A 
ATOM     40  C   UNL     1      49.661  13.967  16.326  0.00  0.00    +0.068 A 
BRANCH  36  37
ATOM     37  O   UNL     1      51.421  11.575  14.224  0.00  0.00    -0.319 OA
ATOM     38  C   UNL     1      52.469  11.163  15.103  0.00  0.00    +0.240 C 
ENDBRANCH  36  37
ENDBRANCH  32  33
ENDBRANCH  31  32
ENDBRANCH  25  26
ENDBRANCH  24  25
TORSDOF 9
ENDMDL
