MODEL 1
REMARK VINA RESULT:      -6.1      0.000      0.000
REMARK  Name = ZINC85618313
REMARK  5 active torsions:
REMARK  status: ('A' for Active; 'I' for Inactive)
REMARK    1  A    between atoms: C1_1  and  O1_2
REMARK    2  A    between atoms: O1_2  and  C2_3
REMARK    3  A    between atoms: C7_8  and  O2_9
REMARK    4  A    between atoms: O2_9  and  C8_10
REMARK    5  A    between atoms: C9_11  and  C15_22
REMARK                            x       y       z     vdW  Elec       q    Type
REMARK                         _______ _______ _______ _____ _____    ______ ____
ROOT
ATOM      3  C   UNL     1      43.902  18.704  20.281  0.00  0.00    +0.107 A 
ATOM      4  C   UNL     1      44.207  17.390  20.586  0.00  0.00    -0.034 A 
ATOM      5  C   UNL     1      45.095  16.670  19.799  0.00  0.00    -0.075 A 
ATOM      6  C   UNL     1      45.674  17.267  18.698  0.00  0.00    -0.071 A 
ATOM      7  C   UNL     1      46.625  16.536  17.770  0.00  0.00    +0.135 C 
ATOM     17  C   UNL     1      46.448  15.049  18.004  0.00  0.00    -0.026 C 
ATOM     18  C   UNL     1      46.682  14.821  19.533  0.00  0.00    -0.023 C 
ATOM     19  C   UNL     1      46.943  13.308  19.497  0.00  0.00    +0.263 C 
ATOM     20  O   UNL     1      47.702  13.127  18.279  0.00  0.00    -0.351 OA
ATOM     21  C   UNL     1      47.477  14.144  17.392  0.00  0.00    +0.498 C 
ATOM     22  O   UNL     1      48.013  14.301  16.320  0.00  0.00    -0.435 OA
ATOM     23  C   UNL     1      45.377  18.588  18.393  0.00  0.00    -0.023 A 
ATOM     24  C   UNL     1      45.392  15.242  20.211  0.00  0.00    +0.117 C 
ATOM     25  C   UNL     1      44.491  19.308  19.174  0.00  0.00    +0.104 A 
ENDROOT
BRANCH   7   8
ATOM      8  C   UNL     1      48.045  16.935  18.076  0.00  0.00    -0.083 A 
ATOM      9  C   UNL     1      48.530  16.827  19.366  0.00  0.00    +0.058 A 
ATOM     10  C   UNL     1      49.833  17.191  19.652  0.00  0.00    +0.041 A 
ATOM     11  C   UNL     1      50.656  17.666  18.644  0.00  0.00    +0.036 A 
ATOM     12  C   UNL     1      50.169  17.775  17.345  0.00  0.00    +0.030 A 
ATOM     13  O   UNL     1      51.162  18.263  16.545  0.00  0.00    -0.308 OA
ATOM     14  C   UNL     1      52.131  18.835  17.442  0.00  0.00    +0.431 C 
ATOM     15  O   UNL     1      51.955  18.085  18.660  0.00  0.00    -0.308 OA
ATOM     16  C   UNL     1      48.863  17.402  17.064  0.00  0.00    +0.048 A 
ENDBRANCH   7   8
BRANCH   3   2
ATOM      1  C   UNL     1      41.661  18.983  21.026  0.00  0.00    +0.239 C 
ATOM      2  O   UNL     1      43.028  19.400  21.056  0.00  0.00    -0.305 OA
ENDBRANCH   3   2
BRANCH  25  26
ATOM     26  O   UNL     1      44.200  20.599  18.864  0.00  0.00    -0.305 OA
ATOM     27  C   UNL     1      45.192  21.580  19.172  0.00  0.00    +0.239 C 
ENDBRANCH  25  26
TORSDOF 3
ENDMDL
MODEL 2
REMARK VINA RESULT:      -6.0      2.898      6.945
REMARK  Name = ZINC85618313
REMARK  5 active torsions:
REMARK  status: ('A' for Active; 'I' for Inactive)
REMARK    1  A    between atoms: C1_1  and  O1_2
REMARK    2  A    between atoms: O1_2  and  C2_3
REMARK    3  A    between atoms: C7_8  and  O2_9
REMARK    4  A    between atoms: O2_9  and  C8_10
REMARK    5  A    between atoms: C9_11  and  C15_22
REMARK                            x       y       z     vdW  Elec       q    Type
REMARK                         _______ _______ _______ _____ _____    ______ ____
ROOT
ATOM      3  C   UNL     1      51.289  20.882  20.586  0.00  0.00    +0.107 A 
ATOM      4  C   UNL     1      50.289  21.149  21.502  0.00  0.00    -0.034 A 
ATOM      5  C   UNL     1      48.954  21.107  21.124  0.00  0.00    -0.075 A 
ATOM      6  C   UNL     1      48.621  20.803  19.820  0.00  0.00    -0.071 A 
ATOM      7  C   UNL     1      47.188  20.772  19.322  0.00  0.00    +0.135 C 
ATOM     17  C   UNL     1      46.335  21.529  20.320  0.00  0.00    -0.026 C 
ATOM     18  C   UNL     1      46.587  20.849  21.706  0.00  0.00    -0.023 C 
ATOM     19  C   UNL     1      45.350  21.381  22.445  0.00  0.00    +0.263 C 
ATOM     20  O   UNL     1      44.317  21.353  21.433  0.00  0.00    -0.351 OA
ATOM     21  C   UNL     1      44.848  21.394  20.172  0.00  0.00    +0.498 C 
ATOM     22  O   UNL     1      44.242  21.323  19.129  0.00  0.00    -0.435 OA
ATOM     23  C   UNL     1      49.621  20.526  18.899  0.00  0.00    -0.023 A 
ATOM     24  C   UNL     1      47.917  21.393  22.193  0.00  0.00    +0.117 C 
ATOM     25  C   UNL     1      50.952  20.570  19.272  0.00  0.00    +0.104 A 
ENDROOT
BRANCH   7   8
ATOM      8  C   UNL     1      46.713  19.346  19.221  0.00  0.00    -0.083 A 
ATOM      9  C   UNL     1      46.276  18.849  18.007  0.00  0.00    +0.058 A 
ATOM     10  C   UNL     1      45.840  17.540  17.910  0.00  0.00    +0.041 A 
ATOM     11  C   UNL     1      45.840  16.724  19.029  0.00  0.00    +0.036 A 
ATOM     12  C   UNL     1      46.281  17.225  20.251  0.00  0.00    +0.030 A 
ATOM     13  O   UNL     1      46.184  16.236  21.188  0.00  0.00    -0.308 OA
ATOM     14  C   UNL     1      45.300  15.253  20.620  0.00  0.00    +0.431 C 
ATOM     15  O   UNL     1      45.468  15.422  19.199  0.00  0.00    -0.308 OA
ATOM     16  C   UNL     1      46.722  18.536  20.341  0.00  0.00    +0.048 A 
ENDBRANCH   7   8
BRANCH   3   2
ATOM      1  C   UNL     1      52.885  20.627  22.330  0.00  0.00    +0.239 C 
ATOM      2  O   UNL     1      52.594  20.931  20.965  0.00  0.00    -0.305 OA
ENDBRANCH   3   2
BRANCH  25  26
ATOM     26  O   UNL     1      51.927  20.304  18.361  0.00  0.00    -0.305 OA
ATOM     27  C   UNL     1      51.719  20.782  17.031  0.00  0.00    +0.239 C 
ENDBRANCH  25  26
TORSDOF 3
ENDMDL
MODEL 3
REMARK VINA RESULT:      -5.9      1.840      4.700
REMARK  Name = ZINC85618313
REMARK  5 active torsions:
REMARK  status: ('A' for Active; 'I' for Inactive)
REMARK    1  A    between atoms: C1_1  and  O1_2
REMARK    2  A    between atoms: O1_2  and  C2_3
REMARK    3  A    between atoms: C7_8  and  O2_9
REMARK    4  A    between atoms: O2_9  and  C8_10
REMARK    5  A    between atoms: C9_11  and  C15_22
REMARK                            x       y       z     vdW  Elec       q    Type
REMARK                         _______ _______ _______ _____ _____    ______ ____
ROOT
ATOM      3  C   UNL     1      43.149  20.804  19.328  0.00  0.00    +0.107 A 
ATOM      4  C   UNL     1      44.466  21.200  19.180  0.00  0.00    -0.034 A 
ATOM      5  C   UNL     1      45.504  20.315  19.440  0.00  0.00    -0.075 A 
ATOM      6  C   UNL     1      45.221  19.032  19.859  0.00  0.00    -0.071 A 
ATOM      7  C   UNL     1      46.299  18.020  20.197  0.00  0.00    +0.135 C 
ATOM     17  C   UNL     1      47.592  18.778  20.418  0.00  0.00    -0.026 C 
ATOM     18  C   UNL     1      47.830  19.614  19.117  0.00  0.00    -0.023 C 
ATOM     19  C   UNL     1      49.327  19.900  19.305  0.00  0.00    +0.263 C 
ATOM     20  O   UNL     1      49.835  18.671  19.871  0.00  0.00    -0.351 OA
ATOM     21  C   UNL     1      48.847  17.959  20.496  0.00  0.00    +0.498 C 
ATOM     22  O   UNL     1      48.952  16.869  21.006  0.00  0.00    -0.435 OA
ATOM     23  C   UNL     1      43.901  18.627  20.001  0.00  0.00    -0.023 A 
ATOM     24  C   UNL     1      46.918  20.821  19.235  0.00  0.00    +0.117 C 
ATOM     25  C   UNL     1      42.865  19.507  19.744  0.00  0.00    +0.104 A 
ENDROOT
BRANCH   7   8
ATOM      8  C   UNL     1      46.464  17.049  19.058  0.00  0.00    -0.083 A 
ATOM      9  C   UNL     1      46.611  17.519  17.765  0.00  0.00    +0.058 A 
ATOM     10  C   UNL     1      46.763  16.632  16.716  0.00  0.00    +0.041 A 
ATOM     11  C   UNL     1      46.769  15.268  16.958  0.00  0.00    +0.036 A 
ATOM     12  C   UNL     1      46.622  14.794  18.259  0.00  0.00    +0.030 A 
ATOM     13  O   UNL     1      46.660  13.429  18.233  0.00  0.00    -0.308 OA
ATOM     14  C   UNL     1      46.424  13.064  16.861  0.00  0.00    +0.431 C 
ATOM     15  O   UNL     1      46.901  14.201  16.116  0.00  0.00    -0.308 OA
ATOM     16  C   UNL     1      46.475  15.689  19.306  0.00  0.00    +0.048 A 
ENDBRANCH   7   8
BRANCH   3   2
ATOM      1  C   UNL     1      42.462  23.070  19.110  0.00  0.00    +0.239 C 
ATOM      2  O   UNL     1      42.140  21.678  19.075  0.00  0.00    -0.305 OA
ENDBRANCH   3   2
BRANCH  25  26
ATOM     26  O   UNL     1      41.574  19.105  19.893  0.00  0.00    -0.305 OA
ATOM     27  C   UNL     1      41.121  18.858  21.226  0.00  0.00    +0.239 C 
ENDBRANCH  25  26
TORSDOF 3
ENDMDL
MODEL 4
REMARK VINA RESULT:      -5.8      2.353      6.600
REMARK  Name = ZINC85618313
REMARK  5 active torsions:
REMARK  status: ('A' for Active; 'I' for Inactive)
REMARK    1  A    between atoms: C1_1  and  O1_2
REMARK    2  A    between atoms: O1_2  and  C2_3
REMARK    3  A    between atoms: C7_8  and  O2_9
REMARK    4  A    between atoms: O2_9  and  C8_10
REMARK    5  A    between atoms: C9_11  and  C15_22
REMARK                            x       y       z     vdW  Elec       q    Type
REMARK                         _______ _______ _______ _____ _____    ______ ____
ROOT
ATOM      3  C   UNL     1      51.447  19.273  17.740  0.00  0.00    +0.107 A 
ATOM      4  C   UNL     1      50.473  18.387  17.319  0.00  0.00    -0.034 A 
ATOM      5  C   UNL     1      49.360  18.132  18.110  0.00  0.00    -0.075 A 
ATOM      6  C   UNL     1      49.228  18.763  19.330  0.00  0.00    -0.071 A 
ATOM      7  C   UNL     1      48.061  18.510  20.264  0.00  0.00    +0.135 C 
ATOM     17  C   UNL     1      47.401  17.213  19.841  0.00  0.00    -0.026 C 
ATOM     18  C   UNL     1      47.036  17.388  18.330  0.00  0.00    -0.023 C 
ATOM     19  C   UNL     1      46.001  16.258  18.217  0.00  0.00    +0.263 C 
ATOM     20  O   UNL     1      45.301  16.317  19.482  0.00  0.00    -0.351 OA
ATOM     21  C   UNL     1      46.065  16.907  20.452  0.00  0.00    +0.498 C 
ATOM     22  O   UNL     1      45.731  17.152  21.587  0.00  0.00    -0.435 OA
ATOM     23  C   UNL     1      50.200  19.659  19.752  0.00  0.00    -0.023 A 
ATOM     24  C   UNL     1      48.328  17.162  17.568  0.00  0.00    +0.117 C 
ATOM     25  C   UNL     1      51.310  19.913  18.967  0.00  0.00    +0.104 A 
ENDROOT
BRANCH   7   8
ATOM      8  C   UNL     1      47.072  19.642  20.165  0.00  0.00    -0.083 A 
ATOM      9  C   UNL     1      46.640  20.074  18.925  0.00  0.00    +0.058 A 
ATOM     10  C   UNL     1      45.732  21.113  18.828  0.00  0.00    +0.041 A 
ATOM     11  C   UNL     1      45.253  21.723  19.976  0.00  0.00    +0.036 A 
ATOM     12  C   UNL     1      45.687  21.287  21.225  0.00  0.00    +0.030 A 
ATOM     13  O   UNL     1      45.076  22.041  22.186  0.00  0.00    -0.308 OA
ATOM     14  C   UNL     1      44.578  23.205  21.503  0.00  0.00    +0.431 C 
ATOM     15  O   UNL     1      44.369  22.748  20.153  0.00  0.00    -0.308 OA
ATOM     16  C   UNL     1      46.593  20.242  21.315  0.00  0.00    +0.048 A 
ENDBRANCH   7   8
BRANCH   3   2
ATOM      1  C   UNL     1      52.299  20.097  15.679  0.00  0.00    +0.239 C 
ATOM      2  O   UNL     1      52.535  19.512  16.960  0.00  0.00    -0.305 OA
ENDBRANCH   3   2
BRANCH  25  26
ATOM     26  O   UNL     1      52.261  20.788  19.392  0.00  0.00    -0.305 OA
ATOM     27  C   UNL     1      52.327  21.045  20.797  0.00  0.00    +0.239 C 
ENDBRANCH  25  26
TORSDOF 3
ENDMDL
MODEL 5
REMARK VINA RESULT:      -5.6      2.192      2.780
REMARK  Name = ZINC85618313
REMARK  5 active torsions:
REMARK  status: ('A' for Active; 'I' for Inactive)
REMARK    1  A    between atoms: C1_1  and  O1_2
REMARK    2  A    between atoms: O1_2  and  C2_3
REMARK    3  A    between atoms: C7_8  and  O2_9
REMARK    4  A    between atoms: O2_9  and  C8_10
REMARK    5  A    between atoms: C9_11  and  C15_22
REMARK                            x       y       z     vdW  Elec       q    Type
REMARK                         _______ _______ _______ _____ _____    ______ ____
ROOT
ATOM      3  C   UNL     1      43.746  19.611  19.945  0.00  0.00    +0.107 A 
ATOM      4  C   UNL     1      44.286  18.340  19.867  0.00  0.00    -0.034 A 
ATOM      5  C   UNL     1      45.543  18.139  19.314  0.00  0.00    -0.075 A 
ATOM      6  C   UNL     1      46.260  19.214  18.832  0.00  0.00    -0.071 A 
ATOM      7  C   UNL     1      47.623  19.071  18.183  0.00  0.00    +0.135 C 
ATOM     17  C   UNL     1      47.796  17.618  17.787  0.00  0.00    -0.026 C 
ATOM     18  C   UNL     1      47.575  16.786  19.092  0.00  0.00    -0.023 C 
ATOM     19  C   UNL     1      48.239  15.477  18.640  0.00  0.00    +0.263 C 
ATOM     20  O   UNL     1      49.371  15.928  17.860  0.00  0.00    -0.351 OA
ATOM     21  C   UNL     1      49.176  17.193  17.376  0.00  0.00    +0.498 C 
ATOM     22  O   UNL     1      49.965  17.857  16.746  0.00  0.00    -0.435 OA
ATOM     23  C   UNL     1      45.726  20.492  18.916  0.00  0.00    -0.023 A 
ATOM     24  C   UNL     1      46.071  16.718  19.283  0.00  0.00    +0.117 C 
ATOM     25  C   UNL     1      44.472  20.696  19.463  0.00  0.00    +0.104 A 
ENDROOT
BRANCH   7   8
ATOM      8  C   UNL     1      48.698  19.465  19.161  0.00  0.00    -0.083 A 
ATOM      9  C   UNL     1      48.648  19.008  20.465  0.00  0.00    +0.058 A 
ATOM     10  C   UNL     1      49.633  19.367  21.366  0.00  0.00    +0.041 A 
ATOM     11  C   UNL     1      50.674  20.187  20.964  0.00  0.00    +0.036 A 
ATOM     12  C   UNL     1      50.726  20.647  19.651  0.00  0.00    +0.030 A 
ATOM     13  O   UNL     1      51.836  21.429  19.506  0.00  0.00    -0.308 OA
ATOM     14  C   UNL     1      52.241  21.774  20.844  0.00  0.00    +0.431 C 
ATOM     15  O   UNL     1      51.751  20.679  21.642  0.00  0.00    -0.308 OA
ATOM     16  C   UNL     1      49.738  20.279  18.751  0.00  0.00    +0.048 A 
ENDBRANCH   7   8
BRANCH   3   2
ATOM      1  C   UNL     1      41.393  19.372  19.704  0.00  0.00    +0.239 C 
ATOM      2  O   UNL     1      42.512  19.797  20.483  0.00  0.00    -0.305 OA
ENDBRANCH   3   2
BRANCH  25  26
ATOM     26  O   UNL     1      43.953  21.951  19.535  0.00  0.00    -0.305 OA
ATOM     27  C   UNL     1      44.770  22.958  20.138  0.00  0.00    +0.239 C 
ENDBRANCH  25  26
TORSDOF 3
ENDMDL
MODEL 6
REMARK VINA RESULT:      -5.4      2.106      4.566
REMARK  Name = ZINC85618313
REMARK  5 active torsions:
REMARK  status: ('A' for Active; 'I' for Inactive)
REMARK    1  A    between atoms: C1_1  and  O1_2
REMARK    2  A    between atoms: O1_2  and  C2_3
REMARK    3  A    between atoms: C7_8  and  O2_9
REMARK    4  A    between atoms: O2_9  and  C8_10
REMARK    5  A    between atoms: C9_11  and  C15_22
REMARK                            x       y       z     vdW  Elec       q    Type
REMARK                         _______ _______ _______ _____ _____    ______ ____
ROOT
ATOM      3  C   UNL     1      43.627  20.573  19.480  0.00  0.00    +0.107 A 
ATOM      4  C   UNL     1      45.009  20.607  19.444  0.00  0.00    -0.034 A 
ATOM      5  C   UNL     1      45.756  19.546  19.940  0.00  0.00    -0.075 A 
ATOM      6  C   UNL     1      45.114  18.451  20.481  0.00  0.00    -0.071 A 
ATOM      7  C   UNL     1      45.860  17.271  21.075  0.00  0.00    +0.135 C 
ATOM     17  C   UNL     1      47.282  17.715  21.353  0.00  0.00    -0.026 C 
ATOM     18  C   UNL     1      47.839  18.256  19.995  0.00  0.00    -0.023 C 
ATOM     19  C   UNL     1      49.337  18.193  20.325  0.00  0.00    +0.263 C 
ATOM     20  O   UNL     1      49.458  16.979  21.102  0.00  0.00    -0.351 OA
ATOM     21  C   UNL     1      48.270  16.636  21.687  0.00  0.00    +0.498 C 
ATOM     22  O   UNL     1      48.044  15.645  22.341  0.00  0.00    -0.435 OA
ATOM     23  C   UNL     1      43.728  18.409  20.512  0.00  0.00    -0.023 A 
ATOM     24  C   UNL     1      47.265  19.653  19.846  0.00  0.00    +0.117 C 
ATOM     25  C   UNL     1      42.981  19.465  20.021  0.00  0.00    +0.104 A 
ENDROOT
BRANCH   7   8
ATOM      8  C   UNL     1      45.864  16.126  20.097  0.00  0.00    -0.083 A 
ATOM      9  C   UNL     1      45.319  14.907  20.460  0.00  0.00    +0.058 A 
ATOM     10  C   UNL     1      45.320  13.853  19.566  0.00  0.00    +0.041 A 
ATOM     11  C   UNL     1      45.866  14.015  18.303  0.00  0.00    +0.036 A 
ATOM     12  C   UNL     1      46.413  15.242  17.937  0.00  0.00    +0.030 A 
ATOM     13  O   UNL     1      46.882  15.147  16.658  0.00  0.00    -0.308 OA
ATOM     14  C   UNL     1      46.983  13.737  16.390  0.00  0.00    +0.431 C 
ATOM     15  O   UNL     1      45.990  13.151  17.254  0.00  0.00    -0.308 OA
ATOM     16  C   UNL     1      46.405  16.296  18.837  0.00  0.00    +0.048 A 
ENDBRANCH   7   8
BRANCH   3   2
ATOM      1  C   UNL     1      43.210  22.913  19.514  0.00  0.00    +0.239 C 
ATOM      2  O   UNL     1      42.905  21.618  18.996  0.00  0.00    -0.305 OA
ENDBRANCH   3   2
BRANCH  25  26
ATOM     26  O   UNL     1      41.623  19.419  20.061  0.00  0.00    -0.305 OA
ATOM     27  C   UNL     1      41.028  18.815  21.212  0.00  0.00    +0.239 C 
ENDBRANCH  25  26
TORSDOF 3
ENDMDL
MODEL 7
REMARK VINA RESULT:      -5.4      2.677      5.831
REMARK  Name = ZINC85618313
REMARK  5 active torsions:
REMARK  status: ('A' for Active; 'I' for Inactive)
REMARK    1  A    between atoms: C1_1  and  O1_2
REMARK    2  A    between atoms: O1_2  and  C2_3
REMARK    3  A    between atoms: C7_8  and  O2_9
REMARK    4  A    between atoms: O2_9  and  C8_10
REMARK    5  A    between atoms: C9_11  and  C15_22
REMARK                            x       y       z     vdW  Elec       q    Type
REMARK                         _______ _______ _______ _____ _____    ______ ____
ROOT
ATOM      3  C   UNL     1      46.540  15.773  18.440  0.00  0.00    +0.107 A 
ATOM      4  C   UNL     1      45.862  16.933  18.115  0.00  0.00    -0.034 A 
ATOM      5  C   UNL     1      46.066  18.098  18.843  0.00  0.00    -0.075 A 
ATOM      6  C   UNL     1      46.948  18.097  19.904  0.00  0.00    -0.071 A 
ATOM      7  C   UNL     1      47.197  19.318  20.768  0.00  0.00    +0.135 C 
ATOM     17  C   UNL     1      46.051  20.284  20.546  0.00  0.00    -0.026 C 
ATOM     18  C   UNL     1      45.996  20.542  19.005  0.00  0.00    -0.023 C 
ATOM     19  C   UNL     1      45.167  21.835  19.023  0.00  0.00    +0.263 C 
ATOM     20  O   UNL     1      45.661  22.534  20.189  0.00  0.00    -0.351 OA
ATOM     21  C   UNL     1      46.226  21.672  21.090  0.00  0.00    +0.498 C 
ATOM     22  O   UNL     1      46.777  21.965  22.124  0.00  0.00    -0.435 OA
ATOM     23  C   UNL     1      47.637  16.936  20.228  0.00  0.00    -0.023 A 
ATOM     24  C   UNL     1      45.299  19.332  18.412  0.00  0.00    +0.117 C 
ATOM     25  C   UNL     1      47.434  15.774  19.506  0.00  0.00    +0.104 A 
ENDROOT
BRANCH   7   8
ATOM      8  C   UNL     1      48.497  19.968  20.371  0.00  0.00    -0.083 A 
ATOM      9  C   UNL     1      48.756  20.235  19.039  0.00  0.00    +0.058 A 
ATOM     10  C   UNL     1      49.948  20.832  18.670  0.00  0.00    +0.041 A 
ATOM     11  C   UNL     1      50.885  21.164  19.634  0.00  0.00    +0.036 A 
ATOM     12  C   UNL     1      50.623  20.896  20.975  0.00  0.00    +0.030 A 
ATOM     13  O   UNL     1      51.690  21.313  21.719  0.00  0.00    -0.308 OA
ATOM     14  C   UNL     1      52.774  21.465  20.785  0.00  0.00    +0.431 C 
ATOM     15  O   UNL     1      52.114  21.749  19.537  0.00  0.00    -0.308 OA
ATOM     16  C   UNL     1      49.425  20.303  21.339  0.00  0.00    +0.048 A 
ENDBRANCH   7   8
BRANCH   3   2
ATOM      1  C   UNL     1      47.039  14.505  16.491  0.00  0.00    +0.239 C 
ATOM      2  O   UNL     1      46.330  14.636  17.724  0.00  0.00    -0.305 OA
ENDBRANCH   3   2
BRANCH  25  26
ATOM     26  O   UNL     1      48.108  14.639  19.835  0.00  0.00    -0.305 OA
ATOM     27  C   UNL     1      47.622  13.897  20.955  0.00  0.00    +0.239 C 
ENDBRANCH  25  26
TORSDOF 3
ENDMDL
MODEL 8
REMARK VINA RESULT:      -5.4      1.837      6.143
REMARK  Name = ZINC85618313
REMARK  5 active torsions:
REMARK  status: ('A' for Active; 'I' for Inactive)
REMARK    1  A    between atoms: C1_1  and  O1_2
REMARK    2  A    between atoms: O1_2  and  C2_3
REMARK    3  A    between atoms: C7_8  and  O2_9
REMARK    4  A    between atoms: O2_9  and  C8_10
REMARK    5  A    between atoms: C9_11  and  C15_22
REMARK                            x       y       z     vdW  Elec       q    Type
REMARK                         _______ _______ _______ _____ _____    ______ ____
ROOT
ATOM      3  C   UNL     1      50.655  19.826  18.273  0.00  0.00    +0.107 A 
ATOM      4  C   UNL     1      50.215  18.807  17.449  0.00  0.00    -0.034 A 
ATOM      5  C   UNL     1      49.214  17.941  17.868  0.00  0.00    -0.075 A 
ATOM      6  C   UNL     1      48.658  18.092  19.121  0.00  0.00    -0.071 A 
ATOM      7  C   UNL     1      47.587  17.166  19.664  0.00  0.00    +0.135 C 
ATOM     17  C   UNL     1      47.602  15.902  18.828  0.00  0.00    -0.026 C 
ATOM     18  C   UNL     1      47.414  16.362  17.346  0.00  0.00    -0.023 C 
ATOM     19  C   UNL     1      46.979  15.016  16.746  0.00  0.00    +0.263 C 
ATOM     20  O   UNL     1      46.149  14.441  17.782  0.00  0.00    -0.351 OA
ATOM     21  C   UNL     1      46.448  14.960  19.012  0.00  0.00    +0.498 C 
ATOM     22  O   UNL     1      45.885  14.722  20.054  0.00  0.00    -0.435 OA
ATOM     23  C   UNL     1      49.091  19.119  19.949  0.00  0.00    -0.023 A 
ATOM     24  C   UNL     1      48.774  16.863  16.897  0.00  0.00    +0.117 C 
ATOM     25  C   UNL     1      50.090  19.982  19.535  0.00  0.00    +0.104 A 
ENDROOT
BRANCH   7   8
ATOM      8  C   UNL     1      46.238  17.829  19.562  0.00  0.00    -0.083 A 
ATOM      9  C   UNL     1      45.959  18.665  18.497  0.00  0.00    +0.058 A 
ATOM     10  C   UNL     1      44.722  19.276  18.400  0.00  0.00    +0.041 A 
ATOM     11  C   UNL     1      43.759  19.051  19.369  0.00  0.00    +0.036 A 
ATOM     12  C   UNL     1      44.040  18.208  20.442  0.00  0.00    +0.030 A 
ATOM     13  O   UNL     1      42.942  18.150  21.251  0.00  0.00    -0.308 OA
ATOM     14  C   UNL     1      42.133  19.282  20.882  0.00  0.00    +0.431 C 
ATOM     15  O   UNL     1      42.485  19.521  19.505  0.00  0.00    -0.308 OA
ATOM     16  C   UNL     1      45.280  17.595  20.531  0.00  0.00    +0.048 A 
ENDBRANCH   7   8
BRANCH   3   2
ATOM      1  C   UNL     1      51.551  21.153  16.515  0.00  0.00    +0.239 C 
ATOM      2  O   UNL     1      51.639  20.666  17.856  0.00  0.00    -0.305 OA
ENDBRANCH   3   2
BRANCH  25  26
ATOM     26  O   UNL     1      50.513  20.981  20.355  0.00  0.00    -0.305 OA
ATOM     27  C   UNL     1      51.424  20.623  21.397  0.00  0.00    +0.239 C 
ENDBRANCH  25  26
TORSDOF 3
ENDMDL
MODEL 9
REMARK VINA RESULT:      -5.1      2.321      3.838
REMARK  Name = ZINC85618313
REMARK  5 active torsions:
REMARK  status: ('A' for Active; 'I' for Inactive)
REMARK    1  A    between atoms: C1_1  and  O1_2
REMARK    2  A    between atoms: O1_2  and  C2_3
REMARK    3  A    between atoms: C7_8  and  O2_9
REMARK    4  A    between atoms: O2_9  and  C8_10
REMARK    5  A    between atoms: C9_11  and  C15_22
REMARK                            x       y       z     vdW  Elec       q    Type
REMARK                         _______ _______ _______ _____ _____    ______ ____
ROOT
ATOM      3  C   UNL     1      45.538  17.508  19.613  0.00  0.00    +0.107 A 
ATOM      4  C   UNL     1      46.412  16.583  19.072  0.00  0.00    -0.034 A 
ATOM      5  C   UNL     1      47.637  16.984  18.558  0.00  0.00    -0.075 A 
ATOM      6  C   UNL     1      47.985  18.319  18.579  0.00  0.00    -0.071 A 
ATOM      7  C   UNL     1      49.288  18.839  18.005  0.00  0.00    +0.135 C 
ATOM     17  C   UNL     1      49.844  17.775  17.080  0.00  0.00    -0.026 C 
ATOM     18  C   UNL     1      49.952  16.472  17.937  0.00  0.00    -0.023 C 
ATOM     19  C   UNL     1      50.932  15.697  17.045  0.00  0.00    +0.263 C 
ATOM     20  O   UNL     1      51.837  16.722  16.571  0.00  0.00    -0.351 OA
ATOM     21  C   UNL     1      51.258  17.961  16.614  0.00  0.00    +0.498 C 
ATOM     22  O   UNL     1      51.784  19.015  16.343  0.00  0.00    -0.435 OA
ATOM     23  C   UNL     1      47.114  19.250  19.129  0.00  0.00    -0.023 A 
ATOM     24  C   UNL     1      48.545  15.906  18.000  0.00  0.00    +0.117 C 
ATOM     25  C   UNL     1      45.892  18.853  19.640  0.00  0.00    +0.104 A 
ENDROOT
BRANCH   7   8
ATOM      8  C   UNL     1      50.266  19.109  19.119  0.00  0.00    -0.083 A 
ATOM      9  C   UNL     1      50.633  18.088  19.977  0.00  0.00    +0.058 A 
ATOM     10  C   UNL     1      51.530  18.331  21.001  0.00  0.00    +0.041 A 
ATOM     11  C   UNL     1      52.064  19.598  21.169  0.00  0.00    +0.036 A 
ATOM     12  C   UNL     1      51.695  20.625  20.305  0.00  0.00    +0.030 A 
ATOM     13  O   UNL     1      52.351  21.764  20.676  0.00  0.00    -0.308 OA
ATOM     14  C   UNL     1      52.809  21.524  22.019  0.00  0.00    +0.431 C 
ATOM     15  O   UNL     1      52.951  20.091  22.081  0.00  0.00    -0.308 OA
ATOM     16  C   UNL     1      50.799  20.374  19.277  0.00  0.00    +0.048 A 
ENDBRANCH   7   8
BRANCH   3   2
ATOM      1  C   UNL     1      44.349  16.449  21.379  0.00  0.00    +0.239 C 
ATOM      2  O   UNL     1      44.338  17.105  20.110  0.00  0.00    -0.305 OA
ENDBRANCH   3   2
BRANCH  25  26
ATOM     26  O   UNL     1      45.042  19.773  20.171  0.00  0.00    -0.305 OA
ATOM     27  C   UNL     1      44.306  20.583  19.251  0.00  0.00    +0.239 C 
ENDBRANCH  25  26
TORSDOF 3
ENDMDL
