MODEL 1
REMARK VINA RESULT:      -6.7      0.000      0.000
REMARK  Name = ZINC03978987
REMARK  6 active torsions:
REMARK  status: ('A' for Active; 'I' for Inactive)
REMARK    1  A    between atoms: C1_1  and  C2_2
REMARK    2  A    between atoms: C2_2  and  C23_31
REMARK    3  A    between atoms: C15_18  and  O5_28
REMARK    4  A    between atoms: C16_19  and  O4_26
REMARK    5  A    between atoms: O4_26  and  C21_27
REMARK    6  A    between atoms: O5_28  and  C22_29
REMARK                            x       y       z     vdW  Elec       q    Type
REMARK                         _______ _______ _______ _____ _____    ______ ____
ROOT
ATOM      1  C   UNL     1      51.879  18.024  15.825  0.00  0.00    +0.085 C 
ATOM      2  C   UNL     1      51.160  18.091  17.174  0.00  0.00    +0.146 C 
ATOM      3  C   UNL     1      52.118  17.641  18.279  0.00  0.00    +0.036 C 
ATOM      4  C   UNL     1      49.968  17.171  17.147  0.00  0.00    -0.059 C 
ATOM      5  C   UNL     1      48.904  17.439  17.903  0.00  0.00    +0.063 C 
ATOM      6  C   UNL     1      48.937  18.656  18.742  0.00  0.00    -0.180 A 
ATOM      7  C   UNL     1      49.895  19.640  18.456  0.00  0.00    +0.207 A 
ATOM      8  C   UNL     1      49.958  20.798  19.220  0.00  0.00    -0.043 A 
ATOM      9  C   UNL     1      49.081  20.983  20.267  0.00  0.00    +0.161 A 
ATOM     10  C   UNL     1      48.122  20.009  20.560  0.00  0.00    -0.281 A 
ATOM     11  C   UNL     1      47.188  20.187  21.681  0.00  0.00    +0.422 C 
ATOM     12  O   UNL     1      47.348  21.063  22.505  0.00  0.00    -0.440 OA
ATOM     13  C   UNL     1      46.032  19.235  21.771  0.00  0.00    +0.009 C 
ATOM     14  C   UNL     1      44.914  19.681  20.846  0.00  0.00    -0.155 A 
ATOM     15  C   UNL     1      44.626  21.033  20.752  0.00  0.00    +0.007 A 
ATOM     16  C   UNL     1      43.612  21.475  19.919  0.00  0.00    +0.076 A 
ATOM     19  C   UNL     1      42.879  20.557  19.174  0.00  0.00    +0.145 A 
ATOM     22  C   UNL     1      43.169  19.207  19.267  0.00  0.00    -0.054 A 
ATOM     23  C   UNL     1      44.189  18.765  20.103  0.00  0.00    +0.156 A 
ATOM     24  O   UNL     1      44.445  17.431  20.163  0.00  0.00    -0.299 OA
ATOM     25  C   UNL     1      45.246  16.943  21.241  0.00  0.00    +0.297 C 
ATOM     26  C   UNL     1      46.496  17.836  21.344  0.00  0.00    +0.173 C 
ATOM     27  O   UNL     1      47.096  17.904  20.050  0.00  0.00    -0.288 OA
ATOM     28  C   UNL     1      48.038  18.835  19.791  0.00  0.00    +0.234 A 
ATOM     29  O   UNL     1      50.751  19.436  17.424  0.00  0.00    -0.297 OA
ENDROOT
BRANCH  16  17
ATOM     17  O   UNL     1      43.334  22.804  19.829  0.00  0.00    -0.303 OA
ATOM     18  C   UNL     1      44.419  23.673  19.496  0.00  0.00    +0.238 C 
ENDBRANCH  16  17
BRANCH  19  20
ATOM     20  O   UNL     1      41.881  20.985  18.356  0.00  0.00    -0.299 OA
ATOM     21  C   UNL     1      40.552  20.946  18.879  0.00  0.00    +0.243 C 
ENDBRANCH  19  20
TORSDOF 2
ENDMDL
MODEL 2
REMARK VINA RESULT:      -6.7      2.463      7.759
REMARK  Name = ZINC03978987
REMARK  6 active torsions:
REMARK  status: ('A' for Active; 'I' for Inactive)
REMARK    1  A    between atoms: C1_1  and  C2_2
REMARK    2  A    between atoms: C2_2  and  C23_31
REMARK    3  A    between atoms: C15_18  and  O5_28
REMARK    4  A    between atoms: C16_19  and  O4_26
REMARK    5  A    between atoms: O4_26  and  C21_27
REMARK    6  A    between atoms: O5_28  and  C22_29
REMARK                            x       y       z     vdW  Elec       q    Type
REMARK                         _______ _______ _______ _____ _____    ______ ____
ROOT
ATOM      1  C   UNL     1      44.010  21.238  20.791  0.00  0.00    +0.085 C 
ATOM      2  C   UNL     1      45.497  21.524  20.575  0.00  0.00    +0.146 C 
ATOM      3  C   UNL     1      45.816  22.938  21.065  0.00  0.00    +0.036 C 
ATOM      4  C   UNL     1      45.813  21.426  19.105  0.00  0.00    -0.059 C 
ATOM      5  C   UNL     1      47.036  21.074  18.710  0.00  0.00    +0.063 C 
ATOM      6  C   UNL     1      48.043  20.776  19.751  0.00  0.00    -0.180 A 
ATOM      7  C   UNL     1      47.602  20.534  21.060  0.00  0.00    +0.207 A 
ATOM      8  C   UNL     1      48.517  20.251  22.066  0.00  0.00    -0.043 A 
ATOM      9  C   UNL     1      49.865  20.211  21.782  0.00  0.00    +0.161 A 
ATOM     10  C   UNL     1      50.316  20.451  20.480  0.00  0.00    -0.281 A 
ATOM     11  C   UNL     1      51.751  20.423  20.164  0.00  0.00    +0.422 C 
ATOM     12  O   UNL     1      52.591  20.404  21.040  0.00  0.00    -0.440 OA
ATOM     13  C   UNL     1      52.137  20.429  18.715  0.00  0.00    +0.009 C 
ATOM     14  C   UNL     1      52.045  19.026  18.144  0.00  0.00    -0.155 A 
ATOM     15  C   UNL     1      52.477  17.961  18.918  0.00  0.00    +0.007 A 
ATOM     16  C   UNL     1      52.409  16.668  18.428  0.00  0.00    +0.076 A 
ATOM     19  C   UNL     1      51.906  16.437  17.152  0.00  0.00    +0.145 A 
ATOM     22  C   UNL     1      51.473  17.500  16.380  0.00  0.00    -0.054 A 
ATOM     23  C   UNL     1      51.540  18.799  16.875  0.00  0.00    +0.156 A 
ATOM     24  O   UNL     1      51.101  19.816  16.086  0.00  0.00    -0.299 OA
ATOM     25  C   UNL     1      51.464  21.152  16.440  0.00  0.00    +0.297 C 
ATOM     26  C   UNL     1      51.175  21.339  17.940  0.00  0.00    +0.173 C 
ATOM     27  O   UNL     1      49.828  20.932  18.183  0.00  0.00    -0.288 OA
ATOM     28  C   UNL     1      49.403  20.729  19.448  0.00  0.00    +0.234 A 
ATOM     29  O   UNL     1      46.271  20.583  21.319  0.00  0.00    -0.297 OA
ENDROOT
BRANCH  16  17
ATOM     17  O   UNL     1      52.832  15.625  19.194  0.00  0.00    -0.303 OA
ATOM     18  C   UNL     1      54.212  15.612  19.566  0.00  0.00    +0.238 C 
ENDBRANCH  16  17
BRANCH  19  20
ATOM     20  O   UNL     1      51.838  15.169  16.665  0.00  0.00    -0.299 OA
ATOM     21  C   UNL     1      50.563  14.527  16.701  0.00  0.00    +0.243 C 
ENDBRANCH  19  20
TORSDOF 2
ENDMDL
MODEL 3
REMARK VINA RESULT:      -6.4      1.996      2.791
REMARK  Name = ZINC03978987
REMARK  6 active torsions:
REMARK  status: ('A' for Active; 'I' for Inactive)
REMARK    1  A    between atoms: C1_1  and  C2_2
REMARK    2  A    between atoms: C2_2  and  C23_31
REMARK    3  A    between atoms: C15_18  and  O5_28
REMARK    4  A    between atoms: C16_19  and  O4_26
REMARK    5  A    between atoms: O4_26  and  C21_27
REMARK    6  A    between atoms: O5_28  and  C22_29
REMARK                            x       y       z     vdW  Elec       q    Type
REMARK                         _______ _______ _______ _____ _____    ______ ____
ROOT
ATOM      1  C   UNL     1      48.189  13.633  16.363  0.00  0.00    +0.085 C 
ATOM      2  C   UNL     1      47.911  14.400  17.658  0.00  0.00    +0.146 C 
ATOM      3  C   UNL     1      48.819  13.864  18.766  0.00  0.00    +0.036 C 
ATOM      4  C   UNL     1      46.472  14.200  18.055  0.00  0.00    -0.059 C 
ATOM      5  C   UNL     1      45.838  15.139  18.755  0.00  0.00    +0.063 C 
ATOM      6  C   UNL     1      46.585  16.365  19.107  0.00  0.00    -0.180 A 
ATOM      7  C   UNL     1      47.772  16.648  18.415  0.00  0.00    +0.207 A 
ATOM      8  C   UNL     1      48.503  17.790  18.716  0.00  0.00    -0.043 A 
ATOM      9  C   UNL     1      48.066  18.650  19.700  0.00  0.00    +0.161 A 
ATOM     10  C   UNL     1      46.884  18.378  20.396  0.00  0.00    -0.281 A 
ATOM     11  C   UNL     1      46.411  19.279  21.457  0.00  0.00    +0.422 C 
ATOM     12  O   UNL     1      47.120  20.156  21.905  0.00  0.00    -0.440 OA
ATOM     13  C   UNL     1      45.018  19.066  21.972  0.00  0.00    +0.009 C 
ATOM     14  C   UNL     1      44.012  19.724  21.045  0.00  0.00    -0.155 A 
ATOM     15  C   UNL     1      44.314  20.965  20.507  0.00  0.00    +0.007 A 
ATOM     16  C   UNL     1      43.419  21.595  19.660  0.00  0.00    +0.076 A 
ATOM     19  C   UNL     1      42.211  20.980  19.348  0.00  0.00    +0.145 A 
ATOM     22  C   UNL     1      41.910  19.741  19.885  0.00  0.00    -0.054 A 
ATOM     23  C   UNL     1      42.812  19.108  20.734  0.00  0.00    +0.156 A 
ATOM     24  O   UNL     1      42.482  17.888  21.237  0.00  0.00    -0.299 OA
ATOM     25  C   UNL     1      43.230  17.389  22.347  0.00  0.00    +0.297 C 
ATOM     26  C   UNL     1      44.725  17.560  22.025  0.00  0.00    +0.173 C 
ATOM     27  O   UNL     1      44.970  16.978  20.745  0.00  0.00    -0.288 OA
ATOM     28  C   UNL     1      46.127  17.231  20.098  0.00  0.00    +0.234 A 
ATOM     29  O   UNL     1      48.187  15.786  17.453  0.00  0.00    -0.297 OA
ENDROOT
BRANCH  16  17
ATOM     17  O   UNL     1      43.721  22.813  19.132  0.00  0.00    -0.303 OA
ATOM     18  C   UNL     1      44.714  23.586  19.809  0.00  0.00    +0.238 C 
ENDBRANCH  16  17
BRANCH  19  20
ATOM     20  O   UNL     1      41.326  21.596  18.518  0.00  0.00    -0.299 OA
ATOM     21  C   UNL     1      39.958  21.197  18.617  0.00  0.00    +0.243 C 
ENDBRANCH  19  20
TORSDOF 2
ENDMDL
MODEL 4
REMARK VINA RESULT:      -5.9      3.464      5.273
REMARK  Name = ZINC03978987
REMARK  6 active torsions:
REMARK  status: ('A' for Active; 'I' for Inactive)
REMARK    1  A    between atoms: C1_1  and  C2_2
REMARK    2  A    between atoms: C2_2  and  C23_31
REMARK    3  A    between atoms: C15_18  and  O5_28
REMARK    4  A    between atoms: C16_19  and  O4_26
REMARK    5  A    between atoms: O4_26  and  C21_27
REMARK    6  A    between atoms: O5_28  and  C22_29
REMARK                            x       y       z     vdW  Elec       q    Type
REMARK                         _______ _______ _______ _____ _____    ______ ____
ROOT
ATOM      1  C   UNL     1      52.593  21.973  20.271  0.00  0.00    +0.085 C 
ATOM      2  C   UNL     1      52.048  20.724  19.575  0.00  0.00    +0.146 C 
ATOM      3  C   UNL     1      52.989  20.330  18.435  0.00  0.00    +0.036 C 
ATOM      4  C   UNL     1      50.685  21.027  19.009  0.00  0.00    -0.059 C 
ATOM      5  C   UNL     1      49.789  20.050  18.873  0.00  0.00    +0.063 C 
ATOM      6  C   UNL     1      50.176  18.689  19.303  0.00  0.00    -0.180 A 
ATOM      7  C   UNL     1      51.293  18.543  20.138  0.00  0.00    +0.207 A 
ATOM      8  C   UNL     1      51.688  17.281  20.564  0.00  0.00    -0.043 A 
ATOM      9  C   UNL     1      50.985  16.166  20.164  0.00  0.00    +0.161 A 
ATOM     10  C   UNL     1      49.869  16.300  19.332  0.00  0.00    -0.281 A 
ATOM     11  C   UNL     1      49.116  15.119  18.887  0.00  0.00    +0.422 C 
ATOM     12  O   UNL     1      49.549  13.996  19.045  0.00  0.00    -0.440 OA
ATOM     13  C   UNL     1      47.794  15.356  18.220  0.00  0.00    +0.009 C 
ATOM     14  C   UNL     1      46.714  15.578  19.264  0.00  0.00    -0.155 A 
ATOM     15  C   UNL     1      46.724  14.798  20.410  0.00  0.00    +0.007 A 
ATOM     16  C   UNL     1      45.753  14.973  21.381  0.00  0.00    +0.076 A 
ATOM     19  C   UNL     1      44.764  15.935  21.206  0.00  0.00    +0.145 A 
ATOM     22  C   UNL     1      44.756  16.714  20.063  0.00  0.00    -0.054 A 
ATOM     23  C   UNL     1      45.732  16.539  19.089  0.00  0.00    +0.156 A 
ATOM     24  O   UNL     1      45.693  17.328  17.981  0.00  0.00    -0.299 OA
ATOM     25  C   UNL     1      46.471  16.943  16.847  0.00  0.00    +0.297 C 
ATOM     26  C   UNL     1      47.891  16.609  17.339  0.00  0.00    +0.173 C 
ATOM     27  O   UNL     1      48.357  17.710  18.120  0.00  0.00    -0.288 OA
ATOM     28  C   UNL     1      49.450  17.570  18.899  0.00  0.00    +0.234 A 
ATOM     29  O   UNL     1      51.974  19.653  20.516  0.00  0.00    -0.297 OA
ENDROOT
BRANCH  16  17
ATOM     17  O   UNL     1      45.768  14.206  22.505  0.00  0.00    -0.303 OA
ATOM     18  C   UNL     1      46.495  12.976  22.443  0.00  0.00    +0.238 C 
ENDBRANCH  16  17
BRANCH  19  20
ATOM     20  O   UNL     1      43.807  16.109  22.156  0.00  0.00    -0.299 OA
ATOM     21  C   UNL     1      43.221  17.408  22.257  0.00  0.00    +0.243 C 
ENDBRANCH  19  20
TORSDOF 2
ENDMDL
MODEL 5
REMARK VINA RESULT:      -5.8      2.694      5.551
REMARK  Name = ZINC03978987
REMARK  6 active torsions:
REMARK  status: ('A' for Active; 'I' for Inactive)
REMARK    1  A    between atoms: C1_1  and  C2_2
REMARK    2  A    between atoms: C2_2  and  C23_31
REMARK    3  A    between atoms: C15_18  and  O5_28
REMARK    4  A    between atoms: C16_19  and  O4_26
REMARK    5  A    between atoms: O4_26  and  C21_27
REMARK    6  A    between atoms: O5_28  and  C22_29
REMARK                            x       y       z     vdW  Elec       q    Type
REMARK                         _______ _______ _______ _____ _____    ______ ____
ROOT
ATOM      1  C   UNL     1      54.216  13.355  20.553  0.00  0.00    +0.085 C 
ATOM      2  C   UNL     1      54.098  14.818  20.121  0.00  0.00    +0.146 C 
ATOM      3  C   UNL     1      55.410  15.259  19.470  0.00  0.00    +0.036 C 
ATOM      4  C   UNL     1      53.833  15.674  21.331  0.00  0.00    -0.059 C 
ATOM      5  C   UNL     1      53.156  16.815  21.204  0.00  0.00    +0.063 C 
ATOM      6  C   UNL     1      52.675  17.190  19.858  0.00  0.00    -0.180 A 
ATOM      7  C   UNL     1      52.634  16.203  18.862  0.00  0.00    +0.207 A 
ATOM      8  C   UNL     1      52.188  16.515  17.584  0.00  0.00    -0.043 A 
ATOM      9  C   UNL     1      51.787  17.800  17.288  0.00  0.00    +0.161 A 
ATOM     10  C   UNL     1      51.824  18.792  18.273  0.00  0.00    -0.281 A 
ATOM     11  C   UNL     1      51.411  20.170  17.969  0.00  0.00    +0.422 C 
ATOM     12  O   UNL     1      51.231  20.539  16.827  0.00  0.00    -0.440 OA
ATOM     13  C   UNL     1      51.230  21.106  19.127  0.00  0.00    +0.009 C 
ATOM     14  C   UNL     1      49.865  20.899  19.757  0.00  0.00    -0.155 A 
ATOM     15  C   UNL     1      48.773  20.683  18.930  0.00  0.00    +0.007 A 
ATOM     16  C   UNL     1      47.514  20.492  19.471  0.00  0.00    +0.076 A 
ATOM     19  C   UNL     1      47.342  20.518  20.851  0.00  0.00    +0.145 A 
ATOM     22  C   UNL     1      48.432  20.732  21.677  0.00  0.00    -0.054 A 
ATOM     23  C   UNL     1      49.697  20.921  21.132  0.00  0.00    +0.156 A 
ATOM     24  O   UNL     1      50.744  21.124  21.977  0.00  0.00    -0.299 OA
ATOM     25  C   UNL     1      51.961  21.640  21.436  0.00  0.00    +0.297 C 
ATOM     26  C   UNL     1      52.307  20.818  20.181  0.00  0.00    +0.173 C 
ATOM     27  O   UNL     1      52.274  19.436  20.537  0.00  0.00    -0.288 OA
ATOM     28  C   UNL     1      52.263  18.491  19.574  0.00  0.00    +0.234 A 
ATOM     29  O   UNL     1      53.037  14.946  19.174  0.00  0.00    -0.297 OA
ENDROOT
BRANCH  16  17
ATOM     17  O   UNL     1      46.446  20.278  18.655  0.00  0.00    -0.303 OA
ATOM     18  C   UNL     1      46.233  18.939  18.202  0.00  0.00    +0.238 C 
ENDBRANCH  16  17
BRANCH  19  20
ATOM     20  O   UNL     1      46.107  20.333  21.389  0.00  0.00    -0.299 OA
ATOM     21  C   UNL     1      45.428  21.494  21.870  0.00  0.00    +0.243 C 
ENDBRANCH  19  20
TORSDOF 2
ENDMDL
MODEL 6
REMARK VINA RESULT:      -5.6      4.722      7.091
REMARK  Name = ZINC03978987
REMARK  6 active torsions:
REMARK  status: ('A' for Active; 'I' for Inactive)
REMARK    1  A    between atoms: C1_1  and  C2_2
REMARK    2  A    between atoms: C2_2  and  C23_31
REMARK    3  A    between atoms: C15_18  and  O5_28
REMARK    4  A    between atoms: C16_19  and  O4_26
REMARK    5  A    between atoms: O4_26  and  C21_27
REMARK    6  A    between atoms: O5_28  and  C22_29
REMARK                            x       y       z     vdW  Elec       q    Type
REMARK                         _______ _______ _______ _____ _____    ______ ____
ROOT
ATOM      1  C   UNL     1      51.463  21.152  16.197  0.00  0.00    +0.085 C 
ATOM      2  C   UNL     1      51.549  19.887  17.053  0.00  0.00    +0.146 C 
ATOM      3  C   UNL     1      52.588  20.094  18.157  0.00  0.00    +0.036 C 
ATOM      4  C   UNL     1      51.970  18.728  16.187  0.00  0.00    -0.059 C 
ATOM      5  C   UNL     1      51.591  17.491  16.501  0.00  0.00    +0.063 C 
ATOM      6  C   UNL     1      50.748  17.306  17.702  0.00  0.00    -0.180 A 
ATOM      7  C   UNL     1      50.102  18.427  18.244  0.00  0.00    +0.207 A 
ATOM      8  C   UNL     1      49.300  18.295  19.371  0.00  0.00    -0.043 A 
ATOM      9  C   UNL     1      49.140  17.062  19.964  0.00  0.00    +0.161 A 
ATOM     10  C   UNL     1      49.780  15.938  19.432  0.00  0.00    -0.281 A 
ATOM     11  C   UNL     1      49.629  14.619  20.061  0.00  0.00    +0.422 C 
ATOM     12  O   UNL     1      49.130  14.495  21.161  0.00  0.00    -0.440 OA
ATOM     13  C   UNL     1      50.124  13.429  19.294  0.00  0.00    +0.009 C 
ATOM     14  C   UNL     1      49.087  12.996  18.273  0.00  0.00    -0.155 A 
ATOM     15  C   UNL     1      47.749  13.015  18.634  0.00  0.00    +0.007 A 
ATOM     16  C   UNL     1      46.776  12.625  17.729  0.00  0.00    +0.076 A 
ATOM     19  C   UNL     1      47.144  12.212  16.453  0.00  0.00    +0.145 A 
ATOM     22  C   UNL     1      48.480  12.195  16.093  0.00  0.00    -0.054 A 
ATOM     23  C   UNL     1      49.456  12.589  17.002  0.00  0.00    +0.156 A 
ATOM     24  O   UNL     1      50.758  12.563  16.609  0.00  0.00    -0.299 OA
ATOM     25  C   UNL     1      51.770  12.643  17.613  0.00  0.00    +0.297 C 
ATOM     26  C   UNL     1      51.414  13.809  18.553  0.00  0.00    +0.173 C 
ATOM     27  O   UNL     1      51.184  14.967  17.750  0.00  0.00    -0.288 OA
ATOM     28  C   UNL     1      50.587  16.052  18.287  0.00  0.00    +0.234 A 
ATOM     29  O   UNL     1      50.276  19.632  17.647  0.00  0.00    -0.297 OA
ENDROOT
BRANCH  16  17
ATOM     17  O   UNL     1      45.464  12.647  18.087  0.00  0.00    -0.303 OA
ATOM     18  C   UNL     1      45.140  13.278  19.329  0.00  0.00    +0.238 C 
ENDBRANCH  16  17
BRANCH  19  20
ATOM     20  O   UNL     1      46.193  11.826  15.561  0.00  0.00    -0.299 OA
ATOM     21  C   UNL     1      46.004  10.422  15.381  0.00  0.00    +0.243 C 
ENDBRANCH  19  20
TORSDOF 2
ENDMDL
MODEL 7
REMARK VINA RESULT:      -5.4      3.061      7.155
REMARK  Name = ZINC03978987
REMARK  6 active torsions:
REMARK  status: ('A' for Active; 'I' for Inactive)
REMARK    1  A    between atoms: C1_1  and  C2_2
REMARK    2  A    between atoms: C2_2  and  C23_31
REMARK    3  A    between atoms: C15_18  and  O5_28
REMARK    4  A    between atoms: C16_19  and  O4_26
REMARK    5  A    between atoms: O4_26  and  C21_27
REMARK    6  A    between atoms: O5_28  and  C22_29
REMARK                            x       y       z     vdW  Elec       q    Type
REMARK                         _______ _______ _______ _____ _____    ______ ____
ROOT
ATOM      1  C   UNL     1      43.572  22.874  19.554  0.00  0.00    +0.085 C 
ATOM      2  C   UNL     1      44.370  21.726  20.176  0.00  0.00    +0.146 C 
ATOM      3  C   UNL     1      44.614  22.025  21.656  0.00  0.00    +0.036 C 
ATOM      4  C   UNL     1      45.695  21.602  19.470  0.00  0.00    -0.059 C 
ATOM      5  C   UNL     1      46.305  20.420  19.404  0.00  0.00    +0.063 C 
ATOM      6  C   UNL     1      45.636  19.257  20.027  0.00  0.00    -0.180 A 
ATOM      7  C   UNL     1      44.273  19.358  20.339  0.00  0.00    +0.207 A 
ATOM      8  C   UNL     1      43.608  18.288  20.924  0.00  0.00    -0.043 A 
ATOM      9  C   UNL     1      44.288  17.123  21.205  0.00  0.00    +0.161 A 
ATOM     10  C   UNL     1      45.648  17.012  20.898  0.00  0.00    -0.281 A 
ATOM     11  C   UNL     1      46.390  15.780  21.202  0.00  0.00    +0.422 C 
ATOM     12  O   UNL     1      45.916  14.914  21.908  0.00  0.00    -0.440 OA
ATOM     13  C   UNL     1      47.762  15.639  20.614  0.00  0.00    +0.009 C 
ATOM     14  C   UNL     1      47.667  15.157  19.177  0.00  0.00    -0.155 A 
ATOM     15  C   UNL     1      46.731  14.186  18.860  0.00  0.00    +0.007 A 
ATOM     16  C   UNL     1      46.618  13.721  17.561  0.00  0.00    +0.076 A 
ATOM     19  C   UNL     1      47.450  14.231  16.570  0.00  0.00    +0.145 A 
ATOM     22  C   UNL     1      48.383  15.202  16.886  0.00  0.00    -0.054 A 
ATOM     23  C   UNL     1      48.494  15.669  18.192  0.00  0.00    +0.156 A 
ATOM     24  O   UNL     1      49.421  16.627  18.462  0.00  0.00    -0.299 OA
ATOM     25  C   UNL     1      49.767  16.870  19.826  0.00  0.00    +0.297 C 
ATOM     26  C   UNL     1      48.460  17.006  20.628  0.00  0.00    +0.173 C 
ATOM     27  O   UNL     1      47.639  17.971  19.971  0.00  0.00    -0.288 OA
ATOM     28  C   UNL     1      46.334  18.082  20.297  0.00  0.00    +0.234 A 
ATOM     29  O   UNL     1      43.623  20.515  20.058  0.00  0.00    -0.297 OA
ENDROOT
BRANCH  16  17
ATOM     17  O   UNL     1      45.695  12.770  17.255  0.00  0.00    -0.303 OA
ATOM     18  C   UNL     1      46.139  11.411  17.255  0.00  0.00    +0.238 C 
ENDBRANCH  16  17
BRANCH  19  20
ATOM     20  O   UNL     1      47.345  13.778  15.292  0.00  0.00    -0.299 OA
ATOM     21  C   UNL     1      48.343  12.857  14.847  0.00  0.00    +0.243 C 
ENDBRANCH  19  20
TORSDOF 2
ENDMDL
MODEL 8
REMARK VINA RESULT:      -5.3      3.494      7.615
REMARK  Name = ZINC03978987
REMARK  6 active torsions:
REMARK  status: ('A' for Active; 'I' for Inactive)
REMARK    1  A    between atoms: C1_1  and  C2_2
REMARK    2  A    between atoms: C2_2  and  C23_31
REMARK    3  A    between atoms: C15_18  and  O5_28
REMARK    4  A    between atoms: C16_19  and  O4_26
REMARK    5  A    between atoms: O4_26  and  C21_27
REMARK    6  A    between atoms: O5_28  and  C22_29
REMARK                            x       y       z     vdW  Elec       q    Type
REMARK                         _______ _______ _______ _____ _____    ______ ____
ROOT
ATOM      1  C   UNL     1      43.198  21.571  19.505  0.00  0.00    +0.085 C 
ATOM      2  C   UNL     1      44.198  20.556  20.063  0.00  0.00    +0.146 C 
ATOM      3  C   UNL     1      44.556  20.938  21.501  0.00  0.00    +0.036 C 
ATOM      4  C   UNL     1      45.447  20.575  19.220  0.00  0.00    -0.059 C 
ATOM      5  C   UNL     1      46.194  19.477  19.115  0.00  0.00    +0.063 C 
ATOM      6  C   UNL     1      45.751  18.263  19.833  0.00  0.00    -0.180 A 
ATOM      7  C   UNL     1      44.426  18.202  20.289  0.00  0.00    +0.207 A 
ATOM      8  C   UNL     1      43.971  17.079  20.968  0.00  0.00    -0.043 A 
ATOM      9  C   UNL     1      44.822  16.020  21.200  0.00  0.00    +0.161 A 
ATOM     10  C   UNL     1      46.145  16.071  20.749  0.00  0.00    -0.281 A 
ATOM     11  C   UNL     1      47.067  14.954  20.999  0.00  0.00    +0.422 C 
ATOM     12  O   UNL     1      46.787  14.062  21.772  0.00  0.00    -0.440 OA
ATOM     13  C   UNL     1      48.377  14.966  20.267  0.00  0.00    +0.009 C 
ATOM     14  C   UNL     1      48.195  14.423  18.861  0.00  0.00    -0.155 A 
ATOM     15  C   UNL     1      47.364  13.331  18.671  0.00  0.00    +0.007 A 
ATOM     16  C   UNL     1      47.176  12.809  17.403  0.00  0.00    +0.076 A 
ATOM     19  C   UNL     1      47.826  13.383  16.315  0.00  0.00    +0.145 A 
ATOM     22  C   UNL     1      48.654  14.475  16.505  0.00  0.00    -0.054 A 
ATOM     23  C   UNL     1      48.840  14.999  17.780  0.00  0.00    +0.156 A 
ATOM     24  O   UNL     1      49.659  16.076  17.926  0.00  0.00    -0.299 OA
ATOM     25  C   UNL     1      50.112  16.410  19.238  0.00  0.00    +0.297 C 
ATOM     26  C   UNL     1      48.890  16.410  20.174  0.00  0.00    +0.173 C 
ATOM     27  O   UNL     1      47.886  17.239  19.588  0.00  0.00    -0.288 OA
ATOM     28  C   UNL     1      46.619  17.196  20.052  0.00  0.00    +0.234 A 
ATOM     29  O   UNL     1      43.606  19.257  20.055  0.00  0.00    -0.297 OA
ENDROOT
BRANCH  16  17
ATOM     17  O   UNL     1      46.357  11.738  17.220  0.00  0.00    -0.303 OA
ATOM     18  C   UNL     1      46.963  10.444  17.255  0.00  0.00    +0.238 C 
ENDBRANCH  16  17
BRANCH  19  20
ATOM     20  O   UNL     1      47.647  12.873  15.067  0.00  0.00    -0.299 OA
ATOM     21  C   UNL     1      48.823  12.527  14.333  0.00  0.00    +0.243 C 
ENDBRANCH  19  20
TORSDOF 2
ENDMDL
MODEL 9
REMARK VINA RESULT:      -5.1      3.179      4.839
REMARK  Name = ZINC03978987
REMARK  6 active torsions:
REMARK  status: ('A' for Active; 'I' for Inactive)
REMARK    1  A    between atoms: C1_1  and  C2_2
REMARK    2  A    between atoms: C2_2  and  C23_31
REMARK    3  A    between atoms: C15_18  and  O5_28
REMARK    4  A    between atoms: C16_19  and  O4_26
REMARK    5  A    between atoms: O4_26  and  C21_27
REMARK    6  A    between atoms: O5_28  and  C22_29
REMARK                            x       y       z     vdW  Elec       q    Type
REMARK                         _______ _______ _______ _____ _____    ______ ____
ROOT
ATOM      1  C   UNL     1      54.393  15.906  20.170  0.00  0.00    +0.085 C 
ATOM      2  C   UNL     1      53.048  15.256  19.834  0.00  0.00    +0.146 C 
ATOM      3  C   UNL     1      53.270  13.779  19.505  0.00  0.00    +0.036 C 
ATOM      4  C   UNL     1      52.450  15.946  18.636  0.00  0.00    -0.059 C 
ATOM      5  C   UNL     1      51.127  15.986  18.484  0.00  0.00    +0.063 C 
ATOM      6  C   UNL     1      50.289  15.352  19.524  0.00  0.00    -0.180 A 
ATOM      7  C   UNL     1      50.872  15.056  20.765  0.00  0.00    +0.207 A 
ATOM      8  C   UNL     1      50.118  14.460  21.768  0.00  0.00    -0.043 A 
ATOM      9  C   UNL     1      48.793  14.153  21.546  0.00  0.00    +0.161 A 
ATOM     10  C   UNL     1      48.202  14.443  20.312  0.00  0.00    -0.281 A 
ATOM     11  C   UNL     1      46.793  14.111  20.057  0.00  0.00    +0.422 C 
ATOM     12  O   UNL     1      46.165  13.396  20.810  0.00  0.00    -0.440 OA
ATOM     13  C   UNL     1      46.164  14.683  18.821  0.00  0.00    +0.009 C 
ATOM     14  C   UNL     1      45.719  16.112  19.075  0.00  0.00    -0.155 A 
ATOM     15  C   UNL     1      45.137  16.422  20.294  0.00  0.00    +0.007 A 
ATOM     16  C   UNL     1      44.718  17.715  20.558  0.00  0.00    +0.076 A 
ATOM     19  C   UNL     1      44.881  18.706  19.596  0.00  0.00    +0.145 A 
ATOM     22  C   UNL     1      45.464  18.396  18.380  0.00  0.00    -0.054 A 
ATOM     23  C   UNL     1      45.886  17.097  18.116  0.00  0.00    +0.156 A 
ATOM     24  O   UNL     1      46.458  16.833  16.911  0.00  0.00    -0.299 OA
ATOM     25  C   UNL     1      46.589  15.469  16.507  0.00  0.00    +0.297 C 
ATOM     26  C   UNL     1      47.195  14.683  17.684  0.00  0.00    +0.173 C 
ATOM     27  O   UNL     1      48.376  15.365  18.107  0.00  0.00    -0.288 OA
ATOM     28  C   UNL     1      48.948  15.055  19.290  0.00  0.00    +0.234 A 
ATOM     29  O   UNL     1      52.178  15.362  20.961  0.00  0.00    -0.297 OA
ENDROOT
BRANCH  16  17
ATOM     17  O   UNL     1      44.149  18.015  21.757  0.00  0.00    -0.303 OA
ATOM     18  C   UNL     1      42.988  17.269  22.131  0.00  0.00    +0.238 C 
ENDBRANCH  16  17
BRANCH  19  20
ATOM     20  O   UNL     1      44.470  19.977  19.849  0.00  0.00    -0.299 OA
ATOM     21  C   UNL     1      43.278  20.416  19.194  0.00  0.00    +0.243 C 
ENDBRANCH  19  20
TORSDOF 2
ENDMDL
