MODEL 1
REMARK VINA RESULT:      -6.0      0.000      0.000
REMARK  Name = ZINC14645890
REMARK  9 active torsions:
REMARK  status: ('A' for Active; 'I' for Inactive)
REMARK    1  A    between atoms: C1_1  and  O1_2
REMARK    2  A    between atoms: O1_2  and  C2_3
REMARK    3  A    between atoms: C4_5  and  O7_24
REMARK    4  A    between atoms: C5_6  and  O6_23
REMARK    5  A    between atoms: C9_11  and  C11_14
REMARK    6  A    between atoms: C15_18  and  O5_22
REMARK    7  A    between atoms: C16_19  and  O4_20
REMARK    8  A    between atoms: O4_20  and  C17_21
REMARK    9  A    between atoms: O7_24  and  C18_25
REMARK                            x       y       z     vdW  Elec       q    Type
REMARK                         _______ _______ _______ _____ _____    ______ ____
ROOT
ATOM      3  C   UNL     1      45.314  15.488  19.934  0.00  0.00    +0.251 A 
ATOM      4  C   UNL     1      45.590  14.296  19.289  0.00  0.00    -0.170 A 
ATOM      5  C   UNL     1      46.181  14.303  18.030  0.00  0.00    +0.208 A 
ATOM      8  C   UNL     1      46.503  15.500  17.405  0.00  0.00    +0.010 A 
ATOM     11  C   UNL     1      46.235  16.709  18.038  0.00  0.00    +0.196 A 
ATOM     12  O   UNL     1      46.543  17.877  17.440  0.00  0.00    -0.205 OA
ATOM     13  C   UNL     1      46.305  19.070  17.993  0.00  0.00    +0.326 A 
ATOM     14  C   UNL     1      45.738  19.204  19.220  0.00  0.00    -0.231 A 
ATOM     25  C   UNL     1      45.361  17.990  19.963  0.00  0.00    +0.435 A 
ATOM     26  O   UNL     1      44.844  18.051  21.066  0.00  0.00    -0.423 OA
ATOM     27  C   UNL     1      45.636  16.700  19.311  0.00  0.00    -0.277 A 
ENDROOT
BRANCH  14  15
ATOM     15  C   UNL     1      45.499  20.549  19.797  0.00  0.00    -0.033 A 
ATOM     16  C   UNL     1      46.482  21.162  20.574  0.00  0.00    +0.031 A 
ATOM     17  C   UNL     1      46.257  22.414  21.109  0.00  0.00    +0.028 A 
ATOM     18  C   UNL     1      45.058  23.067  20.880  0.00  0.00    +0.008 A 
ATOM     19  C   UNL     1      44.076  22.470  20.105  0.00  0.00    +0.088 A 
ATOM     22  C   UNL     1      44.289  21.207  19.566  0.00  0.00    +0.098 A 
BRANCH  19  20
ATOM     20  O   UNL     1      42.902  23.117  19.878  0.00  0.00    -0.484 OA
ATOM     21  H   UNL     1      42.991  24.076  19.794  0.00  0.00    +0.386 HD
ENDBRANCH  19  20
BRANCH  22  23
ATOM     23  O   UNL     1      43.326  20.616  18.810  0.00  0.00    -0.317 OA
ATOM     24  C   UNL     1      42.261  19.966  19.508  0.00  0.00    +0.218 C 
ENDBRANCH  22  23
ENDBRANCH  14  15
BRANCH   3   2
ATOM      1  C   UNL     1      45.351  14.670  22.164  0.00  0.00    +0.249 C 
ATOM      2  O   UNL     1      44.737  15.483  21.162  0.00  0.00    -0.275 OA
ENDBRANCH   3   2
BRANCH   5   6
ATOM      6  O   UNL     1      46.447  13.126  17.407  0.00  0.00    -0.292 OA
ATOM      7  C   UNL     1      45.338  12.264  17.144  0.00  0.00    +0.254 C 
ENDBRANCH   5   6
BRANCH   8   9
ATOM      9  O   UNL     1      47.082  15.490  16.174  0.00  0.00    -0.465 OA
ATOM     10  H   UNL     1      46.469  15.677  15.449  0.00  0.00    +0.384 HD
ENDBRANCH   8   9
TORSDOF 6
ENDMDL
MODEL 2
REMARK VINA RESULT:      -5.5      1.112      2.678
REMARK  Name = ZINC14645890
REMARK  9 active torsions:
REMARK  status: ('A' for Active; 'I' for Inactive)
REMARK    1  A    between atoms: C1_1  and  O1_2
REMARK    2  A    between atoms: O1_2  and  C2_3
REMARK    3  A    between atoms: C4_5  and  O7_24
REMARK    4  A    between atoms: C5_6  and  O6_23
REMARK    5  A    between atoms: C9_11  and  C11_14
REMARK    6  A    between atoms: C15_18  and  O5_22
REMARK    7  A    between atoms: C16_19  and  O4_20
REMARK    8  A    between atoms: O4_20  and  C17_21
REMARK    9  A    between atoms: O7_24  and  C18_25
REMARK                            x       y       z     vdW  Elec       q    Type
REMARK                         _______ _______ _______ _____ _____    ______ ____
ROOT
ATOM      3  C   UNL     1      46.659  16.297  17.738  0.00  0.00    +0.251 A 
ATOM      4  C   UNL     1      46.809  14.923  17.713  0.00  0.00    -0.170 A 
ATOM      5  C   UNL     1      46.201  14.135  18.685  0.00  0.00    +0.208 A 
ATOM      8  C   UNL     1      45.439  14.715  19.690  0.00  0.00    +0.010 A 
ATOM     11  C   UNL     1      45.275  16.095  19.733  0.00  0.00    +0.196 A 
ATOM     12  O   UNL     1      44.537  16.668  20.705  0.00  0.00    -0.205 OA
ATOM     13  C   UNL     1      44.348  17.987  20.801  0.00  0.00    +0.326 A 
ATOM     14  C   UNL     1      44.881  18.867  19.914  0.00  0.00    -0.231 A 
ATOM     25  C   UNL     1      45.707  18.348  18.810  0.00  0.00    +0.435 A 
ATOM     26  O   UNL     1      46.213  19.091  17.988  0.00  0.00    -0.423 OA
ATOM     27  C   UNL     1      45.892  16.889  18.748  0.00  0.00    -0.277 A 
ENDROOT
BRANCH  14  15
ATOM     15  C   UNL     1      44.639  20.322  20.058  0.00  0.00    -0.033 A 
ATOM     16  C   UNL     1      45.494  21.101  20.837  0.00  0.00    +0.031 A 
ATOM     17  C   UNL     1      45.268  22.455  20.969  0.00  0.00    +0.028 A 
ATOM     18  C   UNL     1      44.192  23.048  20.330  0.00  0.00    +0.008 A 
ATOM     19  C   UNL     1      43.338  22.286  19.548  0.00  0.00    +0.088 A 
ATOM     22  C   UNL     1      43.553  20.920  19.414  0.00  0.00    +0.098 A 
BRANCH  19  20
ATOM     20  O   UNL     1      42.286  22.875  18.918  0.00  0.00    -0.484 OA
ATOM     21  H   UNL     1      41.977  22.396  18.137  0.00  0.00    +0.386 HD
ENDBRANCH  19  20
BRANCH  22  23
ATOM     23  O   UNL     1      42.714  20.169  18.652  0.00  0.00    -0.317 OA
ATOM     24  C   UNL     1      41.482  19.763  19.252  0.00  0.00    +0.218 C 
ENDBRANCH  22  23
ENDBRANCH  14  15
BRANCH   3   2
ATOM      1  C   UNL     1      48.669  17.223  16.875  0.00  0.00    +0.249 C 
ATOM      2  O   UNL     1      47.252  17.066  16.790  0.00  0.00    -0.275 OA
ENDBRANCH   3   2
BRANCH   5   6
ATOM      6  O   UNL     1      46.355  12.786  18.650  0.00  0.00    -0.292 OA
ATOM      7  C   UNL     1      46.115  12.137  17.400  0.00  0.00    +0.254 C 
ENDBRANCH   5   6
BRANCH   8   9
ATOM      9  O   UNL     1      44.850  13.931  20.635  0.00  0.00    -0.465 OA
ATOM     10  H   UNL     1      45.178  14.081  21.532  0.00  0.00    +0.384 HD
ENDBRANCH   8   9
TORSDOF 6
ENDMDL
MODEL 3
REMARK VINA RESULT:      -5.5      2.829      4.949
REMARK  Name = ZINC14645890
REMARK  9 active torsions:
REMARK  status: ('A' for Active; 'I' for Inactive)
REMARK    1  A    between atoms: C1_1  and  O1_2
REMARK    2  A    between atoms: O1_2  and  C2_3
REMARK    3  A    between atoms: C4_5  and  O7_24
REMARK    4  A    between atoms: C5_6  and  O6_23
REMARK    5  A    between atoms: C9_11  and  C11_14
REMARK    6  A    between atoms: C15_18  and  O5_22
REMARK    7  A    between atoms: C16_19  and  O4_20
REMARK    8  A    between atoms: O4_20  and  C17_21
REMARK    9  A    between atoms: O7_24  and  C18_25
REMARK                            x       y       z     vdW  Elec       q    Type
REMARK                         _______ _______ _______ _____ _____    ______ ____
ROOT
ATOM      3  C   UNL     1      48.344  17.668  17.651  0.00  0.00    +0.251 A 
ATOM      4  C   UNL     1      49.713  17.802  17.514  0.00  0.00    -0.170 A 
ATOM      5  C   UNL     1      50.375  18.866  18.118  0.00  0.00    +0.208 A 
ATOM      8  C   UNL     1      49.674  19.804  18.864  0.00  0.00    +0.010 A 
ATOM     11  C   UNL     1      48.297  19.686  19.015  0.00  0.00    +0.196 A 
ATOM     12  O   UNL     1      47.607  20.592  19.736  0.00  0.00    -0.205 OA
ATOM     13  C   UNL     1      46.283  20.535  19.912  0.00  0.00    +0.326 A 
ATOM     14  C   UNL     1      45.519  19.546  19.382  0.00  0.00    -0.231 A 
ATOM     25  C   UNL     1      46.172  18.502  18.573  0.00  0.00    +0.435 A 
ATOM     26  O   UNL     1      45.535  17.593  18.070  0.00  0.00    -0.423 OA
ATOM     27  C   UNL     1      47.629  18.609  18.402  0.00  0.00    -0.277 A 
ENDROOT
BRANCH  14  15
ATOM     15  C   UNL     1      44.054  19.521  19.610  0.00  0.00    -0.033 A 
ATOM     16  C   UNL     1      43.198  20.184  18.731  0.00  0.00    +0.031 A 
ATOM     17  C   UNL     1      41.835  20.159  18.944  0.00  0.00    +0.028 A 
ATOM     18  C   UNL     1      41.311  19.477  20.029  0.00  0.00    +0.008 A 
ATOM     19  C   UNL     1      42.151  18.809  20.906  0.00  0.00    +0.088 A 
ATOM     22  C   UNL     1      43.525  18.833  20.704  0.00  0.00    +0.098 A 
BRANCH  19  20
ATOM     20  O   UNL     1      41.630  18.136  21.967  0.00  0.00    -0.484 OA
ATOM     21  H   UNL     1      40.812  18.518  22.312  0.00  0.00    +0.386 HD
ENDBRANCH  19  20
BRANCH  22  23
ATOM     23  O   UNL     1      44.353  18.184  21.565  0.00  0.00    -0.317 OA
ATOM     24  C   UNL     1      44.485  16.771  21.396  0.00  0.00    +0.218 C 
ENDBRANCH  22  23
ENDBRANCH  14  15
BRANCH   3   2
ATOM      1  C   UNL     1      48.255  15.329  17.246  0.00  0.00    +0.249 C 
ATOM      2  O   UNL     1      47.696  16.630  17.062  0.00  0.00    -0.275 OA
ENDBRANCH   3   2
BRANCH   5   6
ATOM      6  O   UNL     1      51.720  18.987  17.976  0.00  0.00    -0.292 OA
ATOM      7  C   UNL     1      52.198  19.516  16.738  0.00  0.00    +0.254 C 
ENDBRANCH   5   6
BRANCH   8   9
ATOM      9  O   UNL     1      50.336  20.839  19.449  0.00  0.00    -0.465 OA
ATOM     10  H   UNL     1      51.209  21.014  19.070  0.00  0.00    +0.384 HD
ENDBRANCH   8   9
TORSDOF 6
ENDMDL
MODEL 4
REMARK VINA RESULT:      -5.3      1.242      2.036
REMARK  Name = ZINC14645890
REMARK  9 active torsions:
REMARK  status: ('A' for Active; 'I' for Inactive)
REMARK    1  A    between atoms: C1_1  and  O1_2
REMARK    2  A    between atoms: O1_2  and  C2_3
REMARK    3  A    between atoms: C4_5  and  O7_24
REMARK    4  A    between atoms: C5_6  and  O6_23
REMARK    5  A    between atoms: C9_11  and  C11_14
REMARK    6  A    between atoms: C15_18  and  O5_22
REMARK    7  A    between atoms: C16_19  and  O4_20
REMARK    8  A    between atoms: O4_20  and  C17_21
REMARK    9  A    between atoms: O7_24  and  C18_25
REMARK                            x       y       z     vdW  Elec       q    Type
REMARK                         _______ _______ _______ _____ _____    ______ ____
ROOT
ATOM      3  C   UNL     1      45.210  15.556  20.071  0.00  0.00    +0.251 A 
ATOM      4  C   UNL     1      45.543  14.356  19.470  0.00  0.00    -0.170 A 
ATOM      5  C   UNL     1      46.169  14.346  18.229  0.00  0.00    +0.208 A 
ATOM      8  C   UNL     1      46.469  15.534  17.577  0.00  0.00    +0.010 A 
ATOM     11  C   UNL     1      46.145  16.752  18.165  0.00  0.00    +0.196 A 
ATOM     12  O   UNL     1      46.431  17.912  17.540  0.00  0.00    -0.205 OA
ATOM     13  C   UNL     1      46.139  19.112  18.051  0.00  0.00    +0.326 A 
ATOM     14  C   UNL     1      45.533  19.263  19.257  0.00  0.00    -0.231 A 
ATOM     25  C   UNL     1      45.174  18.058  20.026  0.00  0.00    +0.435 A 
ATOM     26  O   UNL     1      44.625  18.134  21.111  0.00  0.00    -0.423 OA
ATOM     27  C   UNL     1      45.510  16.760  19.421  0.00  0.00    -0.277 A 
ENDROOT
BRANCH  14  15
ATOM     15  C   UNL     1      45.234  20.615  19.786  0.00  0.00    -0.033 A 
ATOM     16  C   UNL     1      44.078  21.284  19.385  0.00  0.00    +0.031 A 
ATOM     17  C   UNL     1      43.801  22.542  19.879  0.00  0.00    +0.028 A 
ATOM     18  C   UNL     1      44.667  23.146  20.775  0.00  0.00    +0.008 A 
ATOM     19  C   UNL     1      45.816  22.489  21.186  0.00  0.00    +0.088 A 
ATOM     22  C   UNL     1      46.108  21.224  20.689  0.00  0.00    +0.098 A 
BRANCH  19  20
ATOM     20  O   UNL     1      46.661  23.084  22.070  0.00  0.00    -0.484 OA
ATOM     21  H   UNL     1      46.903  23.990  21.834  0.00  0.00    +0.386 HD
ENDBRANCH  19  20
BRANCH  22  23
ATOM     23  O   UNL     1      47.237  20.578  21.086  0.00  0.00    -0.317 OA
ATOM     24  C   UNL     1      48.443  20.891  20.385  0.00  0.00    +0.218 C 
ENDBRANCH  22  23
ENDBRANCH  14  15
BRANCH   3   2
ATOM      1  C   UNL     1      45.100  14.667  22.271  0.00  0.00    +0.249 C 
ATOM      2  O   UNL     1      44.599  15.568  21.282  0.00  0.00    -0.275 OA
ENDBRANCH   3   2
BRANCH   5   6
ATOM      6  O   UNL     1      46.491  13.160  17.649  0.00  0.00    -0.292 OA
ATOM      7  C   UNL     1      45.412  12.358  17.168  0.00  0.00    +0.254 C 
ENDBRANCH   5   6
BRANCH   8   9
ATOM      9  O   UNL     1      47.083  15.507  16.362  0.00  0.00    -0.465 OA
ATOM     10  H   UNL     1      46.979  14.672  15.887  0.00  0.00    +0.384 HD
ENDBRANCH   8   9
TORSDOF 6
ENDMDL
MODEL 5
REMARK VINA RESULT:      -5.1      3.553      6.231
REMARK  Name = ZINC14645890
REMARK  9 active torsions:
REMARK  status: ('A' for Active; 'I' for Inactive)
REMARK    1  A    between atoms: C1_1  and  O1_2
REMARK    2  A    between atoms: O1_2  and  C2_3
REMARK    3  A    between atoms: C4_5  and  O7_24
REMARK    4  A    between atoms: C5_6  and  O6_23
REMARK    5  A    between atoms: C9_11  and  C11_14
REMARK    6  A    between atoms: C15_18  and  O5_22
REMARK    7  A    between atoms: C16_19  and  O4_20
REMARK    8  A    between atoms: O4_20  and  C17_21
REMARK    9  A    between atoms: O7_24  and  C18_25
REMARK                            x       y       z     vdW  Elec       q    Type
REMARK                         _______ _______ _______ _____ _____    ______ ____
ROOT
ATOM      3  C   UNL     1      45.185  18.085  19.646  0.00  0.00    +0.251 A 
ATOM      4  C   UNL     1      43.959  18.156  20.279  0.00  0.00    -0.170 A 
ATOM      5  C   UNL     1      43.687  19.195  21.162  0.00  0.00    +0.208 A 
ATOM      8  C   UNL     1      44.639  20.173  21.419  0.00  0.00    +0.010 A 
ATOM     11  C   UNL     1      45.878  20.120  20.791  0.00  0.00    +0.196 A 
ATOM     12  O   UNL     1      46.810  21.064  21.033  0.00  0.00    -0.205 OA
ATOM     13  C   UNL     1      48.020  21.064  20.466  0.00  0.00    +0.326 A 
ATOM     14  C   UNL     1      48.410  20.110  19.581  0.00  0.00    -0.231 A 
ATOM     25  C   UNL     1      47.468  19.028  19.244  0.00  0.00    +0.435 A 
ATOM     26  O   UNL     1      47.767  18.144  18.460  0.00  0.00    -0.423 OA
ATOM     27  C   UNL     1      46.151  19.067  19.898  0.00  0.00    -0.277 A 
ENDROOT
BRANCH  14  15
ATOM     15  C   UNL     1      49.761  20.154  18.971  0.00  0.00    -0.033 A 
ATOM     16  C   UNL     1      50.061  21.111  18.003  0.00  0.00    +0.031 A 
ATOM     17  C   UNL     1      51.318  21.152  17.437  0.00  0.00    +0.028 A 
ATOM     18  C   UNL     1      52.288  20.243  17.826  0.00  0.00    +0.008 A 
ATOM     19  C   UNL     1      52.004  19.291  18.793  0.00  0.00    +0.088 A 
ATOM     22  C   UNL     1      50.738  19.237  19.364  0.00  0.00    +0.098 A 
BRANCH  19  20
ATOM     20  O   UNL     1      52.962  18.404  19.176  0.00  0.00    -0.484 OA
ATOM     21  H   UNL     1      53.364  17.919  18.443  0.00  0.00    +0.386 HD
ENDBRANCH  19  20
BRANCH  22  23
ATOM     23  O   UNL     1      50.454  18.301  20.308  0.00  0.00    -0.317 OA
ATOM     24  C   UNL     1      50.785  18.623  21.661  0.00  0.00    +0.218 C 
ENDBRANCH  22  23
ENDBRANCH  14  15
BRANCH   3   2
ATOM      1  C   UNL     1      45.500  15.751  19.329  0.00  0.00    +0.249 C 
ATOM      2  O   UNL     1      45.452  17.071  18.783  0.00  0.00    -0.275 OA
ENDBRANCH   3   2
BRANCH   5   6
ATOM      6  O   UNL     1      42.478  19.255  21.778  0.00  0.00    -0.292 OA
ATOM      7  C   UNL     1      41.334  18.902  20.999  0.00  0.00    +0.254 C 
ENDBRANCH   5   6
BRANCH   8   9
ATOM      9  O   UNL     1      44.358  21.184  22.285  0.00  0.00    -0.465 OA
ATOM     10  H   UNL     1      44.930  21.205  23.066  0.00  0.00    +0.384 HD
ENDBRANCH   8   9
TORSDOF 6
ENDMDL
MODEL 6
REMARK VINA RESULT:      -5.0      2.253      6.952
REMARK  Name = ZINC14645890
REMARK  9 active torsions:
REMARK  status: ('A' for Active; 'I' for Inactive)
REMARK    1  A    between atoms: C1_1  and  O1_2
REMARK    2  A    between atoms: O1_2  and  C2_3
REMARK    3  A    between atoms: C4_5  and  O7_24
REMARK    4  A    between atoms: C5_6  and  O6_23
REMARK    5  A    between atoms: C9_11  and  C11_14
REMARK    6  A    between atoms: C15_18  and  O5_22
REMARK    7  A    between atoms: C16_19  and  O4_20
REMARK    8  A    between atoms: O4_20  and  C17_21
REMARK    9  A    between atoms: O7_24  and  C18_25
REMARK                            x       y       z     vdW  Elec       q    Type
REMARK                         _______ _______ _______ _____ _____    ______ ____
ROOT
ATOM      3  C   UNL     1      43.903  19.605  19.221  0.00  0.00    +0.251 A 
ATOM      4  C   UNL     1      42.721  20.316  19.133  0.00  0.00    -0.170 A 
ATOM      5  C   UNL     1      41.633  19.966  19.927  0.00  0.00    +0.208 A 
ATOM      8  C   UNL     1      41.719  18.904  20.816  0.00  0.00    +0.010 A 
ATOM     11  C   UNL     1      42.900  18.177  20.921  0.00  0.00    +0.196 A 
ATOM     12  O   UNL     1      42.994  17.143  21.781  0.00  0.00    -0.205 OA
ATOM     13  C   UNL     1      44.098  16.404  21.923  0.00  0.00    +0.326 A 
ATOM     14  C   UNL     1      45.231  16.643  21.213  0.00  0.00    -0.231 A 
ATOM     25  C   UNL     1      45.239  17.751  20.242  0.00  0.00    +0.435 A 
ATOM     26  O   UNL     1      46.226  18.008  19.574  0.00  0.00    -0.423 OA
ATOM     27  C   UNL     1      43.998  18.532  20.116  0.00  0.00    -0.277 A 
ENDROOT
BRANCH  14  15
ATOM     15  C   UNL     1      46.435  15.800  21.408  0.00  0.00    -0.033 A 
ATOM     16  C   UNL     1      47.415  16.181  22.324  0.00  0.00    +0.031 A 
ATOM     17  C   UNL     1      48.535  15.395  22.505  0.00  0.00    +0.028 A 
ATOM     18  C   UNL     1      48.691  14.227  21.779  0.00  0.00    +0.008 A 
ATOM     19  C   UNL     1      47.721  13.834  20.869  0.00  0.00    +0.088 A 
ATOM     22  C   UNL     1      46.594  14.622  20.675  0.00  0.00    +0.098 A 
BRANCH  19  20
ATOM     20  O   UNL     1      47.878  12.683  20.163  0.00  0.00    -0.484 OA
ATOM     21  H   UNL     1      48.727  12.244  20.309  0.00  0.00    +0.386 HD
ENDBRANCH  19  20
BRANCH  22  23
ATOM     23  O   UNL     1      45.643  14.244  19.779  0.00  0.00    -0.317 OA
ATOM     24  C   UNL     1      45.920  14.486  18.398  0.00  0.00    +0.218 C 
ENDBRANCH  22  23
ENDBRANCH  14  15
BRANCH   3   2
ATOM      1  C   UNL     1      45.596  21.197  18.725  0.00  0.00    +0.249 C 
ATOM      2  O   UNL     1      44.965  19.945  18.447  0.00  0.00    -0.275 OA
ENDBRANCH   3   2
BRANCH   5   6
ATOM      6  O   UNL     1      40.477  20.672  19.831  0.00  0.00    -0.292 OA
ATOM      7  C   UNL     1      40.268  21.417  18.630  0.00  0.00    +0.254 C 
ENDBRANCH   5   6
BRANCH   8   9
ATOM      9  O   UNL     1      40.647  18.574  21.587  0.00  0.00    -0.465 OA
ATOM     10  H   UNL     1      39.871  18.292  21.082  0.00  0.00    +0.384 HD
ENDBRANCH   8   9
TORSDOF 6
ENDMDL
MODEL 7
REMARK VINA RESULT:      -5.0      3.064      5.700
REMARK  Name = ZINC14645890
REMARK  9 active torsions:
REMARK  status: ('A' for Active; 'I' for Inactive)
REMARK    1  A    between atoms: C1_1  and  O1_2
REMARK    2  A    between atoms: O1_2  and  C2_3
REMARK    3  A    between atoms: C4_5  and  O7_24
REMARK    4  A    between atoms: C5_6  and  O6_23
REMARK    5  A    between atoms: C9_11  and  C11_14
REMARK    6  A    between atoms: C15_18  and  O5_22
REMARK    7  A    between atoms: C16_19  and  O4_20
REMARK    8  A    between atoms: O4_20  and  C17_21
REMARK    9  A    between atoms: O7_24  and  C18_25
REMARK                            x       y       z     vdW  Elec       q    Type
REMARK                         _______ _______ _______ _____ _____    ______ ____
ROOT
ATOM      3  C   UNL     1      45.020  18.035  20.856  0.00  0.00    +0.251 A 
ATOM      4  C   UNL     1      43.641  18.127  20.832  0.00  0.00    -0.170 A 
ATOM      5  C   UNL     1      43.020  19.116  20.077  0.00  0.00    +0.208 A 
ATOM      8  C   UNL     1      43.771  20.020  19.338  0.00  0.00    +0.010 A 
ATOM     11  C   UNL     1      45.160  19.943  19.348  0.00  0.00    +0.196 A 
ATOM     12  O   UNL     1      45.899  20.816  18.635  0.00  0.00    -0.205 OA
ATOM     13  C   UNL     1      47.235  20.796  18.608  0.00  0.00    +0.326 A 
ATOM     14  C   UNL     1      47.964  19.880  19.296  0.00  0.00    -0.231 A 
ATOM     25  C   UNL     1      47.256  18.877  20.111  0.00  0.00    +0.435 A 
ATOM     26  O   UNL     1      47.860  18.034  20.752  0.00  0.00    -0.423 OA
ATOM     27  C   UNL     1      45.786  18.942  20.114  0.00  0.00    -0.277 A 
ENDROOT
BRANCH  14  15
ATOM     15  C   UNL     1      49.446  19.893  19.232  0.00  0.00    -0.033 A 
ATOM     16  C   UNL     1      50.176  20.716  20.088  0.00  0.00    +0.031 A 
ATOM     17  C   UNL     1      51.555  20.726  20.027  0.00  0.00    +0.028 A 
ATOM     18  C   UNL     1      52.219  19.921  19.118  0.00  0.00    +0.008 A 
ATOM     19  C   UNL     1      51.504  19.093  18.266  0.00  0.00    +0.088 A 
ATOM     22  C   UNL     1      50.115  19.081  18.314  0.00  0.00    +0.098 A 
BRANCH  19  20
ATOM     20  O   UNL     1      52.161  18.300  17.378  0.00  0.00    -0.484 OA
ATOM     21  H   UNL     1      51.608  17.978  16.653  0.00  0.00    +0.386 HD
ENDBRANCH  19  20
BRANCH  22  23
ATOM     23  O   UNL     1      49.410  18.275  17.476  0.00  0.00    -0.317 OA
ATOM     24  C   UNL     1      49.372  16.882  17.796  0.00  0.00    +0.218 C 
ENDBRANCH  22  23
ENDBRANCH  14  15
BRANCH   3   2
ATOM      1  C   UNL     1      45.100  15.747  21.492  0.00  0.00    +0.249 C 
ATOM      2  O   UNL     1      45.629  17.071  21.593  0.00  0.00    -0.275 OA
ENDBRANCH   3   2
BRANCH   5   6
ATOM      6  O   UNL     1      41.664  19.196  20.061  0.00  0.00    -0.292 OA
ATOM      7  C   UNL     1      40.980  18.870  21.272  0.00  0.00    +0.254 C 
ENDBRANCH   5   6
BRANCH   8   9
ATOM      9  O   UNL     1      43.149  20.981  18.603  0.00  0.00    -0.465 OA
ATOM     10  H   UNL     1      43.184  21.864  18.998  0.00  0.00    +0.384 HD
ENDBRANCH   8   9
TORSDOF 6
ENDMDL
MODEL 8
REMARK VINA RESULT:      -5.0      3.232      5.049
REMARK  Name = ZINC14645890
REMARK  9 active torsions:
REMARK  status: ('A' for Active; 'I' for Inactive)
REMARK    1  A    between atoms: C1_1  and  O1_2
REMARK    2  A    between atoms: O1_2  and  C2_3
REMARK    3  A    between atoms: C4_5  and  O7_24
REMARK    4  A    between atoms: C5_6  and  O6_23
REMARK    5  A    between atoms: C9_11  and  C11_14
REMARK    6  A    between atoms: C15_18  and  O5_22
REMARK    7  A    between atoms: C16_19  and  O4_20
REMARK    8  A    between atoms: O4_20  and  C17_21
REMARK    9  A    between atoms: O7_24  and  C18_25
REMARK                            x       y       z     vdW  Elec       q    Type
REMARK                         _______ _______ _______ _____ _____    ______ ____
ROOT
ATOM      3  C   UNL     1      48.908  17.369  17.569  0.00  0.00    +0.251 A 
ATOM      4  C   UNL     1      50.140  17.740  17.065  0.00  0.00    -0.170 A 
ATOM      5  C   UNL     1      50.844  18.791  17.641  0.00  0.00    +0.208 A 
ATOM      8  C   UNL     1      50.323  19.481  18.728  0.00  0.00    +0.010 A 
ATOM     11  C   UNL     1      49.085  19.123  19.251  0.00  0.00    +0.196 A 
ATOM     12  O   UNL     1      48.569  19.786  20.305  0.00  0.00    -0.205 OA
ATOM     13  C   UNL     1      47.384  19.492  20.848  0.00  0.00    +0.326 A 
ATOM     14  C   UNL     1      46.599  18.485  20.385  0.00  0.00    -0.231 A 
ATOM     25  C   UNL     1      47.067  17.695  19.233  0.00  0.00    +0.435 A 
ATOM     26  O   UNL     1      46.402  16.783  18.773  0.00  0.00    -0.423 OA
ATOM     27  C   UNL     1      48.374  18.059  18.665  0.00  0.00    -0.277 A 
ENDROOT
BRANCH  14  15
ATOM     15  C   UNL     1      45.294  18.192  21.023  0.00  0.00    -0.033 A 
ATOM     16  C   UNL     1      45.161  17.094  21.872  0.00  0.00    +0.031 A 
ATOM     17  C   UNL     1      43.945  16.823  22.466  0.00  0.00    +0.028 A 
ATOM     18  C   UNL     1      42.853  17.638  22.223  0.00  0.00    +0.008 A 
ATOM     19  C   UNL     1      42.974  18.736  21.385  0.00  0.00    +0.088 A 
ATOM     22  C   UNL     1      44.192  19.014  20.777  0.00  0.00    +0.098 A 
BRANCH  19  20
ATOM     20  O   UNL     1      41.899  19.537  21.154  0.00  0.00    -0.484 OA
ATOM     21  H   UNL     1      41.049  19.079  21.208  0.00  0.00    +0.386 HD
ENDBRANCH  19  20
BRANCH  22  23
ATOM     23  O   UNL     1      44.313  20.087  19.950  0.00  0.00    -0.317 OA
ATOM     24  C   UNL     1      43.974  19.888  18.576  0.00  0.00    +0.218 C 
ENDBRANCH  22  23
ENDBRANCH  14  15
BRANCH   3   2
ATOM      1  C   UNL     1      48.851  15.061  17.007  0.00  0.00    +0.249 C 
ATOM      2  O   UNL     1      48.219  16.343  17.007  0.00  0.00    -0.275 OA
ENDBRANCH   3   2
BRANCH   5   6
ATOM      6  O   UNL     1      52.054  19.146  17.137  0.00  0.00    -0.292 OA
ATOM      7  C   UNL     1      52.063  19.795  15.864  0.00  0.00    +0.254 C 
ENDBRANCH   5   6
BRANCH   8   9
ATOM      9  O   UNL     1      51.024  20.508  19.282  0.00  0.00    -0.465 OA
ATOM     10  H   UNL     1      50.601  21.372  19.182  0.00  0.00    +0.384 HD
ENDBRANCH   8   9
TORSDOF 6
ENDMDL
MODEL 9
REMARK VINA RESULT:      -4.9      2.736      7.680
REMARK  Name = ZINC14645890
REMARK  9 active torsions:
REMARK  status: ('A' for Active; 'I' for Inactive)
REMARK    1  A    between atoms: C1_1  and  O1_2
REMARK    2  A    between atoms: O1_2  and  C2_3
REMARK    3  A    between atoms: C4_5  and  O7_24
REMARK    4  A    between atoms: C5_6  and  O6_23
REMARK    5  A    between atoms: C9_11  and  C11_14
REMARK    6  A    between atoms: C15_18  and  O5_22
REMARK    7  A    between atoms: C16_19  and  O4_20
REMARK    8  A    between atoms: O4_20  and  C17_21
REMARK    9  A    between atoms: O7_24  and  C18_25
REMARK                            x       y       z     vdW  Elec       q    Type
REMARK                         _______ _______ _______ _____ _____    ______ ____
ROOT
ATOM      3  C   UNL     1      45.487  16.986  19.002  0.00  0.00    +0.251 A 
ATOM      4  C   UNL     1      44.771  17.279  20.148  0.00  0.00    -0.170 A 
ATOM      5  C   UNL     1      44.605  16.313  21.134  0.00  0.00    +0.208 A 
ATOM      8  C   UNL     1      45.154  15.046  20.984  0.00  0.00    +0.010 A 
ATOM     11  C   UNL     1      45.879  14.733  19.840  0.00  0.00    +0.196 A 
ATOM     12  O   UNL     1      46.416  13.506  19.684  0.00  0.00    -0.205 OA
ATOM     13  C   UNL     1      47.117  13.143  18.605  0.00  0.00    +0.326 A 
ATOM     14  C   UNL     1      47.357  13.993  17.572  0.00  0.00    -0.231 A 
ATOM     25  C   UNL     1      46.814  15.361  17.639  0.00  0.00    +0.435 A 
ATOM     26  O   UNL     1      46.995  16.163  16.739  0.00  0.00    -0.423 OA
ATOM     27  C   UNL     1      46.044  15.712  18.843  0.00  0.00    -0.277 A 
ENDROOT
BRANCH  14  15
ATOM     15  C   UNL     1      48.145  13.548  16.398  0.00  0.00    -0.033 A 
ATOM     16  C   UNL     1      47.508  12.950  15.313  0.00  0.00    +0.031 A 
ATOM     17  C   UNL     1      48.243  12.537  14.220  0.00  0.00    +0.028 A 
ATOM     18  C   UNL     1      49.616  12.714  14.197  0.00  0.00    +0.008 A 
ATOM     19  C   UNL     1      50.261  13.313  15.268  0.00  0.00    +0.088 A 
ATOM     22  C   UNL     1      49.530  13.726  16.375  0.00  0.00    +0.098 A 
BRANCH  19  20
ATOM     20  O   UNL     1      51.609  13.490  15.237  0.00  0.00    -0.484 OA
ATOM     21  H   UNL     1      51.916  14.052  14.513  0.00  0.00    +0.386 HD
ENDBRANCH  19  20
BRANCH  22  23
ATOM     23  O   UNL     1      50.160  14.309  17.430  0.00  0.00    -0.317 OA
ATOM     24  C   UNL     1      50.498  15.692  17.300  0.00  0.00    +0.218 C 
ENDBRANCH  22  23
ENDBRANCH  14  15
BRANCH   3   2
ATOM      1  C   UNL     1      45.223  19.256  18.350  0.00  0.00    +0.249 C 
ATOM      2  O   UNL     1      45.649  17.928  18.038  0.00  0.00    -0.275 OA
ENDBRANCH   3   2
BRANCH   5   6
ATOM      6  O   UNL     1      43.900  16.612  22.256  0.00  0.00    -0.292 OA
ATOM      7  C   UNL     1      42.850  17.572  22.126  0.00  0.00    +0.254 C 
ENDBRANCH   5   6
BRANCH   8   9
ATOM      9  O   UNL     1      44.983  14.111  21.959  0.00  0.00    -0.465 OA
ATOM     10  H   UNL     1      45.660  14.135  22.650  0.00  0.00    +0.384 HD
ENDBRANCH   8   9
TORSDOF 6
ENDMDL
