MODEL 1
REMARK VINA RESULT:      -5.5      0.000      0.000
REMARK  Name = ZINC95486159
REMARK  13 active torsions:
REMARK  status: ('A' for Active; 'I' for Inactive)
REMARK    1  A    between atoms: C1_1  and  C2_2
REMARK    2  A    between atoms: C6_6  and  O1_8
REMARK    3  A    between atoms: O1_8  and  C8_9
REMARK    4  A    between atoms: C9_10  and  O4_32
REMARK    5  A    between atoms: C11_12  and  C26_31
REMARK    6  A    between atoms: C12_13  and  C13_14
REMARK    7  A    between atoms: C14_15  and  O3_29
REMARK    8  A    between atoms: C16_17  and  O2_27
REMARK    9  A    between atoms: C20_21  and  C23_26
REMARK   10  A    between atoms: C21_24  and  C22_25
REMARK   11  A    between atoms: O2_27  and  C24_28
REMARK   12  A    between atoms: O3_29  and  C25_30
REMARK   13  A    between atoms: O4_32  and  C27_33
REMARK                            x       y       z     vdW  Elec       q    Type
REMARK                         _______ _______ _______ _____ _____    ______ ____
ROOT
ATOM      1  C   UNL     1      47.721  18.114  16.322  0.00  0.00    +0.091 C 
ATOM      2  C   UNL     1      46.989  17.381  17.416  0.00  0.00    -0.024 A 
ATOM      3  C   UNL     1      46.347  18.091  18.386  0.00  0.00    -0.034 A 
ATOM      4  C   UNL     1      45.662  17.419  19.409  0.00  0.00    +0.048 A 
ATOM      5  C   UNL     1      45.645  16.004  19.424  0.00  0.00    -0.104 A 
ATOM      6  C   UNL     1      44.956  15.328  20.452  0.00  0.00    +0.176 A 
ATOM      9  C   UNL     1      44.307  16.048  21.430  0.00  0.00    -0.108 A 
ATOM     10  C   UNL     1      44.319  17.437  21.421  0.00  0.00    -0.005 A 
ATOM     11  C   UNL     1      43.598  18.195  22.505  0.00  0.00    +0.092 C 
ATOM     12  C   UNL     1      46.318  15.295  18.410  0.00  0.00    +0.172 A 
ATOM     15  C   UNL     1      44.986  18.133  20.428  0.00  0.00    -0.077 A 
ATOM     32  C   UNL     1      46.974  15.990  17.419  0.00  0.00    -0.111 A 
ENDROOT
BRANCH  15  16
ATOM     16  C   UNL     1      44.992  19.613  20.430  0.00  0.00    -0.098 A 
ATOM     17  C   UNL     1      46.038  20.314  21.051  0.00  0.00    +0.202 A 
ATOM     20  C   UNL     1      46.046  21.699  21.054  0.00  0.00    -0.170 A 
ATOM     21  C   UNL     1      45.021  22.405  20.444  0.00  0.00    +0.208 A 
ATOM     24  C   UNL     1      43.974  21.712  19.822  0.00  0.00    -0.187 A 
ATOM     25  C   UNL     1      42.870  22.427  19.162  0.00  0.00    +0.232 C 
ATOM     26  C   UNL     1      43.035  23.871  18.765  0.00  0.00    +0.137 C 
ATOM     27  N   UNL     1      41.764  21.812  18.911  0.00  0.00    -0.524 NA
ATOM     28  C   UNL     1      41.549  20.419  19.290  0.00  0.00    +0.150 C 
ATOM     29  C   UNL     1      40.460  19.822  18.397  0.00  0.00    +0.052 C 
ATOM     30  C   UNL     1      42.829  19.601  19.134  0.00  0.00    +0.078 C 
ATOM     31  C   UNL     1      43.967  20.315  19.814  0.00  0.00    +0.028 A 
BRANCH  17  18
ATOM     18  O   UNL     1      47.047  19.631  21.649  0.00  0.00    -0.297 OA
ATOM     19  C   UNL     1      48.356  19.795  21.101  0.00  0.00    +0.241 C 
ENDBRANCH  17  18
BRANCH  21  22
ATOM     22  O   UNL     1      45.032  23.761  20.449  0.00  0.00    -0.299 OA
ATOM     23  C   UNL     1      46.145  24.399  21.079  0.00  0.00    +0.240 C 
ENDBRANCH  21  22
ENDBRANCH  15  16
BRANCH   6   7
ATOM      7  O   UNL     1      44.933  13.971  20.477  0.00  0.00    -0.290 OA
ATOM      8  C   UNL     1      45.184  13.340  21.734  0.00  0.00    +0.238 C 
ENDBRANCH   6   7
BRANCH  12  13
ATOM     13  O   UNL     1      46.314  13.936  18.407  0.00  0.00    -0.291 OA
ATOM     14  C   UNL     1      46.298  13.290  17.132  0.00  0.00    +0.237 C 
ENDBRANCH  12  13
TORSDOF 5
ENDMDL
MODEL 2
REMARK VINA RESULT:      -5.1      5.035      9.185
REMARK  Name = ZINC95486159
REMARK  13 active torsions:
REMARK  status: ('A' for Active; 'I' for Inactive)
REMARK    1  A    between atoms: C1_1  and  C2_2
REMARK    2  A    between atoms: C6_6  and  O1_8
REMARK    3  A    between atoms: O1_8  and  C8_9
REMARK    4  A    between atoms: C9_10  and  O4_32
REMARK    5  A    between atoms: C11_12  and  C26_31
REMARK    6  A    between atoms: C12_13  and  C13_14
REMARK    7  A    between atoms: C14_15  and  O3_29
REMARK    8  A    between atoms: C16_17  and  O2_27
REMARK    9  A    between atoms: C20_21  and  C23_26
REMARK   10  A    between atoms: C21_24  and  C22_25
REMARK   11  A    between atoms: O2_27  and  C24_28
REMARK   12  A    between atoms: O3_29  and  C25_30
REMARK   13  A    between atoms: O4_32  and  C27_33
REMARK                            x       y       z     vdW  Elec       q    Type
REMARK                         _______ _______ _______ _____ _____    ______ ____
ROOT
ATOM      1  C   UNL     1      51.988  19.518  15.454  0.00  0.00    +0.091 C 
ATOM      2  C   UNL     1      51.507  19.392  16.877  0.00  0.00    -0.024 A 
ATOM      3  C   UNL     1      50.930  18.229  17.289  0.00  0.00    -0.034 A 
ATOM      4  C   UNL     1      50.478  18.101  18.611  0.00  0.00    +0.048 A 
ATOM      5  C   UNL     1      50.629  19.186  19.507  0.00  0.00    -0.104 A 
ATOM      6  C   UNL     1      50.176  19.058  20.836  0.00  0.00    +0.176 A 
ATOM      9  C   UNL     1      49.594  17.880  21.251  0.00  0.00    -0.108 A 
ATOM     10  C   UNL     1      49.444  16.811  20.377  0.00  0.00    -0.005 A 
ATOM     11  C   UNL     1      48.804  15.536  20.862  0.00  0.00    +0.092 C 
ATOM     12  C   UNL     1      51.228  20.377  19.054  0.00  0.00    +0.172 A 
ATOM     15  C   UNL     1      49.876  16.903  19.065  0.00  0.00    -0.077 A 
ATOM     32  C   UNL     1      51.664  20.463  17.750  0.00  0.00    -0.111 A 
ENDROOT
BRANCH  15  16
ATOM     16  C   UNL     1      49.710  15.757  18.144  0.00  0.00    -0.098 A 
ATOM     17  C   UNL     1      48.533  15.622  17.389  0.00  0.00    +0.202 A 
ATOM     20  C   UNL     1      48.375  14.551  16.526  0.00  0.00    -0.170 A 
ATOM     21  C   UNL     1      49.378  13.601  16.400  0.00  0.00    +0.208 A 
ATOM     24  C   UNL     1      50.555  13.730  17.149  0.00  0.00    -0.187 A 
ATOM     25  C   UNL     1      51.642  12.744  17.039  0.00  0.00    +0.232 C 
ATOM     26  C   UNL     1      51.716  11.830  15.844  0.00  0.00    +0.137 C 
ATOM     27  N   UNL     1      52.541  12.673  17.961  0.00  0.00    -0.524 NA
ATOM     28  C   UNL     1      52.506  13.525  19.146  0.00  0.00    +0.150 C 
ATOM     29  C   UNL     1      53.918  13.633  19.725  0.00  0.00    +0.052 C 
ATOM     30  C   UNL     1      51.996  14.924  18.804  0.00  0.00    +0.078 C 
ATOM     31  C   UNL     1      50.717  14.813  18.016  0.00  0.00    +0.028 A 
BRANCH  17  18
ATOM     18  O   UNL     1      47.547  16.547  17.506  0.00  0.00    -0.297 OA
ATOM     19  C   UNL     1      46.299  16.100  18.039  0.00  0.00    +0.241 C 
ENDBRANCH  17  18
BRANCH  21  22
ATOM     22  O   UNL     1      49.220  12.553  15.553  0.00  0.00    -0.299 OA
ATOM     23  C   UNL     1      48.285  12.717  14.485  0.00  0.00    +0.240 C 
ENDBRANCH  21  22
ENDBRANCH  15  16
BRANCH   6   7
ATOM      7  O   UNL     1      50.315  20.092  21.705  0.00  0.00    -0.290 OA
ATOM      8  C   UNL     1      49.165  20.453  22.472  0.00  0.00    +0.238 C 
ENDBRANCH   6   7
BRANCH  12  13
ATOM     13  O   UNL     1      51.381  21.431  19.898  0.00  0.00    -0.291 OA
ATOM     14  C   UNL     1      52.718  21.856  20.171  0.00  0.00    +0.237 C 
ENDBRANCH  12  13
TORSDOF 5
ENDMDL
MODEL 3
REMARK VINA RESULT:      -5.1      4.743      7.016
REMARK  Name = ZINC95486159
REMARK  13 active torsions:
REMARK  status: ('A' for Active; 'I' for Inactive)
REMARK    1  A    between atoms: C1_1  and  C2_2
REMARK    2  A    between atoms: C6_6  and  O1_8
REMARK    3  A    between atoms: O1_8  and  C8_9
REMARK    4  A    between atoms: C9_10  and  O4_32
REMARK    5  A    between atoms: C11_12  and  C26_31
REMARK    6  A    between atoms: C12_13  and  C13_14
REMARK    7  A    between atoms: C14_15  and  O3_29
REMARK    8  A    between atoms: C16_17  and  O2_27
REMARK    9  A    between atoms: C20_21  and  C23_26
REMARK   10  A    between atoms: C21_24  and  C22_25
REMARK   11  A    between atoms: O2_27  and  C24_28
REMARK   12  A    between atoms: O3_29  and  C25_30
REMARK   13  A    between atoms: O4_32  and  C27_33
REMARK                            x       y       z     vdW  Elec       q    Type
REMARK                         _______ _______ _______ _____ _____    ______ ____
ROOT
ATOM      1  C   UNL     1      46.224  17.144  17.660  0.00  0.00    +0.091 C 
ATOM      2  C   UNL     1      47.395  16.198  17.577  0.00  0.00    -0.024 A 
ATOM      3  C   UNL     1      48.546  16.496  18.242  0.00  0.00    -0.034 A 
ATOM      4  C   UNL     1      49.641  15.623  18.172  0.00  0.00    +0.048 A 
ATOM      5  C   UNL     1      49.539  14.436  17.408  0.00  0.00    -0.104 A 
ATOM      6  C   UNL     1      50.639  13.558  17.338  0.00  0.00    +0.176 A 
ATOM      9  C   UNL     1      51.801  13.860  18.012  0.00  0.00    -0.108 A 
ATOM     10  C   UNL     1      51.908  15.023  18.765  0.00  0.00    -0.005 A 
ATOM     11  C   UNL     1      53.194  15.324  19.491  0.00  0.00    +0.092 C 
ATOM     12  C   UNL     1      48.337  14.153  16.730  0.00  0.00    +0.172 A 
ATOM     15  C   UNL     1      50.849  15.908  18.854  0.00  0.00    -0.077 A 
ATOM     32  C   UNL     1      47.281  15.032  16.827  0.00  0.00    -0.111 A 
ENDROOT
BRANCH  15  16
ATOM     16  C   UNL     1      50.976  17.144  19.659  0.00  0.00    -0.098 A 
ATOM     17  C   UNL     1      50.609  17.146  21.014  0.00  0.00    +0.202 A 
ATOM     20  C   UNL     1      50.728  18.301  21.768  0.00  0.00    -0.170 A 
ATOM     21  C   UNL     1      51.210  19.466  21.191  0.00  0.00    +0.208 A 
ATOM     24  C   UNL     1      51.578  19.472  19.840  0.00  0.00    -0.187 A 
ATOM     25  C   UNL     1      52.096  20.688  19.193  0.00  0.00    +0.232 C 
ATOM     26  C   UNL     1      52.640  21.816  20.032  0.00  0.00    +0.137 C 
ATOM     27  N   UNL     1      52.098  20.782  17.907  0.00  0.00    -0.524 NA
ATOM     28  C   UNL     1      51.568  19.725  17.052  0.00  0.00    +0.150 C 
ATOM     29  C   UNL     1      52.203  19.839  15.665  0.00  0.00    +0.052 C 
ATOM     30  C   UNL     1      51.872  18.343  17.630  0.00  0.00    +0.078 C 
ATOM     31  C   UNL     1      51.464  18.305  19.079  0.00  0.00    +0.028 A 
BRANCH  17  18
ATOM     18  O   UNL     1      50.138  16.009  21.587  0.00  0.00    -0.297 OA
ATOM     19  C   UNL     1      48.761  16.001  21.973  0.00  0.00    +0.241 C 
ENDBRANCH  17  18
BRANCH  21  22
ATOM     22  O   UNL     1      51.324  20.596  21.933  0.00  0.00    -0.299 OA
ATOM     23  C   UNL     1      50.124  21.122  22.505  0.00  0.00    +0.240 C 
ENDBRANCH  21  22
ENDBRANCH  15  16
BRANCH   6   7
ATOM      7  O   UNL     1      50.553  12.416  16.608  0.00  0.00    -0.290 OA
ATOM      8  C   UNL     1      51.660  12.101  15.762  0.00  0.00    +0.238 C 
ENDBRANCH   6   7
BRANCH  12  13
ATOM     13  O   UNL     1      48.219  13.020  15.990  0.00  0.00    -0.291 OA
ATOM     14  C   UNL     1      47.040  12.236  16.188  0.00  0.00    +0.237 C 
ENDBRANCH  12  13
TORSDOF 5
ENDMDL
MODEL 4
REMARK VINA RESULT:      -4.8      4.656      9.569
REMARK  Name = ZINC95486159
REMARK  13 active torsions:
REMARK  status: ('A' for Active; 'I' for Inactive)
REMARK    1  A    between atoms: C1_1  and  C2_2
REMARK    2  A    between atoms: C6_6  and  O1_8
REMARK    3  A    between atoms: O1_8  and  C8_9
REMARK    4  A    between atoms: C9_10  and  O4_32
REMARK    5  A    between atoms: C11_12  and  C26_31
REMARK    6  A    between atoms: C12_13  and  C13_14
REMARK    7  A    between atoms: C14_15  and  O3_29
REMARK    8  A    between atoms: C16_17  and  O2_27
REMARK    9  A    between atoms: C20_21  and  C23_26
REMARK   10  A    between atoms: C21_24  and  C22_25
REMARK   11  A    between atoms: O2_27  and  C24_28
REMARK   12  A    between atoms: O3_29  and  C25_30
REMARK   13  A    between atoms: O4_32  and  C27_33
REMARK                            x       y       z     vdW  Elec       q    Type
REMARK                         _______ _______ _______ _____ _____    ______ ____
ROOT
ATOM      1  C   UNL     1      50.938  17.876  16.880  0.00  0.00    +0.091 C 
ATOM      2  C   UNL     1      49.664  17.265  17.407  0.00  0.00    -0.024 A 
ATOM      3  C   UNL     1      49.449  15.929  17.256  0.00  0.00    -0.034 A 
ATOM      4  C   UNL     1      48.268  15.350  17.742  0.00  0.00    +0.048 A 
ATOM      5  C   UNL     1      47.307  16.164  18.388  0.00  0.00    -0.104 A 
ATOM      6  C   UNL     1      46.120  15.582  18.878  0.00  0.00    +0.176 A 
ATOM      9  C   UNL     1      45.906  14.231  18.726  0.00  0.00    -0.108 A 
ATOM     10  C   UNL     1      46.845  13.425  18.093  0.00  0.00    -0.005 A 
ATOM     11  C   UNL     1      46.579  11.950  17.942  0.00  0.00    +0.092 C 
ATOM     12  C   UNL     1      47.555  17.543  18.531  0.00  0.00    +0.172 A 
ATOM     15  C   UNL     1      48.020  13.963  17.599  0.00  0.00    -0.077 A 
ATOM     32  C   UNL     1      48.730  18.074  18.045  0.00  0.00    -0.111 A 
ENDROOT
BRANCH  15  16
ATOM     16  C   UNL     1      49.012  13.095  16.926  0.00  0.00    -0.098 A 
ATOM     17  C   UNL     1      48.894  12.820  15.554  0.00  0.00    +0.202 A 
ATOM     20  C   UNL     1      49.821  12.008  14.922  0.00  0.00    -0.170 A 
ATOM     21  C   UNL     1      50.873  11.459  15.639  0.00  0.00    +0.208 A 
ATOM     24  C   UNL     1      50.997  11.730  17.007  0.00  0.00    -0.187 A 
ATOM     25  C   UNL     1      52.103  11.168  17.801  0.00  0.00    +0.232 C 
ATOM     26  C   UNL     1      53.341  10.654  17.114  0.00  0.00    +0.137 C 
ATOM     27  N   UNL     1      52.016  11.130  19.087  0.00  0.00    -0.524 NA
ATOM     28  C   UNL     1      50.833  11.600  19.799  0.00  0.00    +0.150 C 
ATOM     29  C   UNL     1      51.224  11.965  21.232  0.00  0.00    +0.052 C 
ATOM     30  C   UNL     1      50.230  12.827  19.117  0.00  0.00    +0.078 C 
ATOM     31  C   UNL     1      50.066  12.553  17.645  0.00  0.00    +0.028 A 
BRANCH  17  18
ATOM     18  O   UNL     1      47.868  13.353  14.844  0.00  0.00    -0.297 OA
ATOM     19  C   UNL     1      47.706  12.901  13.498  0.00  0.00    +0.241 C 
ENDBRANCH  17  18
BRANCH  21  22
ATOM     22  O   UNL     1      51.779  10.664  15.017  0.00  0.00    -0.299 OA
ATOM     23  C   UNL     1      51.505  10.304  13.661  0.00  0.00    +0.240 C 
ENDBRANCH  21  22
ENDBRANCH  15  16
BRANCH   6   7
ATOM      7  O   UNL     1      45.192  16.353  19.501  0.00  0.00    -0.290 OA
ATOM      8  C   UNL     1      44.729  15.907  20.777  0.00  0.00    +0.238 C 
ENDBRANCH   6   7
BRANCH  12  13
ATOM     13  O   UNL     1      46.645  18.342  19.147  0.00  0.00    -0.291 OA
ATOM     14  C   UNL     1      46.190  19.486  18.422  0.00  0.00    +0.237 C 
ENDBRANCH  12  13
TORSDOF 5
ENDMDL
MODEL 5
REMARK VINA RESULT:      -4.6      5.020      8.701
REMARK  Name = ZINC95486159
REMARK  13 active torsions:
REMARK  status: ('A' for Active; 'I' for Inactive)
REMARK    1  A    between atoms: C1_1  and  C2_2
REMARK    2  A    between atoms: C6_6  and  O1_8
REMARK    3  A    between atoms: O1_8  and  C8_9
REMARK    4  A    between atoms: C9_10  and  O4_32
REMARK    5  A    between atoms: C11_12  and  C26_31
REMARK    6  A    between atoms: C12_13  and  C13_14
REMARK    7  A    between atoms: C14_15  and  O3_29
REMARK    8  A    between atoms: C16_17  and  O2_27
REMARK    9  A    between atoms: C20_21  and  C23_26
REMARK   10  A    between atoms: C21_24  and  C22_25
REMARK   11  A    between atoms: O2_27  and  C24_28
REMARK   12  A    between atoms: O3_29  and  C25_30
REMARK   13  A    between atoms: O4_32  and  C27_33
REMARK                            x       y       z     vdW  Elec       q    Type
REMARK                         _______ _______ _______ _____ _____    ______ ____
ROOT
ATOM      1  C   UNL     1      52.189  19.404  15.586  0.00  0.00    +0.091 C 
ATOM      2  C   UNL     1      51.873  19.323  17.058  0.00  0.00    -0.024 A 
ATOM      3  C   UNL     1      51.528  18.124  17.605  0.00  0.00    -0.034 A 
ATOM      4  C   UNL     1      51.233  18.037  18.973  0.00  0.00    +0.048 A 
ATOM      5  C   UNL     1      51.296  19.201  19.775  0.00  0.00    -0.104 A 
ATOM      6  C   UNL     1      51.000  19.114  21.150  0.00  0.00    +0.176 A 
ATOM      9  C   UNL     1      50.653  17.901  21.702  0.00  0.00    -0.108 A 
ATOM     10  C   UNL     1      50.590  16.754  20.920  0.00  0.00    -0.005 A 
ATOM     11  C   UNL     1      50.207  15.441  21.554  0.00  0.00    +0.092 C 
ATOM     12  C   UNL     1      51.655  20.428  19.184  0.00  0.00    +0.172 A 
ATOM     15  C   UNL     1      50.873  16.803  19.567  0.00  0.00    -0.077 A 
ATOM     32  C   UNL     1      51.944  20.472  17.837  0.00  0.00    -0.111 A 
ENDROOT
BRANCH  15  16
ATOM     16  C   UNL     1      50.800  15.574  18.745  0.00  0.00    -0.098 A 
ATOM     17  C   UNL     1      51.929  14.752  18.602  0.00  0.00    +0.202 A 
ATOM     20  C   UNL     1      51.863  13.602  17.834  0.00  0.00    -0.170 A 
ATOM     21  C   UNL     1      50.682  13.251  17.199  0.00  0.00    +0.208 A 
ATOM     24  C   UNL     1      49.551  14.066  17.338  0.00  0.00    -0.187 A 
ATOM     25  C   UNL     1      48.278  13.726  16.682  0.00  0.00    +0.232 C 
ATOM     26  C   UNL     1      48.024  12.318  16.208  0.00  0.00    +0.137 C 
ATOM     27  N   UNL     1      47.373  14.632  16.524  0.00  0.00    -0.524 NA
ATOM     28  C   UNL     1      47.576  16.013  16.950  0.00  0.00    +0.150 C 
ATOM     29  C   UNL     1      46.214  16.673  17.171  0.00  0.00    +0.052 C 
ATOM     30  C   UNL     1      48.380  16.077  18.248  0.00  0.00    +0.078 C 
ATOM     31  C   UNL     1      49.615  15.225  18.117  0.00  0.00    +0.028 A 
BRANCH  17  18
ATOM     18  O   UNL     1      53.090  15.086  19.221  0.00  0.00    -0.297 OA
ATOM     19  C   UNL     1      53.957  14.014  19.596  0.00  0.00    +0.241 C 
ENDBRANCH  17  18
BRANCH  21  22
ATOM     22  O   UNL     1      50.621  12.124  16.448  0.00  0.00    -0.299 OA
ATOM     23  C   UNL     1      51.574  11.098  16.737  0.00  0.00    +0.240 C 
ENDBRANCH  21  22
ENDBRANCH  15  16
BRANCH   6   7
ATOM      7  O   UNL     1      51.059  20.224  21.930  0.00  0.00    -0.290 OA
ATOM      8  C   UNL     1      49.832  20.678  22.505  0.00  0.00    +0.238 C 
ENDBRANCH   6   7
BRANCH  12  13
ATOM     13  O   UNL     1      51.721  21.557  19.936  0.00  0.00    -0.291 OA
ATOM     14  C   UNL     1      52.992  22.207  20.021  0.00  0.00    +0.237 C 
ENDBRANCH  12  13
TORSDOF 5
ENDMDL
MODEL 6
REMARK VINA RESULT:      -4.5      3.415      6.607
REMARK  Name = ZINC95486159
REMARK  13 active torsions:
REMARK  status: ('A' for Active; 'I' for Inactive)
REMARK    1  A    between atoms: C1_1  and  C2_2
REMARK    2  A    between atoms: C6_6  and  O1_8
REMARK    3  A    between atoms: O1_8  and  C8_9
REMARK    4  A    between atoms: C9_10  and  O4_32
REMARK    5  A    between atoms: C11_12  and  C26_31
REMARK    6  A    between atoms: C12_13  and  C13_14
REMARK    7  A    between atoms: C14_15  and  O3_29
REMARK    8  A    between atoms: C16_17  and  O2_27
REMARK    9  A    between atoms: C20_21  and  C23_26
REMARK   10  A    between atoms: C21_24  and  C22_25
REMARK   11  A    between atoms: O2_27  and  C24_28
REMARK   12  A    between atoms: O3_29  and  C25_30
REMARK   13  A    between atoms: O4_32  and  C27_33
REMARK                            x       y       z     vdW  Elec       q    Type
REMARK                         _______ _______ _______ _____ _____    ______ ____
ROOT
ATOM      1  C   UNL     1      45.396  21.626  19.074  0.00  0.00    +0.091 C 
ATOM      2  C   UNL     1      45.475  20.281  19.750  0.00  0.00    -0.024 A 
ATOM      3  C   UNL     1      46.530  19.460  19.488  0.00  0.00    -0.034 A 
ATOM      4  C   UNL     1      46.613  18.206  20.112  0.00  0.00    +0.048 A 
ATOM      5  C   UNL     1      45.597  17.806  21.012  0.00  0.00    -0.104 A 
ATOM      6  C   UNL     1      45.681  16.547  21.640  0.00  0.00    +0.176 A 
ATOM      9  C   UNL     1      46.749  15.718  21.375  0.00  0.00    -0.108 A 
ATOM     10  C   UNL     1      47.750  16.105  20.493  0.00  0.00    -0.005 A 
ATOM     11  C   UNL     1      48.906  15.175  20.224  0.00  0.00    +0.092 C 
ATOM     12  C   UNL     1      44.518  18.675  21.264  0.00  0.00    +0.172 A 
ATOM     15  C   UNL     1      47.699  17.333  19.858  0.00  0.00    -0.077 A 
ATOM     32  C   UNL     1      44.473  19.900  20.637  0.00  0.00    -0.111 A 
ENDROOT
BRANCH  15  16
ATOM     16  C   UNL     1      48.772  17.733  18.920  0.00  0.00    -0.098 A 
ATOM     17  C   UNL     1      48.775  17.248  17.602  0.00  0.00    +0.202 A 
ATOM     20  C   UNL     1      49.778  17.621  16.723  0.00  0.00    -0.170 A 
ATOM     21  C   UNL     1      50.788  18.476  17.136  0.00  0.00    +0.208 A 
ATOM     24  C   UNL     1      50.791  18.964  18.449  0.00  0.00    -0.187 A 
ATOM     25  C   UNL     1      51.845  19.876  18.924  0.00  0.00    +0.232 C 
ATOM     26  C   UNL     1      52.688  20.637  17.934  0.00  0.00    +0.137 C 
ATOM     27  N   UNL     1      52.036  20.034  20.189  0.00  0.00    -0.524 NA
ATOM     28  C   UNL     1      51.258  19.309  21.188  0.00  0.00    +0.150 C 
ATOM     29  C   UNL     1      51.288  20.086  22.505  0.00  0.00    +0.052 C 
ATOM     30  C   UNL     1      49.807  19.138  20.740  0.00  0.00    +0.078 C 
ATOM     31  C   UNL     1      49.777  18.593  19.336  0.00  0.00    +0.028 A 
BRANCH  17  18
ATOM     18  O   UNL     1      47.790  16.412  17.189  0.00  0.00    -0.297 OA
ATOM     19  C   UNL     1      46.631  17.013  16.607  0.00  0.00    +0.241 C 
ENDBRANCH  17  18
BRANCH  21  22
ATOM     22  O   UNL     1      51.769  18.839  16.272  0.00  0.00    -0.299 OA
ATOM     23  C   UNL     1      52.272  17.826  15.399  0.00  0.00    +0.240 C 
ENDBRANCH  21  22
ENDBRANCH  15  16
BRANCH   6   7
ATOM      7  O   UNL     1      44.712  16.152  22.505  0.00  0.00    -0.290 OA
ATOM      8  C   UNL     1      44.357  14.768  22.495  0.00  0.00    +0.238 C 
ENDBRANCH   6   7
BRANCH  12  13
ATOM     13  O   UNL     1      43.531  18.310  22.124  0.00  0.00    -0.291 OA
ATOM     14  C   UNL     1      42.188  18.383  21.639  0.00  0.00    +0.237 C 
ENDBRANCH  12  13
TORSDOF 5
ENDMDL
MODEL 7
REMARK VINA RESULT:      -4.5      5.258      9.456
REMARK  Name = ZINC95486159
REMARK  13 active torsions:
REMARK  status: ('A' for Active; 'I' for Inactive)
REMARK    1  A    between atoms: C1_1  and  C2_2
REMARK    2  A    between atoms: C6_6  and  O1_8
REMARK    3  A    between atoms: O1_8  and  C8_9
REMARK    4  A    between atoms: C9_10  and  O4_32
REMARK    5  A    between atoms: C11_12  and  C26_31
REMARK    6  A    between atoms: C12_13  and  C13_14
REMARK    7  A    between atoms: C14_15  and  O3_29
REMARK    8  A    between atoms: C16_17  and  O2_27
REMARK    9  A    between atoms: C20_21  and  C23_26
REMARK   10  A    between atoms: C21_24  and  C22_25
REMARK   11  A    between atoms: O2_27  and  C24_28
REMARK   12  A    between atoms: O3_29  and  C25_30
REMARK   13  A    between atoms: O4_32  and  C27_33
REMARK                            x       y       z     vdW  Elec       q    Type
REMARK                         _______ _______ _______ _____ _____    ______ ____
ROOT
ATOM      1  C   UNL     1      51.727  18.255  17.104  0.00  0.00    +0.091 C 
ATOM      2  C   UNL     1      50.437  17.573  17.481  0.00  0.00    -0.024 A 
ATOM      3  C   UNL     1      50.437  16.236  17.743  0.00  0.00    -0.034 A 
ATOM      4  C   UNL     1      49.243  15.591  18.095  0.00  0.00    +0.048 A 
ATOM      5  C   UNL     1      48.044  16.339  18.176  0.00  0.00    -0.104 A 
ATOM      6  C   UNL     1      46.843  15.691  18.531  0.00  0.00    +0.176 A 
ATOM      9  C   UNL     1      46.846  14.340  18.797  0.00  0.00    -0.108 A 
ATOM     10  C   UNL     1      48.019  13.599  18.720  0.00  0.00    -0.005 A 
ATOM     11  C   UNL     1      47.988  12.122  19.017  0.00  0.00    +0.092 C 
ATOM     12  C   UNL     1      48.072  17.720  17.900  0.00  0.00    +0.172 A 
ATOM     15  C   UNL     1      49.215  14.202  18.373  0.00  0.00    -0.077 A 
ATOM     32  C   UNL     1      49.266  18.319  17.563  0.00  0.00    -0.111 A 
ENDROOT
BRANCH  15  16
ATOM     16  C   UNL     1      50.458  13.402  18.293  0.00  0.00    -0.098 A 
ATOM     17  C   UNL     1      51.272  13.247  19.427  0.00  0.00    +0.202 A 
ATOM     20  C   UNL     1      52.434  12.499  19.355  0.00  0.00    -0.170 A 
ATOM     21  C   UNL     1      52.805  11.896  18.162  0.00  0.00    +0.208 A 
ATOM     24  C   UNL     1      51.998  12.046  17.028  0.00  0.00    -0.187 A 
ATOM     25  C   UNL     1      52.357  11.419  15.745  0.00  0.00    +0.232 C 
ATOM     26  C   UNL     1      53.340  10.277  15.711  0.00  0.00    +0.137 C 
ATOM     27  N   UNL     1      51.818  11.839  14.651  0.00  0.00    -0.524 NA
ATOM     28  C   UNL     1      50.874  12.951  14.629  0.00  0.00    +0.150 C 
ATOM     29  C   UNL     1      50.006  12.844  13.374  0.00  0.00    +0.052 C 
ATOM     30  C   UNL     1      49.974  12.936  15.864  0.00  0.00    +0.078 C 
ATOM     31  C   UNL     1      50.821  12.797  17.101  0.00  0.00    +0.028 A 
BRANCH  17  18
ATOM     18  O   UNL     1      50.916  13.832  20.599  0.00  0.00    -0.297 OA
ATOM     19  C   UNL     1      50.542  12.963  21.670  0.00  0.00    +0.241 C 
ENDBRANCH  17  18
BRANCH  21  22
ATOM     22  O   UNL     1      53.945  11.164  18.095  0.00  0.00    -0.299 OA
ATOM     23  C   UNL     1      54.611  10.885  19.329  0.00  0.00    +0.240 C 
ENDBRANCH  21  22
ENDBRANCH  15  16
BRANCH   6   7
ATOM      7  O   UNL     1      45.687  16.399  18.613  0.00  0.00    -0.290 OA
ATOM      8  C   UNL     1      45.084  16.509  19.904  0.00  0.00    +0.238 C 
ENDBRANCH   6   7
BRANCH  12  13
ATOM     13  O   UNL     1      46.933  18.456  17.972  0.00  0.00    -0.291 OA
ATOM     14  C   UNL     1      46.971  19.635  18.778  0.00  0.00    +0.237 C 
ENDBRANCH  12  13
TORSDOF 5
ENDMDL
MODEL 8
REMARK VINA RESULT:      -4.3      2.771      3.788
REMARK  Name = ZINC95486159
REMARK  13 active torsions:
REMARK  status: ('A' for Active; 'I' for Inactive)
REMARK    1  A    between atoms: C1_1  and  C2_2
REMARK    2  A    between atoms: C6_6  and  O1_8
REMARK    3  A    between atoms: O1_8  and  C8_9
REMARK    4  A    between atoms: C9_10  and  O4_32
REMARK    5  A    between atoms: C11_12  and  C26_31
REMARK    6  A    between atoms: C12_13  and  C13_14
REMARK    7  A    between atoms: C14_15  and  O3_29
REMARK    8  A    between atoms: C16_17  and  O2_27
REMARK    9  A    between atoms: C20_21  and  C23_26
REMARK   10  A    between atoms: C21_24  and  C22_25
REMARK   11  A    between atoms: O2_27  and  C24_28
REMARK   12  A    between atoms: O3_29  and  C25_30
REMARK   13  A    between atoms: O4_32  and  C27_33
REMARK                            x       y       z     vdW  Elec       q    Type
REMARK                         _______ _______ _______ _____ _____    ______ ____
ROOT
ATOM      1  C   UNL     1      46.736  15.033  16.021  0.00  0.00    +0.091 C 
ATOM      2  C   UNL     1      47.526  15.085  17.303  0.00  0.00    -0.024 A 
ATOM      3  C   UNL     1      47.383  16.153  18.137  0.00  0.00    -0.034 A 
ATOM      4  C   UNL     1      48.113  16.212  19.332  0.00  0.00    +0.048 A 
ATOM      5  C   UNL     1      48.996  15.156  19.662  0.00  0.00    -0.104 A 
ATOM      6  C   UNL     1      49.730  15.214  20.865  0.00  0.00    +0.176 A 
ATOM      9  C   UNL     1      49.582  16.293  21.707  0.00  0.00    -0.108 A 
ATOM     10  C   UNL     1      48.716  17.333  21.389  0.00  0.00    -0.005 A 
ATOM     11  C   UNL     1      48.577  18.501  22.332  0.00  0.00    +0.092 C 
ATOM     12  C   UNL     1      49.125  14.064  18.783  0.00  0.00    +0.172 A 
ATOM     15  C   UNL     1      47.982  17.310  20.217  0.00  0.00    -0.077 A 
ATOM     32  C   UNL     1      48.387  14.039  17.620  0.00  0.00    -0.111 A 
ENDROOT
BRANCH  15  16
ATOM     16  C   UNL     1      47.064  18.424  19.890  0.00  0.00    -0.098 A 
ATOM     17  C   UNL     1      47.541  19.554  19.205  0.00  0.00    +0.202 A 
ATOM     20  C   UNL     1      46.685  20.597  18.898  0.00  0.00    -0.170 A 
ATOM     21  C   UNL     1      45.348  20.536  19.263  0.00  0.00    +0.208 A 
ATOM     24  C   UNL     1      44.866  19.412  19.945  0.00  0.00    -0.187 A 
ATOM     25  C   UNL     1      43.453  19.308  20.346  0.00  0.00    +0.232 C 
ATOM     26  C   UNL     1      42.414  20.178  19.685  0.00  0.00    +0.137 C 
ATOM     27  N   UNL     1      43.103  18.463  21.255  0.00  0.00    -0.524 NA
ATOM     28  C   UNL     1      44.072  17.611  21.936  0.00  0.00    +0.150 C 
ATOM     29  C   UNL     1      43.352  16.379  22.489  0.00  0.00    +0.052 C 
ATOM     30  C   UNL     1      45.177  17.160  20.982  0.00  0.00    +0.078 C 
ATOM     31  C   UNL     1      45.728  18.355  20.251  0.00  0.00    +0.028 A 
BRANCH  17  18
ATOM     18  O   UNL     1      48.847  19.622  18.843  0.00  0.00    -0.297 OA
ATOM     19  C   UNL     1      49.536  20.841  19.129  0.00  0.00    +0.241 C 
ENDBRANCH  17  18
BRANCH  21  22
ATOM     22  O   UNL     1      44.512  21.560  18.960  0.00  0.00    -0.299 OA
ATOM     23  C   UNL     1      44.798  22.829  19.553  0.00  0.00    +0.240 C 
ENDBRANCH  21  22
ENDBRANCH  15  16
BRANCH   6   7
ATOM      7  O   UNL     1      50.579  14.206  21.193  0.00  0.00    -0.290 OA
ATOM      8  C   UNL     1      51.869  14.579  21.683  0.00  0.00    +0.238 C 
ENDBRANCH   6   7
BRANCH  12  13
ATOM     13  O   UNL     1      49.968  13.040  19.080  0.00  0.00    -0.291 OA
ATOM     14  C   UNL     1      50.438  12.248  17.988  0.00  0.00    +0.237 C 
ENDBRANCH  12  13
TORSDOF 5
ENDMDL
MODEL 9
REMARK VINA RESULT:      -4.3      3.114      5.996
REMARK  Name = ZINC95486159
REMARK  13 active torsions:
REMARK  status: ('A' for Active; 'I' for Inactive)
REMARK    1  A    between atoms: C1_1  and  C2_2
REMARK    2  A    between atoms: C6_6  and  O1_8
REMARK    3  A    between atoms: O1_8  and  C8_9
REMARK    4  A    between atoms: C9_10  and  O4_32
REMARK    5  A    between atoms: C11_12  and  C26_31
REMARK    6  A    between atoms: C12_13  and  C13_14
REMARK    7  A    between atoms: C14_15  and  O3_29
REMARK    8  A    between atoms: C16_17  and  O2_27
REMARK    9  A    between atoms: C20_21  and  C23_26
REMARK   10  A    between atoms: C21_24  and  C22_25
REMARK   11  A    between atoms: O2_27  and  C24_28
REMARK   12  A    between atoms: O3_29  and  C25_30
REMARK   13  A    between atoms: O4_32  and  C27_33
REMARK                            x       y       z     vdW  Elec       q    Type
REMARK                         _______ _______ _______ _____ _____    ______ ____
ROOT
ATOM      1  C   UNL     1      45.206  23.111  18.496  0.00  0.00    +0.091 C 
ATOM      2  C   UNL     1      44.995  21.894  19.360  0.00  0.00    -0.024 A 
ATOM      3  C   UNL     1      46.075  21.212  19.832  0.00  0.00    -0.034 A 
ATOM      4  C   UNL     1      45.890  20.078  20.637  0.00  0.00    +0.048 A 
ATOM      5  C   UNL     1      44.577  19.654  20.953  0.00  0.00    -0.104 A 
ATOM      6  C   UNL     1      44.391  18.515  21.762  0.00  0.00    +0.176 A 
ATOM      9  C   UNL     1      45.485  17.827  22.240  0.00  0.00    -0.108 A 
ATOM     10  C   UNL     1      46.776  18.239  21.934  0.00  0.00    -0.005 A 
ATOM     11  C   UNL     1      47.952  17.464  22.473  0.00  0.00    +0.092 C 
ATOM     12  C   UNL     1      43.479  20.378  20.451  0.00  0.00    +0.172 A 
ATOM     15  C   UNL     1      46.996  19.351  21.142  0.00  0.00    -0.077 A 
ATOM     32  C   UNL     1      43.700  21.489  19.668  0.00  0.00    -0.111 A 
ENDROOT
BRANCH  15  16
ATOM     16  C   UNL     1      48.376  19.778  20.823  0.00  0.00    -0.098 A 
ATOM     17  C   UNL     1      48.968  20.839  21.528  0.00  0.00    +0.202 A 
ATOM     20  C   UNL     1      50.259  21.240  21.231  0.00  0.00    -0.170 A 
ATOM     21  C   UNL     1      50.980  20.598  20.236  0.00  0.00    +0.208 A 
ATOM     24  C   UNL     1      50.397  19.539  19.529  0.00  0.00    -0.187 A 
ATOM     25  C   UNL     1      51.131  18.831  18.468  0.00  0.00    +0.232 C 
ATOM     26  C   UNL     1      52.634  18.926  18.396  0.00  0.00    +0.137 C 
ATOM     27  N   UNL     1      50.489  18.117  17.607  0.00  0.00    -0.524 NA
ATOM     28  C   UNL     1      49.034  18.006  17.624  0.00  0.00    +0.150 C 
ATOM     29  C   UNL     1      48.624  16.714  16.916  0.00  0.00    +0.052 C 
ATOM     30  C   UNL     1      48.499  17.985  19.055  0.00  0.00    +0.078 C 
ATOM     31  C   UNL     1      49.095  19.130  19.831  0.00  0.00    +0.028 A 
BRANCH  17  18
ATOM     18  O   UNL     1      48.270  21.472  22.504  0.00  0.00    -0.297 OA
ATOM     19  C   UNL     1      48.098  22.885  22.366  0.00  0.00    +0.241 C 
ENDBRANCH  17  18
BRANCH  21  22
ATOM     22  O   UNL     1      52.245  20.994  19.948  0.00  0.00    -0.299 OA
ATOM     23  C   UNL     1      52.780  22.072  20.720  0.00  0.00    +0.240 C 
ENDBRANCH  21  22
ENDBRANCH  15  16
BRANCH   6   7
ATOM      7  O   UNL     1      43.137  18.098  22.073  0.00  0.00    -0.290 OA
ATOM      8  C   UNL     1      42.968  16.710  22.367  0.00  0.00    +0.238 C 
ENDBRANCH   6   7
BRANCH  12  13
ATOM     13  O   UNL     1      42.211  19.986  20.741  0.00  0.00    -0.291 OA
ATOM     14  C   UNL     1      41.359  19.673  19.637  0.00  0.00    +0.237 C 
ENDBRANCH  12  13
TORSDOF 5
ENDMDL
