MODEL 1
REMARK VINA RESULT:      -6.3      0.000      0.000
REMARK  Name = ZINC95486377
REMARK  11 active torsions:
REMARK  status: ('A' for Active; 'I' for Inactive)
REMARK    1  A    between atoms: C1_1  and  C2_2
REMARK    2  A    between atoms: C2_2  and  C24_30
REMARK    3  A    between atoms: C3_3  and  C4_4
REMARK    4  A    between atoms: C4_4  and  C5_5
REMARK    5  A    between atoms: C9_9  and  O2_13
REMARK    6  A    between atoms: C10_10  and  O1_11
REMARK    7  A    between atoms: O1_11  and  C11_12
REMARK    8  A    between atoms: C20_24  and  C21_26
REMARK    9  A    between atoms: C21_26  and  C22_27
REMARK   10  A    between atoms: C21_26  and  C23_28
REMARK   11  A    between atoms: C21_26  and  O6_29
REMARK                            x       y       z     vdW  Elec       q    Type
REMARK                         _______ _______ _______ _____ _____    ______ ____
ROOT
ATOM      6  C   UNL     1      50.668  17.524  19.305  0.00  0.00    +0.016 A 
ATOM      7  C   UNL     1      49.299  17.577  19.577  0.00  0.00    -0.224 A 
ATOM      8  C   UNL     1      48.571  16.400  19.819  0.00  0.00    +0.178 A 
ATOM      9  O   UNL     1      47.253  16.442  20.101  0.00  0.00    -0.221 OA
ATOM     10  C   UNL     1      46.503  17.536  19.852  0.00  0.00    +0.181 A 
ATOM     11  C   UNL     1      45.120  17.431  19.834  0.00  0.00    +0.017 A 
ATOM     12  C   UNL     1      44.337  18.549  19.587  0.00  0.00    +0.120 A 
ATOM     13  C   UNL     1      44.946  19.798  19.356  0.00  0.00    -0.160 A 
ATOM     14  C   UNL     1      43.842  20.741  19.140  0.00  0.00    +0.011 A 
ATOM     15  C   UNL     1      42.715  20.025  19.250  0.00  0.00    +0.035 A 
ATOM     21  C   UNL     1      46.331  19.915  19.369  0.00  0.00    +0.184 A 
ATOM     22  O   UNL     1      43.004  18.738  19.511  0.00  0.00    -0.179 OA
ATOM     23  C   UNL     1      47.106  18.786  19.611  0.00  0.00    -0.235 A 
ATOM     24  C   UNL     1      49.231  15.178  19.772  0.00  0.00    -0.013 A 
ATOM     25  C   UNL     1      50.586  15.129  19.499  0.00  0.00    +0.165 A 
ATOM     28  C   UNL     1      48.582  18.867  19.613  0.00  0.00    +0.444 A 
ATOM     29  O   UNL     1      49.170  19.933  19.643  0.00  0.00    -0.430 OA
ATOM     30  C   UNL     1      51.307  16.303  19.263  0.00  0.00    +0.040 A 
ENDROOT
BRANCH  15  16
ATOM     16  C   UNL     1      41.323  20.583  19.103  0.00  0.00    +0.210 C 
ATOM     19  C   UNL     1      40.603  19.863  17.960  0.00  0.00    +0.042 C 
ATOM     20  C   UNL     1      41.402  22.079  18.793  0.00  0.00    +0.035 C 
BRANCH  16  17
ATOM     17  O   UNL     1      40.599  20.387  20.319  0.00  0.00    -0.551 OA
ATOM     18  H   UNL     1      40.393  19.462  20.511  0.00  0.00    +0.393 HD
ENDBRANCH  16  17
ENDBRANCH  15  16
BRANCH  25  26
ATOM     26  O   UNL     1      51.221  13.929  19.456  0.00  0.00    -0.483 OA
ATOM     27  H   UNL     1      51.144  13.415  20.272  0.00  0.00    +0.404 HD
ENDBRANCH  25  26
BRANCH  30  31
ATOM     31  O   UNL     1      52.639  16.241  18.995  0.00  0.00    -0.321 OA
ATOM     32  C   UNL     1      53.527  16.233  20.115  0.00  0.00    +0.229 C 
ENDBRANCH  30  31
BRANCH   6   5
ATOM      5  C   UNL     1      51.440  18.793  19.054  0.00  0.00    +0.132 C 
BRANCH   5   4
ATOM      1  C   UNL     1      51.224  21.232  17.656  0.00  0.00    +0.075 C 
ATOM      2  C   UNL     1      51.679  19.987  16.938  0.00  0.00    -0.135 C 
ATOM      3  C   UNL     1      51.965  20.032  15.459  0.00  0.00    +0.074 C 
ATOM      4  C   UNL     1      51.828  18.866  17.600  0.00  0.00    -0.032 C 
ENDBRANCH   5   4
ENDBRANCH   6   5
TORSDOF 6
ENDMDL
MODEL 2
REMARK VINA RESULT:      -6.2      2.386      2.822
REMARK  Name = ZINC95486377
REMARK  11 active torsions:
REMARK  status: ('A' for Active; 'I' for Inactive)
REMARK    1  A    between atoms: C1_1  and  C2_2
REMARK    2  A    between atoms: C2_2  and  C24_30
REMARK    3  A    between atoms: C3_3  and  C4_4
REMARK    4  A    between atoms: C4_4  and  C5_5
REMARK    5  A    between atoms: C9_9  and  O2_13
REMARK    6  A    between atoms: C10_10  and  O1_11
REMARK    7  A    between atoms: O1_11  and  C11_12
REMARK    8  A    between atoms: C20_24  and  C21_26
REMARK    9  A    between atoms: C21_26  and  C22_27
REMARK   10  A    between atoms: C21_26  and  C23_28
REMARK   11  A    between atoms: C21_26  and  O6_29
REMARK                            x       y       z     vdW  Elec       q    Type
REMARK                         _______ _______ _______ _____ _____    ______ ____
ROOT
ATOM      6  C   UNL     1      49.850  15.845  17.333  0.00  0.00    +0.016 A 
ATOM      7  C   UNL     1      48.687  16.488  17.761  0.00  0.00    -0.224 A 
ATOM      8  C   UNL     1      47.425  15.915  17.532  0.00  0.00    +0.178 A 
ATOM      9  O   UNL     1      46.297  16.519  17.959  0.00  0.00    -0.221 OA
ATOM     10  C   UNL     1      46.276  17.819  18.322  0.00  0.00    +0.181 A 
ATOM     11  C   UNL     1      45.063  18.483  18.425  0.00  0.00    +0.017 A 
ATOM     12  C   UNL     1      45.026  19.817  18.804  0.00  0.00    +0.120 A 
ATOM     13  C   UNL     1      46.224  20.501  19.089  0.00  0.00    -0.160 A 
ATOM     14  C   UNL     1      45.822  21.864  19.456  0.00  0.00    +0.011 A 
ATOM     15  C   UNL     1      44.486  21.894  19.367  0.00  0.00    +0.035 A 
ATOM     21  C   UNL     1      47.446  19.846  18.987  0.00  0.00    +0.184 A 
ATOM     22  O   UNL     1      44.017  20.694  18.982  0.00  0.00    -0.179 OA
ATOM     23  C   UNL     1      47.471  18.511  18.600  0.00  0.00    -0.235 A 
ATOM     24  C   UNL     1      47.349  14.701  16.860  0.00  0.00    -0.013 A 
ATOM     25  C   UNL     1      48.502  14.068  16.434  0.00  0.00    +0.165 A 
ATOM     28  C   UNL     1      48.753  17.787  18.461  0.00  0.00    +0.444 A 
ATOM     29  O   UNL     1      49.798  18.234  18.897  0.00  0.00    -0.430 OA
ATOM     30  C   UNL     1      49.756  14.641  16.668  0.00  0.00    +0.040 A 
ENDROOT
BRANCH  15  16
ATOM     16  C   UNL     1      43.630  23.101  19.655  0.00  0.00    +0.210 C 
ATOM     19  C   UNL     1      42.225  22.875  19.094  0.00  0.00    +0.042 C 
ATOM     20  C   UNL     1      44.250  24.335  18.997  0.00  0.00    +0.035 C 
BRANCH  16  17
ATOM     17  O   UNL     1      43.552  23.304  21.068  0.00  0.00    -0.551 OA
ATOM     18  H   UNL     1      43.571  22.487  21.585  0.00  0.00    +0.393 HD
ENDBRANCH  16  17
ENDBRANCH  15  16
BRANCH  25  26
ATOM     26  O   UNL     1      48.416  12.881  15.779  0.00  0.00    -0.483 OA
ATOM     27  H   UNL     1      47.526  12.502  15.769  0.00  0.00    +0.404 HD
ENDBRANCH  25  26
BRANCH  30  31
ATOM     31  O   UNL     1      50.882  14.008  16.242  0.00  0.00    -0.321 OA
ATOM     32  C   UNL     1      51.442  13.023  17.114  0.00  0.00    +0.229 C 
ENDBRANCH  30  31
BRANCH   6   5
ATOM      5  C   UNL     1      51.198  16.465  17.589  0.00  0.00    +0.132 C 
BRANCH   5   4
ATOM      1  C   UNL     1      52.539  18.876  18.174  0.00  0.00    +0.075 C 
ATOM      2  C   UNL     1      52.102  18.578  16.762  0.00  0.00    -0.135 C 
ATOM      3  C   UNL     1      52.331  19.593  15.673  0.00  0.00    +0.074 C 
ATOM      4  C   UNL     1      51.524  17.435  16.483  0.00  0.00    -0.032 C 
ENDBRANCH   5   4
ENDBRANCH   6   5
TORSDOF 6
ENDMDL
MODEL 3
REMARK VINA RESULT:      -6.1      3.234      8.034
REMARK  Name = ZINC95486377
REMARK  11 active torsions:
REMARK  status: ('A' for Active; 'I' for Inactive)
REMARK    1  A    between atoms: C1_1  and  C2_2
REMARK    2  A    between atoms: C2_2  and  C24_30
REMARK    3  A    between atoms: C3_3  and  C4_4
REMARK    4  A    between atoms: C4_4  and  C5_5
REMARK    5  A    between atoms: C9_9  and  O2_13
REMARK    6  A    between atoms: C10_10  and  O1_11
REMARK    7  A    between atoms: O1_11  and  C11_12
REMARK    8  A    between atoms: C20_24  and  C21_26
REMARK    9  A    between atoms: C21_26  and  C22_27
REMARK   10  A    between atoms: C21_26  and  C23_28
REMARK   11  A    between atoms: C21_26  and  O6_29
REMARK                            x       y       z     vdW  Elec       q    Type
REMARK                         _______ _______ _______ _____ _____    ______ ____
ROOT
ATOM      6  C   UNL     1      45.330  19.769  21.197  0.00  0.00    +0.016 A 
ATOM      7  C   UNL     1      46.156  18.846  20.554  0.00  0.00    -0.224 A 
ATOM      8  C   UNL     1      47.524  19.113  20.374  0.00  0.00    +0.178 A 
ATOM      9  O   UNL     1      48.334  18.219  19.771  0.00  0.00    -0.221 OA
ATOM     10  C   UNL     1      47.849  17.199  19.031  0.00  0.00    +0.181 A 
ATOM     11  C   UNL     1      48.691  16.520  18.164  0.00  0.00    +0.017 A 
ATOM     12  C   UNL     1      48.209  15.465  17.403  0.00  0.00    +0.120 A 
ATOM     13  C   UNL     1      46.858  15.079  17.513  0.00  0.00    -0.160 A 
ATOM     14  C   UNL     1      46.695  13.950  16.589  0.00  0.00    +0.011 A 
ATOM     15  C   UNL     1      47.894  13.754  16.025  0.00  0.00    +0.035 A 
ATOM     21  C   UNL     1      46.004  15.755  18.375  0.00  0.00    +0.184 A 
ATOM     22  O   UNL     1      48.783  14.644  16.501  0.00  0.00    -0.179 OA
ATOM     23  C   UNL     1      46.498  16.815  19.128  0.00  0.00    -0.235 A 
ATOM     24  C   UNL     1      48.042  20.316  20.836  0.00  0.00    -0.013 A 
ATOM     25  C   UNL     1      47.220  21.230  21.470  0.00  0.00    +0.165 A 
ATOM     28  C   UNL     1      45.615  17.571  20.043  0.00  0.00    +0.444 A 
ATOM     29  O   UNL     1      44.510  17.165  20.355  0.00  0.00    -0.430 OA
ATOM     30  C   UNL     1      45.860  20.958  21.650  0.00  0.00    +0.040 A 
ENDROOT
BRANCH  15  16
ATOM     16  C   UNL     1      48.202  12.690  15.004  0.00  0.00    +0.210 C 
ATOM     19  C   UNL     1      47.491  11.391  15.390  0.00  0.00    +0.042 C 
ATOM     20  C   UNL     1      49.712  12.449  14.957  0.00  0.00    +0.035 C 
BRANCH  16  17
ATOM     17  O   UNL     1      47.748  13.117  13.718  0.00  0.00    -0.551 OA
ATOM     18  H   UNL     1      47.596  14.069  13.650  0.00  0.00    +0.393 HD
ENDBRANCH  16  17
ENDBRANCH  15  16
BRANCH  25  26
ATOM     26  O   UNL     1      47.737  22.403  21.918  0.00  0.00    -0.483 OA
ATOM     27  H   UNL     1      47.358  23.186  21.495  0.00  0.00    +0.404 HD
ENDBRANCH  25  26
BRANCH  30  31
ATOM     31  O   UNL     1      45.062  21.866  22.274  0.00  0.00    -0.321 OA
ATOM     32  C   UNL     1      44.689  23.025  21.525  0.00  0.00    +0.229 C 
ENDBRANCH  30  31
BRANCH   6   5
ATOM      5  C   UNL     1      43.866  19.470  21.391  0.00  0.00    +0.132 C 
BRANCH   5   4
ATOM      1  C   UNL     1      41.127  18.861  21.114  0.00  0.00    +0.075 C 
ATOM      2  C   UNL     1      41.821  19.708  20.078  0.00  0.00    -0.135 C 
ATOM      3  C   UNL     1      41.065  20.182  18.864  0.00  0.00    +0.074 C 
ATOM      4  C   UNL     1      43.081  20.032  20.234  0.00  0.00    -0.032 C 
ENDBRANCH   5   4
ENDBRANCH   6   5
TORSDOF 6
ENDMDL
MODEL 4
REMARK VINA RESULT:      -5.8      2.613      3.679
REMARK  Name = ZINC95486377
REMARK  11 active torsions:
REMARK  status: ('A' for Active; 'I' for Inactive)
REMARK    1  A    between atoms: C1_1  and  C2_2
REMARK    2  A    between atoms: C2_2  and  C24_30
REMARK    3  A    between atoms: C3_3  and  C4_4
REMARK    4  A    between atoms: C4_4  and  C5_5
REMARK    5  A    between atoms: C9_9  and  O2_13
REMARK    6  A    between atoms: C10_10  and  O1_11
REMARK    7  A    between atoms: O1_11  and  C11_12
REMARK    8  A    between atoms: C20_24  and  C21_26
REMARK    9  A    between atoms: C21_26  and  C22_27
REMARK   10  A    between atoms: C21_26  and  C23_28
REMARK   11  A    between atoms: C21_26  and  O6_29
REMARK                            x       y       z     vdW  Elec       q    Type
REMARK                         _______ _______ _______ _____ _____    ______ ____
ROOT
ATOM      6  C   UNL     1      49.737  15.352  17.260  0.00  0.00    +0.016 A 
ATOM      7  C   UNL     1      48.613  16.062  17.685  0.00  0.00    -0.224 A 
ATOM      8  C   UNL     1      47.319  15.593  17.398  0.00  0.00    +0.178 A 
ATOM      9  O   UNL     1      46.227  16.261  17.822  0.00  0.00    -0.221 OA
ATOM     10  C   UNL     1      46.290  17.543  18.240  0.00  0.00    +0.181 A 
ATOM     11  C   UNL     1      45.126  18.290  18.340  0.00  0.00    +0.017 A 
ATOM     12  C   UNL     1      45.175  19.606  18.776  0.00  0.00    +0.120 A 
ATOM     13  C   UNL     1      46.411  20.187  19.122  0.00  0.00    -0.160 A 
ATOM     14  C   UNL     1      46.099  21.560  19.537  0.00  0.00    +0.011 A 
ATOM     15  C   UNL     1      44.772  21.693  19.414  0.00  0.00    +0.035 A 
ATOM     21  C   UNL     1      47.584  19.449  19.023  0.00  0.00    +0.184 A 
ATOM     22  O   UNL     1      44.228  20.548  18.965  0.00  0.00    -0.179 OA
ATOM     23  C   UNL     1      47.523  18.133  18.579  0.00  0.00    -0.235 A 
ATOM     24  C   UNL     1      47.174  14.417  16.673  0.00  0.00    -0.013 A 
ATOM     25  C   UNL     1      48.290  13.719  16.250  0.00  0.00    +0.165 A 
ATOM     28  C   UNL     1      48.752  17.322  18.442  0.00  0.00    +0.444 A 
ATOM     29  O   UNL     1      49.814  17.672  18.924  0.00  0.00    -0.430 OA
ATOM     30  C   UNL     1      49.575  14.186  16.541  0.00  0.00    +0.040 A 
ENDROOT
BRANCH  15  16
ATOM     16  C   UNL     1      43.999  22.947  19.732  0.00  0.00    +0.210 C 
ATOM     19  C   UNL     1      42.566  22.808  19.211  0.00  0.00    +0.042 C 
ATOM     20  C   UNL     1      44.671  24.146  19.060  0.00  0.00    +0.035 C 
BRANCH  16  17
ATOM     17  O   UNL     1      43.974  23.146  21.147  0.00  0.00    -0.551 OA
ATOM     18  H   UNL     1      44.849  23.170  21.557  0.00  0.00    +0.393 HD
ENDBRANCH  16  17
ENDBRANCH  15  16
BRANCH  25  26
ATOM     26  O   UNL     1      48.137  12.569  15.542  0.00  0.00    -0.483 OA
ATOM     27  H   UNL     1      48.900  11.976  15.587  0.00  0.00    +0.404 HD
ENDBRANCH  25  26
BRANCH  30  31
ATOM     31  O   UNL     1      50.665  13.490  16.118  0.00  0.00    -0.321 OA
ATOM     32  C   UNL     1      51.080  13.695  14.765  0.00  0.00    +0.229 C 
ENDBRANCH  30  31
BRANCH   6   5
ATOM      5  C   UNL     1      51.119  15.860  17.578  0.00  0.00    +0.132 C 
BRANCH   5   4
ATOM      1  C   UNL     1      53.261  16.819  19.140  0.00  0.00    +0.075 C 
ATOM      2  C   UNL     1      52.782  15.399  19.306  0.00  0.00    -0.135 C 
ATOM      3  C   UNL     1      53.485  14.475  20.266  0.00  0.00    +0.074 C 
ATOM      4  C   UNL     1      51.754  14.970  18.615  0.00  0.00    -0.032 C 
ENDBRANCH   5   4
ENDBRANCH   6   5
TORSDOF 6
ENDMDL
MODEL 5
REMARK VINA RESULT:      -5.7      2.308      9.067
REMARK  Name = ZINC95486377
REMARK  11 active torsions:
REMARK  status: ('A' for Active; 'I' for Inactive)
REMARK    1  A    between atoms: C1_1  and  C2_2
REMARK    2  A    between atoms: C2_2  and  C24_30
REMARK    3  A    between atoms: C3_3  and  C4_4
REMARK    4  A    between atoms: C4_4  and  C5_5
REMARK    5  A    between atoms: C9_9  and  O2_13
REMARK    6  A    between atoms: C10_10  and  O1_11
REMARK    7  A    between atoms: O1_11  and  C11_12
REMARK    8  A    between atoms: C20_24  and  C21_26
REMARK    9  A    between atoms: C21_26  and  C22_27
REMARK   10  A    between atoms: C21_26  and  C23_28
REMARK   11  A    between atoms: C21_26  and  O6_29
REMARK                            x       y       z     vdW  Elec       q    Type
REMARK                         _______ _______ _______ _____ _____    ______ ____
ROOT
ATOM      6  C   UNL     1      44.931  21.256  19.927  0.00  0.00    +0.016 A 
ATOM      7  C   UNL     1      46.170  20.756  20.330  0.00  0.00    -0.224 A 
ATOM      8  C   UNL     1      47.051  21.549  21.085  0.00  0.00    +0.178 A 
ATOM      9  O   UNL     1      48.242  21.069  21.496  0.00  0.00    -0.221 OA
ATOM     10  C   UNL     1      48.793  19.962  20.954  0.00  0.00    +0.181 A 
ATOM     11  C   UNL     1      50.139  19.697  21.153  0.00  0.00    +0.017 A 
ATOM     12  C   UNL     1      50.716  18.559  20.608  0.00  0.00    +0.120 A 
ATOM     13  C   UNL     1      49.932  17.666  19.852  0.00  0.00    -0.160 A 
ATOM     14  C   UNL     1      50.845  16.591  19.442  0.00  0.00    +0.011 A 
ATOM     15  C   UNL     1      52.042  16.904  19.954  0.00  0.00    +0.035 A 
ATOM     21  C   UNL     1      48.583  17.922  19.644  0.00  0.00    +0.184 A 
ATOM     22  O   UNL     1      51.969  18.060  20.637  0.00  0.00    -0.179 OA
ATOM     23  C   UNL     1      48.016  19.069  20.190  0.00  0.00    -0.235 A 
ATOM     24  C   UNL     1      46.676  22.846  21.413  0.00  0.00    -0.013 A 
ATOM     25  C   UNL     1      45.449  23.339  21.009  0.00  0.00    +0.165 A 
ATOM     28  C   UNL     1      46.588  19.385  19.973  0.00  0.00    +0.444 A 
ATOM     29  O   UNL     1      45.806  18.566  19.528  0.00  0.00    -0.430 OA
ATOM     30  C   UNL     1      44.574  22.545  20.262  0.00  0.00    +0.040 A 
ENDROOT
BRANCH  15  16
ATOM     16  C   UNL     1      53.292  16.080  19.787  0.00  0.00    +0.210 C 
ATOM     19  C   UNL     1      52.911  14.646  19.410  0.00  0.00    +0.042 C 
ATOM     20  C   UNL     1      54.075  16.070  21.102  0.00  0.00    +0.035 C 
BRANCH  16  17
ATOM     17  O   UNL     1      54.102  16.644  18.755  0.00  0.00    -0.551 OA
ATOM     18  H   UNL     1      53.603  17.126  18.081  0.00  0.00    +0.393 HD
ENDBRANCH  16  17
ENDBRANCH  15  16
BRANCH  25  26
ATOM     26  O   UNL     1      45.092  24.608  21.337  0.00  0.00    -0.483 OA
ATOM     27  H   UNL     1      45.720  25.054  21.922  0.00  0.00    +0.404 HD
ENDBRANCH  25  26
BRANCH  30  31
ATOM     31  O   UNL     1      43.371  23.043  19.869  0.00  0.00    -0.321 OA
ATOM     32  C   UNL     1      43.376  23.966  18.777  0.00  0.00    +0.229 C 
ENDBRANCH  30  31
BRANCH   6   5
ATOM      5  C   UNL     1      43.991  20.394  19.124  0.00  0.00    +0.132 C 
BRANCH   5   4
ATOM      1  C   UNL     1      41.232  20.529  18.558  0.00  0.00    +0.075 C 
ATOM      2  C   UNL     1      41.714  19.843  19.812  0.00  0.00    -0.135 C 
ATOM      3  C   UNL     1      40.717  19.280  20.792  0.00  0.00    +0.074 C 
ATOM      4  C   UNL     1      42.998  19.738  20.048  0.00  0.00    -0.032 C 
ENDBRANCH   5   4
ENDBRANCH   6   5
TORSDOF 6
ENDMDL
MODEL 6
REMARK VINA RESULT:      -5.7      2.518      4.089
REMARK  Name = ZINC95486377
REMARK  11 active torsions:
REMARK  status: ('A' for Active; 'I' for Inactive)
REMARK    1  A    between atoms: C1_1  and  C2_2
REMARK    2  A    between atoms: C2_2  and  C24_30
REMARK    3  A    between atoms: C3_3  and  C4_4
REMARK    4  A    between atoms: C4_4  and  C5_5
REMARK    5  A    between atoms: C9_9  and  O2_13
REMARK    6  A    between atoms: C10_10  and  O1_11
REMARK    7  A    between atoms: O1_11  and  C11_12
REMARK    8  A    between atoms: C20_24  and  C21_26
REMARK    9  A    between atoms: C21_26  and  C22_27
REMARK   10  A    between atoms: C21_26  and  C23_28
REMARK   11  A    between atoms: C21_26  and  O6_29
REMARK                            x       y       z     vdW  Elec       q    Type
REMARK                         _______ _______ _______ _____ _____    ______ ____
ROOT
ATOM      6  C   UNL     1      50.428  15.571  18.079  0.00  0.00    +0.016 A 
ATOM      7  C   UNL     1      49.890  16.855  18.187  0.00  0.00    -0.224 A 
ATOM      8  C   UNL     1      50.702  17.943  18.549  0.00  0.00    +0.178 A 
ATOM      9  O   UNL     1      50.197  19.190  18.637  0.00  0.00    -0.221 OA
ATOM     10  C   UNL     1      48.868  19.420  18.710  0.00  0.00    +0.181 A 
ATOM     11  C   UNL     1      48.409  20.656  19.136  0.00  0.00    +0.017 A 
ATOM     12  C   UNL     1      47.046  20.909  19.209  0.00  0.00    +0.120 A 
ATOM     13  C   UNL     1      46.125  19.907  18.846  0.00  0.00    -0.160 A 
ATOM     14  C   UNL     1      44.798  20.506  19.035  0.00  0.00    +0.011 A 
ATOM     15  C   UNL     1      45.011  21.752  19.474  0.00  0.00    +0.035 A 
ATOM     21  C   UNL     1      46.574  18.663  18.421  0.00  0.00    +0.184 A 
ATOM     22  O   UNL     1      46.330  21.991  19.578  0.00  0.00    -0.179 OA
ATOM     23  C   UNL     1      47.942  18.419  18.358  0.00  0.00    -0.235 A 
ATOM     24  C   UNL     1      52.049  17.721  18.810  0.00  0.00    -0.013 A 
ATOM     25  C   UNL     1      52.577  16.448  18.705  0.00  0.00    +0.165 A 
ATOM     28  C   UNL     1      48.458  17.101  17.929  0.00  0.00    +0.444 A 
ATOM     29  O   UNL     1      47.744  16.271  17.395  0.00  0.00    -0.430 OA
ATOM     30  C   UNL     1      51.766  15.368  18.341  0.00  0.00    +0.040 A 
ENDROOT
BRANCH  15  16
ATOM     16  C   UNL     1      43.928  22.747  19.803  0.00  0.00    +0.210 C 
ATOM     19  C   UNL     1      42.577  22.206  19.328  0.00  0.00    +0.042 C 
ATOM     20  C   UNL     1      44.221  24.073  19.100  0.00  0.00    +0.035 C 
BRANCH  16  17
ATOM     17  O   UNL     1      43.886  22.956  21.216  0.00  0.00    -0.551 OA
ATOM     18  H   UNL     1      43.466  23.786  21.479  0.00  0.00    +0.393 HD
ENDBRANCH  16  17
ENDBRANCH  15  16
BRANCH  25  26
ATOM     26  O   UNL     1      53.895  16.242  18.961  0.00  0.00    -0.483 OA
ATOM     27  H   UNL     1      54.123  15.318  19.131  0.00  0.00    +0.404 HD
ENDBRANCH  25  26
BRANCH  30  31
ATOM     31  O   UNL     1      52.299  14.120  18.243  0.00  0.00    -0.321 OA
ATOM     32  C   UNL     1      52.387  13.357  19.448  0.00  0.00    +0.229 C 
ENDBRANCH  30  31
BRANCH   6   5
ATOM      5  C   UNL     1      49.550  14.412  17.684  0.00  0.00    +0.132 C 
BRANCH   5   4
ATOM      1  C   UNL     1      47.669  12.968  16.158  0.00  0.00    +0.075 C 
ATOM      2  C   UNL     1      49.033  13.267  15.590  0.00  0.00    -0.135 C 
ATOM      3  C   UNL     1      49.413  12.745  14.228  0.00  0.00    +0.074 C 
ATOM      4  C   UNL     1      49.888  13.981  16.280  0.00  0.00    -0.032 C 
ENDBRANCH   5   4
ENDBRANCH   6   5
TORSDOF 6
ENDMDL
MODEL 7
REMARK VINA RESULT:      -5.7      3.167      4.975
REMARK  Name = ZINC95486377
REMARK  11 active torsions:
REMARK  status: ('A' for Active; 'I' for Inactive)
REMARK    1  A    between atoms: C1_1  and  C2_2
REMARK    2  A    between atoms: C2_2  and  C24_30
REMARK    3  A    between atoms: C3_3  and  C4_4
REMARK    4  A    between atoms: C4_4  and  C5_5
REMARK    5  A    between atoms: C9_9  and  O2_13
REMARK    6  A    between atoms: C10_10  and  O1_11
REMARK    7  A    between atoms: O1_11  and  C11_12
REMARK    8  A    between atoms: C20_24  and  C21_26
REMARK    9  A    between atoms: C21_26  and  C22_27
REMARK   10  A    between atoms: C21_26  and  C23_28
REMARK   11  A    between atoms: C21_26  and  O6_29
REMARK                            x       y       z     vdW  Elec       q    Type
REMARK                         _______ _______ _______ _____ _____    ______ ____
ROOT
ATOM      6  C   UNL     1      48.891  14.789  16.925  0.00  0.00    +0.016 A 
ATOM      7  C   UNL     1      48.743  16.087  17.418  0.00  0.00    -0.224 A 
ATOM      8  C   UNL     1      49.768  16.691  18.165  0.00  0.00    +0.178 A 
ATOM      9  O   UNL     1      49.643  17.951  18.629  0.00  0.00    -0.221 OA
ATOM     10  C   UNL     1      48.446  18.573  18.695  0.00  0.00    +0.181 A 
ATOM     11  C   UNL     1      48.306  19.710  19.476  0.00  0.00    +0.017 A 
ATOM     12  C   UNL     1      47.085  20.364  19.546  0.00  0.00    +0.120 A 
ATOM     13  C   UNL     1      45.981  19.873  18.820  0.00  0.00    -0.160 A 
ATOM     14  C   UNL     1      44.876  20.793  19.116  0.00  0.00    +0.011 A 
ATOM     15  C   UNL     1      45.371  21.713  19.953  0.00  0.00    +0.035 A 
ATOM     21  C   UNL     1      46.109  18.733  18.037  0.00  0.00    +0.184 A 
ATOM     22  O   UNL     1      46.667  21.462  20.208  0.00  0.00    -0.179 OA
ATOM     23  C   UNL     1      47.337  18.083  17.978  0.00  0.00    -0.235 A 
ATOM     24  C   UNL     1      50.930  15.972  18.418  0.00  0.00    -0.013 A 
ATOM     25  C   UNL     1      51.072  14.685  17.931  0.00  0.00    +0.165 A 
ATOM     28  C   UNL     1      47.506  16.856  17.171  0.00  0.00    +0.444 A 
ATOM     29  O   UNL     1      46.677  16.502  16.353  0.00  0.00    -0.430 OA
ATOM     30  C   UNL     1      50.050  14.090  17.185  0.00  0.00    +0.040 A 
ENDROOT
BRANCH  15  16
ATOM     16  C   UNL     1      44.588  22.866  20.527  0.00  0.00    +0.210 C 
ATOM     19  C   UNL     1      43.414  23.196  19.602  0.00  0.00    +0.042 C 
ATOM     20  C   UNL     1      45.498  24.089  20.651  0.00  0.00    +0.035 C 
BRANCH  16  17
ATOM     17  O   UNL     1      44.091  22.509  21.818  0.00  0.00    -0.551 OA
ATOM     18  H   UNL     1      44.459  21.687  22.169  0.00  0.00    +0.393 HD
ENDBRANCH  16  17
ENDBRANCH  15  16
BRANCH  25  26
ATOM     26  O   UNL     1      52.212  13.992  18.184  0.00  0.00    -0.483 OA
ATOM     27  H   UNL     1      52.195  13.079  17.867  0.00  0.00    +0.404 HD
ENDBRANCH  25  26
BRANCH  30  31
ATOM     31  O   UNL     1      50.203  12.823  16.713  0.00  0.00    -0.321 OA
ATOM     32  C   UNL     1      50.906  12.671  15.478  0.00  0.00    +0.229 C 
ENDBRANCH  30  31
BRANCH   6   5
ATOM      5  C   UNL     1      47.788  14.154  16.119  0.00  0.00    +0.132 C 
BRANCH   5   4
ATOM      1  C   UNL     1      47.395  11.706  14.776  0.00  0.00    +0.075 C 
ATOM      2  C   UNL     1      47.014  11.840  16.229  0.00  0.00    -0.135 C 
ATOM      3  C   UNL     1      46.370  10.684  16.948  0.00  0.00    +0.074 C 
ATOM      4  C   UNL     1      47.243  12.963  16.865  0.00  0.00    -0.032 C 
ENDBRANCH   5   4
ENDBRANCH   6   5
TORSDOF 6
ENDMDL
MODEL 8
REMARK VINA RESULT:      -5.6      3.467      7.140
REMARK  Name = ZINC95486377
REMARK  11 active torsions:
REMARK  status: ('A' for Active; 'I' for Inactive)
REMARK    1  A    between atoms: C1_1  and  C2_2
REMARK    2  A    between atoms: C2_2  and  C24_30
REMARK    3  A    between atoms: C3_3  and  C4_4
REMARK    4  A    between atoms: C4_4  and  C5_5
REMARK    5  A    between atoms: C9_9  and  O2_13
REMARK    6  A    between atoms: C10_10  and  O1_11
REMARK    7  A    between atoms: O1_11  and  C11_12
REMARK    8  A    between atoms: C20_24  and  C21_26
REMARK    9  A    between atoms: C21_26  and  C22_27
REMARK   10  A    between atoms: C21_26  and  C23_28
REMARK   11  A    between atoms: C21_26  and  O6_29
REMARK                            x       y       z     vdW  Elec       q    Type
REMARK                         _______ _______ _______ _____ _____    ______ ____
ROOT
ATOM      6  C   UNL     1      48.048  19.993  19.962  0.00  0.00    +0.016 A 
ATOM      7  C   UNL     1      47.774  18.995  19.025  0.00  0.00    -0.224 A 
ATOM      8  C   UNL     1      46.581  19.018  18.282  0.00  0.00    +0.178 A 
ATOM      9  O   UNL     1      46.316  18.070  17.360  0.00  0.00    -0.221 OA
ATOM     10  C   UNL     1      46.988  16.900  17.325  0.00  0.00    +0.181 A 
ATOM     11  C   UNL     1      46.473  15.835  16.602  0.00  0.00    +0.017 A 
ATOM     12  C   UNL     1      47.157  14.629  16.550  0.00  0.00    +0.120 A 
ATOM     13  C   UNL     1      48.382  14.485  17.231  0.00  0.00    -0.160 A 
ATOM     14  C   UNL     1      48.823  13.111  16.962  0.00  0.00    +0.011 A 
ATOM     15  C   UNL     1      47.881  12.563  16.183  0.00  0.00    +0.035 A 
ATOM     21  C   UNL     1      48.906  15.545  17.961  0.00  0.00    +0.184 A 
ATOM     22  O   UNL     1      46.901  13.452  15.942  0.00  0.00    -0.179 OA
ATOM     23  C   UNL     1      48.209  16.746  18.010  0.00  0.00    -0.235 A 
ATOM     24  C   UNL     1      45.670  20.044  18.503  0.00  0.00    -0.013 A 
ATOM     25  C   UNL     1      45.943  21.028  19.434  0.00  0.00    +0.165 A 
ATOM     28  C   UNL     1      48.725  17.890  18.792  0.00  0.00    +0.444 A 
ATOM     29  O   UNL     1      49.866  17.919  19.218  0.00  0.00    -0.430 OA
ATOM     30  C   UNL     1      47.133  21.003  20.168  0.00  0.00    +0.040 A 
ENDROOT
BRANCH  15  16
ATOM     16  C   UNL     1      47.914  11.153  15.654  0.00  0.00    +0.210 C 
ATOM     19  C   UNL     1      46.488  10.602  15.582  0.00  0.00    +0.042 C 
ATOM     20  C   UNL     1      48.753  10.277  16.586  0.00  0.00    +0.035 C 
BRANCH  16  17
ATOM     17  O   UNL     1      48.492  11.147  14.347  0.00  0.00    -0.551 OA
ATOM     18  H   UNL     1      48.949  10.326  14.122  0.00  0.00    +0.393 HD
ENDBRANCH  16  17
ENDBRANCH  15  16
BRANCH  25  26
ATOM     26  O   UNL     1      45.046  22.027  19.641  0.00  0.00    -0.483 OA
ATOM     27  H   UNL     1      44.581  21.968  20.487  0.00  0.00    +0.404 HD
ENDBRANCH  25  26
BRANCH  30  31
ATOM     31  O   UNL     1      47.388  21.978  21.083  0.00  0.00    -0.321 OA
ATOM     32  C   UNL     1      46.834  21.802  22.389  0.00  0.00    +0.229 C 
ENDBRANCH  30  31
BRANCH   6   5
ATOM      5  C   UNL     1      49.333  19.962  20.748  0.00  0.00    +0.132 C 
BRANCH   5   4
ATOM      1  C   UNL     1      52.074  19.739  21.371  0.00  0.00    +0.075 C 
ATOM      2  C   UNL     1      51.595  20.831  20.448  0.00  0.00    -0.135 C 
ATOM      3  C   UNL     1      52.573  21.840  19.904  0.00  0.00    +0.074 C 
ATOM      4  C   UNL     1      50.328  20.903  20.120  0.00  0.00    -0.032 C 
ENDBRANCH   5   4
ENDBRANCH   6   5
TORSDOF 6
ENDMDL
MODEL 9
REMARK VINA RESULT:      -5.5      3.421      7.016
REMARK  Name = ZINC95486377
REMARK  11 active torsions:
REMARK  status: ('A' for Active; 'I' for Inactive)
REMARK    1  A    between atoms: C1_1  and  C2_2
REMARK    2  A    between atoms: C2_2  and  C24_30
REMARK    3  A    between atoms: C3_3  and  C4_4
REMARK    4  A    between atoms: C4_4  and  C5_5
REMARK    5  A    between atoms: C9_9  and  O2_13
REMARK    6  A    between atoms: C10_10  and  O1_11
REMARK    7  A    between atoms: O1_11  and  C11_12
REMARK    8  A    between atoms: C20_24  and  C21_26
REMARK    9  A    between atoms: C21_26  and  C22_27
REMARK   10  A    between atoms: C21_26  and  C23_28
REMARK   11  A    between atoms: C21_26  and  O6_29
REMARK                            x       y       z     vdW  Elec       q    Type
REMARK                         _______ _______ _______ _____ _____    ______ ____
ROOT
ATOM      6  C   UNL     1      50.286  19.672  19.779  0.00  0.00    +0.016 A 
ATOM      7  C   UNL     1      50.363  18.428  19.151  0.00  0.00    -0.224 A 
ATOM      8  C   UNL     1      51.503  18.066  18.414  0.00  0.00    +0.178 A 
ATOM      9  O   UNL     1      51.594  16.858  17.820  0.00  0.00    -0.221 OA
ATOM     10  C   UNL     1      50.512  16.078  17.617  0.00  0.00    +0.181 A 
ATOM     11  C   UNL     1      50.585  15.024  16.720  0.00  0.00    +0.017 A 
ATOM     12  C   UNL     1      49.483  14.208  16.507  0.00  0.00    +0.120 A 
ATOM     13  C   UNL     1      48.284  14.449  17.207  0.00  0.00    -0.160 A 
ATOM     14  C   UNL     1      47.348  13.414  16.752  0.00  0.00    +0.011 A 
ATOM     15  C   UNL     1      48.018  12.672  15.860  0.00  0.00    +0.035 A 
ATOM     21  C   UNL     1      48.198  15.504  18.107  0.00  0.00    +0.184 A 
ATOM     22  O   UNL     1      49.271  13.138  15.714  0.00  0.00    -0.179 OA
ATOM     23  C   UNL     1      49.308  16.318  18.307  0.00  0.00    -0.235 A 
ATOM     24  C   UNL     1      52.551  18.971  18.308  0.00  0.00    -0.013 A 
ATOM     25  C   UNL     1      52.471  20.205  18.928  0.00  0.00    +0.165 A 
ATOM     28  C   UNL     1      49.248  17.463  19.242  0.00  0.00    +0.444 A 
ATOM     29  O   UNL     1      48.337  17.600  20.037  0.00  0.00    -0.430 OA
ATOM     30  C   UNL     1      51.336  20.559  19.664  0.00  0.00    +0.040 A 
ENDROOT
BRANCH  15  16
ATOM     16  C   UNL     1      47.449  11.486  15.126  0.00  0.00    +0.210 C 
ATOM     19  C   UNL     1      46.237  10.946  15.890  0.00  0.00    +0.042 C 
ATOM     20  C   UNL     1      48.513  10.392  15.022  0.00  0.00    +0.035 C 
BRANCH  16  17
ATOM     17  O   UNL     1      47.046  11.884  13.814  0.00  0.00    -0.551 OA
ATOM     18  H   UNL     1      46.261  12.448  13.798  0.00  0.00    +0.393 HD
ENDBRANCH  16  17
ENDBRANCH  15  16
BRANCH  25  26
ATOM     26  O   UNL     1      53.502  21.081  18.819  0.00  0.00    -0.483 OA
ATOM     27  H   UNL     1      54.348  20.668  18.599  0.00  0.00    +0.404 HD
ENDBRANCH  25  26
BRANCH  30  31
ATOM     31  O   UNL     1      51.269  21.775  20.268  0.00  0.00    -0.321 OA
ATOM     32  C   UNL     1      51.821  21.877  21.584  0.00  0.00    +0.229 C 
ENDBRANCH  30  31
BRANCH   6   5
ATOM      5  C   UNL     1      49.062  20.047  20.573  0.00  0.00    +0.132 C 
BRANCH   5   4
ATOM      1  C   UNL     1      46.337  20.221  21.275  0.00  0.00    +0.075 C 
ATOM      2  C   UNL     1      46.826  20.837  19.989  0.00  0.00    -0.135 C 
ATOM      3  C   UNL     1      45.849  21.497  19.051  0.00  0.00    +0.074 C 
ATOM      4  C   UNL     1      48.101  20.799  19.689  0.00  0.00    -0.032 C 
ENDBRANCH   5   4
ENDBRANCH   6   5
TORSDOF 6
ENDMDL
