MODEL 1
REMARK VINA RESULT:      -6.0      0.000      0.000
REMARK  Name = ZINC95486069
REMARK  7 active torsions:
REMARK  status: ('A' for Active; 'I' for Inactive)
REMARK    1  A    between atoms: C1_1  and  O1_2
REMARK    2  A    between atoms: O1_2  and  C2_3
REMARK    3  A    between atoms: C4_5  and  C10_13
REMARK    4  A    between atoms: C6_7  and  O3_11
REMARK    5  A    between atoms: C7_8  and  O2_9
REMARK    6  A    between atoms: O2_9  and  C8_10
REMARK    7  A    between atoms: O3_11  and  C9_12
REMARK                            x       y       z     vdW  Elec       q    Type
REMARK                         _______ _______ _______ _____ _____    ______ ____
ROOT
ATOM      6  C   UNL     1      45.477  18.427  21.532  0.00  0.00    -0.000 C 
ATOM      7  C   UNL     1      44.334  18.105  22.505  0.00  0.00    +0.290 C 
ATOM      8  O   UNL     1      43.113  17.981  21.777  0.00  0.00    -0.298 OA
ATOM      9  C   UNL     1      42.743  18.987  20.948  0.00  0.00    +0.193 A 
ATOM     10  C   UNL     1      41.413  19.133  20.602  0.00  0.00    -0.009 A 
ATOM     11  C   UNL     1      41.020  20.157  19.748  0.00  0.00    +0.119 A 
ATOM     12  C   UNL     1      41.982  21.048  19.233  0.00  0.00    -0.172 A 
ATOM     13  C   UNL     1      43.321  20.911  19.576  0.00  0.00    +0.179 A 
ATOM     14  C   UNL     1      41.235  21.982  18.381  0.00  0.00    -0.029 A 
ATOM     15  C   UNL     1      39.952  21.604  18.448  0.00  0.00    +0.219 A 
ATOM     16  O   UNL     1      39.825  20.532  19.252  0.00  0.00    -0.189 OA
ATOM     17  C   UNL     1      43.702  19.883  20.436  0.00  0.00    -0.256 A 
ATOM     18  C   UNL     1      45.115  19.721  20.826  0.00  0.00    +0.415 C 
ATOM     19  O   UNL     1      45.944  20.577  20.598  0.00  0.00    -0.430 OA
ENDROOT
BRANCH   6   5
ATOM      3  C   UNL     1      45.442  14.991  19.958  0.00  0.00    +0.151 A 
ATOM      4  C   UNL     1      45.310  16.017  20.882  0.00  0.00    -0.079 A 
ATOM      5  C   UNL     1      45.621  17.315  20.524  0.00  0.00    -0.010 A 
ATOM     20  C   UNL     1      46.063  17.597  19.245  0.00  0.00    -0.076 A 
ATOM     21  C   UNL     1      46.197  16.577  18.315  0.00  0.00    +0.152 A 
ATOM     24  C   UNL     1      45.892  15.269  18.673  0.00  0.00    +0.035 A 
BRANCH   3   2
ATOM      1  C   UNL     1      45.379  13.340  21.669  0.00  0.00    +0.245 C 
ATOM      2  O   UNL     1      45.136  13.714  20.311  0.00  0.00    -0.300 OA
ENDBRANCH   3   2
BRANCH  21  22
ATOM     22  O   UNL     1      46.631  16.855  17.057  0.00  0.00    -0.299 OA
ATOM     23  C   UNL     1      48.006  17.215  16.910  0.00  0.00    +0.244 C 
ENDBRANCH  21  22
BRANCH  24  25
ATOM     25  O   UNL     1      46.027  14.265  17.765  0.00  0.00    -0.312 OA
ATOM     26  C   UNL     1      47.272  13.564  17.753  0.00  0.00    +0.219 C 
ENDBRANCH  24  25
ENDBRANCH   6   5
TORSDOF 4
ENDMDL
MODEL 2
REMARK VINA RESULT:      -5.9      0.119      2.440
REMARK  Name = ZINC95486069
REMARK  7 active torsions:
REMARK  status: ('A' for Active; 'I' for Inactive)
REMARK    1  A    between atoms: C1_1  and  O1_2
REMARK    2  A    between atoms: O1_2  and  C2_3
REMARK    3  A    between atoms: C4_5  and  C10_13
REMARK    4  A    between atoms: C6_7  and  O3_11
REMARK    5  A    between atoms: C7_8  and  O2_9
REMARK    6  A    between atoms: O2_9  and  C8_10
REMARK    7  A    between atoms: O3_11  and  C9_12
REMARK                            x       y       z     vdW  Elec       q    Type
REMARK                         _______ _______ _______ _____ _____    ______ ____
ROOT
ATOM      6  C   UNL     1      45.423  18.490  21.545  0.00  0.00    -0.000 C 
ATOM      7  C   UNL     1      44.274  18.150  22.505  0.00  0.00    +0.290 C 
ATOM      8  O   UNL     1      43.061  18.014  21.764  0.00  0.00    -0.298 OA
ATOM      9  C   UNL     1      42.689  19.020  20.936  0.00  0.00    +0.193 A 
ATOM     10  C   UNL     1      41.360  19.152  20.576  0.00  0.00    -0.009 A 
ATOM     11  C   UNL     1      40.964  20.175  19.723  0.00  0.00    +0.119 A 
ATOM     12  C   UNL     1      41.921  21.079  19.222  0.00  0.00    -0.172 A 
ATOM     13  C   UNL     1      43.258  20.957  19.578  0.00  0.00    +0.179 A 
ATOM     14  C   UNL     1      41.171  22.008  18.366  0.00  0.00    -0.029 A 
ATOM     15  C   UNL     1      39.892  21.614  18.418  0.00  0.00    +0.219 A 
ATOM     16  O   UNL     1      39.770  20.538  19.216  0.00  0.00    -0.189 OA
ATOM     17  C   UNL     1      43.642  19.929  20.438  0.00  0.00    -0.256 A 
ATOM     18  C   UNL     1      45.052  19.783  20.841  0.00  0.00    +0.415 C 
ATOM     19  O   UNL     1      45.874  20.649  20.625  0.00  0.00    -0.430 OA
ENDROOT
BRANCH   6   5
ATOM      3  C   UNL     1      46.200  16.663  18.328  0.00  0.00    +0.151 A 
ATOM      4  C   UNL     1      46.046  17.678  19.262  0.00  0.00    -0.079 A 
ATOM      5  C   UNL     1      45.590  17.384  20.534  0.00  0.00    -0.010 A 
ATOM     20  C   UNL     1      45.288  16.081  20.881  0.00  0.00    -0.076 A 
ATOM     21  C   UNL     1      45.439  15.061  19.953  0.00  0.00    +0.152 A 
ATOM     24  C   UNL     1      45.892  15.352  18.671  0.00  0.00    +0.035 A 
BRANCH   3   2
ATOM      1  C   UNL     1      48.037  17.265  16.941  0.00  0.00    +0.245 C 
ATOM      2  O   UNL     1      46.649  16.953  17.078  0.00  0.00    -0.300 OA
ENDBRANCH   3   2
BRANCH  21  22
ATOM     22  O   UNL     1      45.142  13.780  20.295  0.00  0.00    -0.299 OA
ATOM     23  C   UNL     1      45.780  13.255  21.461  0.00  0.00    +0.244 C 
ENDBRANCH  21  22
BRANCH  24  25
ATOM     25  O   UNL     1      46.037  14.356  17.757  0.00  0.00    -0.312 OA
ATOM     26  C   UNL     1      47.299  13.685  17.722  0.00  0.00    +0.219 C 
ENDBRANCH  24  25
ENDBRANCH   6   5
TORSDOF 4
ENDMDL
MODEL 3
REMARK VINA RESULT:      -5.4      3.469      7.197
REMARK  Name = ZINC95486069
REMARK  7 active torsions:
REMARK  status: ('A' for Active; 'I' for Inactive)
REMARK    1  A    between atoms: C1_1  and  O1_2
REMARK    2  A    between atoms: O1_2  and  C2_3
REMARK    3  A    between atoms: C4_5  and  C10_13
REMARK    4  A    between atoms: C6_7  and  O3_11
REMARK    5  A    between atoms: C7_8  and  O2_9
REMARK    6  A    between atoms: O2_9  and  C8_10
REMARK    7  A    between atoms: O3_11  and  C9_12
REMARK                            x       y       z     vdW  Elec       q    Type
REMARK                         _______ _______ _______ _____ _____    ______ ____
ROOT
ATOM      6  C   UNL     1      48.852  18.798  21.850  0.00  0.00    -0.000 C 
ATOM      7  C   UNL     1      49.441  20.202  22.049  0.00  0.00    +0.290 C 
ATOM      8  O   UNL     1      49.446  20.894  20.801  0.00  0.00    -0.298 OA
ATOM      9  C   UNL     1      50.023  20.299  19.729  0.00  0.00    +0.193 A 
ATOM     10  C   UNL     1      50.462  21.075  18.671  0.00  0.00    -0.009 A 
ATOM     11  C   UNL     1      51.050  20.478  17.562  0.00  0.00    +0.119 A 
ATOM     12  C   UNL     1      51.198  19.078  17.516  0.00  0.00    -0.172 A 
ATOM     13  C   UNL     1      50.763  18.290  18.574  0.00  0.00    +0.179 A 
ATOM     14  C   UNL     1      51.841  18.794  16.225  0.00  0.00    -0.029 A 
ATOM     15  C   UNL     1      52.022  19.980  15.630  0.00  0.00    +0.219 A 
ATOM     16  O   UNL     1      51.559  20.970  16.416  0.00  0.00    -0.189 OA
ATOM     17  C   UNL     1      50.178  18.900  19.682  0.00  0.00    -0.256 A 
ATOM     18  C   UNL     1      49.717  18.089  20.823  0.00  0.00    +0.415 C 
ATOM     19  O   UNL     1      50.014  16.918  20.938  0.00  0.00    -0.430 OA
ENDROOT
BRANCH   6   5
ATOM      3  C   UNL     1      45.696  18.149  19.875  0.00  0.00    +0.151 A 
ATOM      4  C   UNL     1      46.998  18.055  20.344  0.00  0.00    -0.079 A 
ATOM      5  C   UNL     1      47.436  18.902  21.344  0.00  0.00    -0.010 A 
ATOM     20  C   UNL     1      46.579  19.845  21.881  0.00  0.00    -0.076 A 
ATOM     21  C   UNL     1      45.276  19.945  21.418  0.00  0.00    +0.152 A 
ATOM     24  C   UNL     1      44.833  19.100  20.408  0.00  0.00    +0.035 A 
BRANCH   3   2
ATOM      1  C   UNL     1      46.123  17.147  17.760  0.00  0.00    +0.245 C 
ATOM      2  O   UNL     1      45.265  17.315  18.890  0.00  0.00    -0.300 OA
ENDBRANCH   3   2
BRANCH  21  22
ATOM     22  O   UNL     1      44.435  20.872  21.948  0.00  0.00    -0.299 OA
ATOM     23  C   UNL     1      44.898  22.223  21.985  0.00  0.00    +0.244 C 
ENDBRANCH  21  22
BRANCH  24  25
ATOM     25  O   UNL     1      43.557  19.198  19.947  0.00  0.00    -0.312 OA
ATOM     26  C   UNL     1      43.328  20.092  18.856  0.00  0.00    +0.219 C 
ENDBRANCH  24  25
ENDBRANCH   6   5
TORSDOF 4
ENDMDL
MODEL 4
REMARK VINA RESULT:      -5.3      2.528      3.433
REMARK  Name = ZINC95486069
REMARK  7 active torsions:
REMARK  status: ('A' for Active; 'I' for Inactive)
REMARK    1  A    between atoms: C1_1  and  O1_2
REMARK    2  A    between atoms: O1_2  and  C2_3
REMARK    3  A    between atoms: C4_5  and  C10_13
REMARK    4  A    between atoms: C6_7  and  O3_11
REMARK    5  A    between atoms: C7_8  and  O2_9
REMARK    6  A    between atoms: O2_9  and  C8_10
REMARK    7  A    between atoms: O3_11  and  C9_12
REMARK                            x       y       z     vdW  Elec       q    Type
REMARK                         _______ _______ _______ _____ _____    ______ ____
ROOT
ATOM      6  C   UNL     1      46.749  20.627  21.766  0.00  0.00    -0.000 C 
ATOM      7  C   UNL     1      45.979  19.520  22.501  0.00  0.00    +0.290 C 
ATOM      8  O   UNL     1      45.105  18.862  21.583  0.00  0.00    -0.298 OA
ATOM      9  C   UNL     1      44.248  19.611  20.848  0.00  0.00    +0.193 A 
ATOM     10  C   UNL     1      43.109  19.029  20.323  0.00  0.00    -0.009 A 
ATOM     11  C   UNL     1      42.224  19.783  19.562  0.00  0.00    +0.119 A 
ATOM     12  C   UNL     1      42.491  21.146  19.324  0.00  0.00    -0.172 A 
ATOM     13  C   UNL     1      43.631  21.741  19.848  0.00  0.00    +0.179 A 
ATOM     14  C   UNL     1      41.374  21.624  18.498  0.00  0.00    -0.029 A 
ATOM     15  C   UNL     1      40.566  20.572  18.316  0.00  0.00    +0.219 A 
ATOM     16  O   UNL     1      41.065  19.490  18.942  0.00  0.00    -0.189 OA
ATOM     17  C   UNL     1      44.509  20.975  20.613  0.00  0.00    -0.256 A 
ATOM     18  C   UNL     1      45.721  21.584  21.190  0.00  0.00    +0.415 C 
ATOM     19  O   UNL     1      45.888  22.785  21.207  0.00  0.00    -0.430 OA
ENDROOT
BRANCH   6   5
ATOM      3  C   UNL     1      48.187  18.133  19.317  0.00  0.00    +0.151 A 
ATOM      4  C   UNL     1      47.431  18.689  20.339  0.00  0.00    -0.079 A 
ATOM      5  C   UNL     1      47.572  20.027  20.654  0.00  0.00    -0.010 A 
ATOM     20  C   UNL     1      48.464  20.817  19.953  0.00  0.00    -0.076 A 
ATOM     21  C   UNL     1      49.223  20.269  18.930  0.00  0.00    +0.152 A 
ATOM     24  C   UNL     1      49.089  18.922  18.613  0.00  0.00    +0.035 A 
BRANCH   3   2
ATOM      1  C   UNL     1      46.739  16.256  19.124  0.00  0.00    +0.245 C 
ATOM      2  O   UNL     1      48.049  16.816  19.008  0.00  0.00    -0.300 OA
ENDBRANCH   3   2
BRANCH  21  22
ATOM     22  O   UNL     1      50.099  21.047  18.240  0.00  0.00    -0.299 OA
ATOM     23  C   UNL     1      51.365  21.299  18.853  0.00  0.00    +0.244 C 
ENDBRANCH  21  22
BRANCH  24  25
ATOM     25  O   UNL     1      49.836  18.380  17.614  0.00  0.00    -0.312 OA
ATOM     26  C   UNL     1      51.043  17.715  17.993  0.00  0.00    +0.219 C 
ENDBRANCH  24  25
ENDBRANCH   6   5
TORSDOF 4
ENDMDL
MODEL 5
REMARK VINA RESULT:      -5.3      3.072      5.513
REMARK  Name = ZINC95486069
REMARK  7 active torsions:
REMARK  status: ('A' for Active; 'I' for Inactive)
REMARK    1  A    between atoms: C1_1  and  O1_2
REMARK    2  A    between atoms: O1_2  and  C2_3
REMARK    3  A    between atoms: C4_5  and  C10_13
REMARK    4  A    between atoms: C6_7  and  O3_11
REMARK    5  A    between atoms: C7_8  and  O2_9
REMARK    6  A    between atoms: O2_9  and  C8_10
REMARK    7  A    between atoms: O3_11  and  C9_12
REMARK                            x       y       z     vdW  Elec       q    Type
REMARK                         _______ _______ _______ _____ _____    ______ ____
ROOT
ATOM      6  C   UNL     1      47.715  15.970  17.393  0.00  0.00    -0.000 C 
ATOM      7  C   UNL     1      46.815  16.951  16.626  0.00  0.00    +0.290 C 
ATOM      8  O   UNL     1      46.322  17.943  17.526  0.00  0.00    -0.298 OA
ATOM      9  C   UNL     1      45.704  17.542  18.663  0.00  0.00    +0.193 A 
ATOM     10  C   UNL     1      44.829  18.400  19.304  0.00  0.00    -0.009 A 
ATOM     11  C   UNL     1      44.192  18.005  20.474  0.00  0.00    +0.119 A 
ATOM     12  C   UNL     1      44.441  16.726  21.009  0.00  0.00    -0.172 A 
ATOM     13  C   UNL     1      45.316  15.856  20.372  0.00  0.00    +0.179 A 
ATOM     14  C   UNL     1      43.622  16.645  22.226  0.00  0.00    -0.029 A 
ATOM     15  C   UNL     1      42.978  17.815  22.322  0.00  0.00    +0.219 A 
ATOM     16  O   UNL     1      43.312  18.614  21.292  0.00  0.00    -0.189 OA
ATOM     17  C   UNL     1      45.946  16.262  19.197  0.00  0.00    -0.256 A 
ATOM     18  C   UNL     1      46.871  15.355  18.495  0.00  0.00    +0.415 C 
ATOM     19  O   UNL     1      46.954  14.178  18.779  0.00  0.00    -0.430 OA
ENDROOT
BRANCH   6   5
ATOM      3  C   UNL     1      50.379  17.085  19.831  0.00  0.00    +0.151 A 
ATOM      4  C   UNL     1      49.304  16.407  19.275  0.00  0.00    -0.079 A 
ATOM      5  C   UNL     1      48.884  16.709  17.993  0.00  0.00    -0.010 A 
ATOM     20  C   UNL     1      49.533  17.685  17.260  0.00  0.00    -0.076 A 
ATOM     21  C   UNL     1      50.608  18.367  17.809  0.00  0.00    +0.152 A 
ATOM     24  C   UNL     1      51.030  18.072  19.100  0.00  0.00    +0.035 A 
BRANCH   3   2
ATOM      1  C   UNL     1      49.866  17.036  22.153  0.00  0.00    +0.245 C 
ATOM      2  O   UNL     1      50.791  16.789  21.093  0.00  0.00    -0.300 OA
ENDBRANCH   3   2
BRANCH  21  22
ATOM     22  O   UNL     1      51.246  19.326  17.087  0.00  0.00    -0.299 OA
ATOM     23  C   UNL     1      51.828  18.923  15.845  0.00  0.00    +0.244 C 
ENDBRANCH  21  22
BRANCH  24  25
ATOM     25  O   UNL     1      52.081  18.742  19.644  0.00  0.00    -0.312 OA
ATOM     26  C   UNL     1      51.784  19.936  20.371  0.00  0.00    +0.219 C 
ENDBRANCH  24  25
ENDBRANCH   6   5
TORSDOF 4
ENDMDL
MODEL 6
REMARK VINA RESULT:      -5.3      3.144      6.031
REMARK  Name = ZINC95486069
REMARK  7 active torsions:
REMARK  status: ('A' for Active; 'I' for Inactive)
REMARK    1  A    between atoms: C1_1  and  O1_2
REMARK    2  A    between atoms: O1_2  and  C2_3
REMARK    3  A    between atoms: C4_5  and  C10_13
REMARK    4  A    between atoms: C6_7  and  O3_11
REMARK    5  A    between atoms: C7_8  and  O2_9
REMARK    6  A    between atoms: O2_9  and  C8_10
REMARK    7  A    between atoms: O3_11  and  C9_12
REMARK                            x       y       z     vdW  Elec       q    Type
REMARK                         _______ _______ _______ _____ _____    ______ ____
ROOT
ATOM      6  C   UNL     1      47.721  15.955  17.362  0.00  0.00    -0.000 C 
ATOM      7  C   UNL     1      46.827  16.945  16.600  0.00  0.00    +0.290 C 
ATOM      8  O   UNL     1      46.337  17.934  17.505  0.00  0.00    -0.298 OA
ATOM      9  C   UNL     1      45.715  17.529  18.638  0.00  0.00    +0.193 A 
ATOM     10  C   UNL     1      44.843  18.386  19.283  0.00  0.00    -0.009 A 
ATOM     11  C   UNL     1      44.202  17.987  20.450  0.00  0.00    +0.119 A 
ATOM     12  C   UNL     1      44.444  16.703  20.978  0.00  0.00    -0.172 A 
ATOM     13  C   UNL     1      45.316  15.833  20.336  0.00  0.00    +0.179 A 
ATOM     14  C   UNL     1      43.623  16.618  22.193  0.00  0.00    -0.029 A 
ATOM     15  C   UNL     1      42.984  17.790  22.294  0.00  0.00    +0.219 A 
ATOM     16  O   UNL     1      43.323  18.594  21.270  0.00  0.00    -0.189 OA
ATOM     17  C   UNL     1      45.950  16.244  19.165  0.00  0.00    -0.256 A 
ATOM     18  C   UNL     1      46.872  15.337  18.458  0.00  0.00    +0.415 C 
ATOM     19  O   UNL     1      46.949  14.158  18.735  0.00  0.00    -0.430 OA
ENDROOT
BRANCH   6   5
ATOM      3  C   UNL     1      50.630  18.329  17.792  0.00  0.00    +0.151 A 
ATOM      4  C   UNL     1      49.551  17.656  17.238  0.00  0.00    -0.079 A 
ATOM      5  C   UNL     1      48.892  16.685  17.968  0.00  0.00    -0.010 A 
ATOM     20  C   UNL     1      49.303  16.381  19.252  0.00  0.00    -0.076 A 
ATOM     21  C   UNL     1      50.381  17.050  19.813  0.00  0.00    +0.152 A 
ATOM     24  C   UNL     1      51.051  18.022  19.081  0.00  0.00    +0.035 A 
BRANCH   3   2
ATOM      1  C   UNL     1      51.846  18.883  15.824  0.00  0.00    +0.245 C 
ATOM      2  O   UNL     1      51.279  19.284  17.073  0.00  0.00    -0.300 OA
ENDBRANCH   3   2
BRANCH  21  22
ATOM     22  O   UNL     1      50.784  16.751  21.077  0.00  0.00    -0.299 OA
ATOM     23  C   UNL     1      51.364  15.462  21.285  0.00  0.00    +0.244 C 
ENDBRANCH  21  22
BRANCH  24  25
ATOM     25  O   UNL     1      52.112  18.677  19.626  0.00  0.00    -0.312 OA
ATOM     26  C   UNL     1      51.832  19.876  20.351  0.00  0.00    +0.219 C 
ENDBRANCH  24  25
ENDBRANCH   6   5
TORSDOF 4
ENDMDL
MODEL 7
REMARK VINA RESULT:      -5.0      4.302      7.940
REMARK  Name = ZINC95486069
REMARK  7 active torsions:
REMARK  status: ('A' for Active; 'I' for Inactive)
REMARK    1  A    between atoms: C1_1  and  O1_2
REMARK    2  A    between atoms: O1_2  and  C2_3
REMARK    3  A    between atoms: C4_5  and  C10_13
REMARK    4  A    between atoms: C6_7  and  O3_11
REMARK    5  A    between atoms: C7_8  and  O2_9
REMARK    6  A    between atoms: O2_9  and  C8_10
REMARK    7  A    between atoms: O3_11  and  C9_12
REMARK                            x       y       z     vdW  Elec       q    Type
REMARK                         _______ _______ _______ _____ _____    ______ ____
ROOT
ATOM      6  C   UNL     1      51.303  16.640  16.916  0.00  0.00    -0.000 C 
ATOM      7  C   UNL     1      52.163  15.922  17.968  0.00  0.00    +0.290 C 
ATOM      8  O   UNL     1      51.910  16.490  19.253  0.00  0.00    -0.298 OA
ATOM      9  C   UNL     1      52.019  17.832  19.405  0.00  0.00    +0.193 A 
ATOM     10  C   UNL     1      52.245  18.360  20.663  0.00  0.00    -0.009 A 
ATOM     11  C   UNL     1      52.353  19.735  20.835  0.00  0.00    +0.119 A 
ATOM     12  C   UNL     1      52.231  20.592  19.724  0.00  0.00    -0.172 A 
ATOM     13  C   UNL     1      52.007  20.072  18.456  0.00  0.00    +0.179 A 
ATOM     14  C   UNL     1      52.391  21.952  20.259  0.00  0.00    -0.029 A 
ATOM     15  C   UNL     1      52.588  21.814  21.576  0.00  0.00    +0.219 A 
ATOM     16  O   UNL     1      52.568  20.512  21.915  0.00  0.00    -0.189 OA
ATOM     17  C   UNL     1      51.904  18.691  18.295  0.00  0.00    -0.256 A 
ATOM     18  C   UNL     1      51.677  18.111  16.960  0.00  0.00    +0.415 C 
ATOM     19  O   UNL     1      51.783  18.771  15.948  0.00  0.00    -0.430 OA
ENDROOT
BRANCH   6   5
ATOM      3  C   UNL     1      47.709  17.432  17.775  0.00  0.00    +0.151 A 
ATOM      4  C   UNL     1      49.054  17.583  17.470  0.00  0.00    -0.079 A 
ATOM      5  C   UNL     1      49.842  16.470  17.246  0.00  0.00    -0.010 A 
ATOM     20  C   UNL     1      49.295  15.203  17.323  0.00  0.00    -0.076 A 
ATOM     21  C   UNL     1      47.952  15.043  17.627  0.00  0.00    +0.152 A 
ATOM     24  C   UNL     1      47.156  16.159  17.859  0.00  0.00    +0.035 A 
BRANCH   3   2
ATOM      1  C   UNL     1      47.297  19.369  19.092  0.00  0.00    +0.245 C 
ATOM      2  O   UNL     1      46.934  18.527  17.995  0.00  0.00    -0.300 OA
ENDBRANCH   3   2
BRANCH  21  22
ATOM     22  O   UNL     1      47.414  13.797  17.701  0.00  0.00    -0.299 OA
ATOM     23  C   UNL     1      47.806  12.986  18.811  0.00  0.00    +0.244 C 
ENDBRANCH  21  22
BRANCH  24  25
ATOM     25  O   UNL     1      45.839  16.006  18.162  0.00  0.00    -0.312 OA
ATOM     26  C   UNL     1      45.496  15.934  19.548  0.00  0.00    +0.219 C 
ENDBRANCH  24  25
ENDBRANCH   6   5
TORSDOF 4
ENDMDL
MODEL 8
REMARK VINA RESULT:      -4.9      3.805      7.040
REMARK  Name = ZINC95486069
REMARK  7 active torsions:
REMARK  status: ('A' for Active; 'I' for Inactive)
REMARK    1  A    between atoms: C1_1  and  O1_2
REMARK    2  A    between atoms: O1_2  and  C2_3
REMARK    3  A    between atoms: C4_5  and  C10_13
REMARK    4  A    between atoms: C6_7  and  O3_11
REMARK    5  A    between atoms: C7_8  and  O2_9
REMARK    6  A    between atoms: O2_9  and  C8_10
REMARK    7  A    between atoms: O3_11  and  C9_12
REMARK                            x       y       z     vdW  Elec       q    Type
REMARK                         _______ _______ _______ _____ _____    ______ ____
ROOT
ATOM      6  C   UNL     1      49.119  16.484  17.918  0.00  0.00    -0.000 C 
ATOM      7  C   UNL     1      49.855  15.730  19.037  0.00  0.00    +0.290 C 
ATOM      8  O   UNL     1      49.999  16.587  20.170  0.00  0.00    -0.298 OA
ATOM      9  C   UNL     1      50.555  17.810  19.994  0.00  0.00    +0.193 A 
ATOM     10  C   UNL     1      51.129  18.460  21.071  0.00  0.00    -0.009 A 
ATOM     11  C   UNL     1      51.697  19.718  20.908  0.00  0.00    +0.119 A 
ATOM     12  C   UNL     1      51.687  20.333  19.641  0.00  0.00    -0.172 A 
ATOM     13  C   UNL     1      51.114  19.688  18.552  0.00  0.00    +0.179 A 
ATOM     14  C   UNL     1      52.354  21.628  19.828  0.00  0.00    -0.029 A 
ATOM     15  C   UNL     1      52.697  21.687  21.121  0.00  0.00    +0.219 A 
ATOM     16  O   UNL     1      52.313  20.565  21.755  0.00  0.00    -0.189 OA
ATOM     17  C   UNL     1      50.551  18.425  18.727  0.00  0.00    -0.256 A 
ATOM     18  C   UNL     1      49.947  17.713  17.587  0.00  0.00    +0.415 C 
ATOM     19  O   UNL     1      50.102  18.087  16.443  0.00  0.00    -0.430 OA
ENDROOT
BRANCH   6   5
ATOM      3  C   UNL     1      45.713  16.388  19.551  0.00  0.00    +0.151 A 
ATOM      4  C   UNL     1      46.973  16.010  19.113  0.00  0.00    -0.079 A 
ATOM      5  C   UNL     1      47.751  16.899  18.394  0.00  0.00    -0.010 A 
ATOM     20  C   UNL     1      47.277  18.166  18.110  0.00  0.00    -0.076 A 
ATOM     21  C   UNL     1      46.017  18.551  18.544  0.00  0.00    +0.152 A 
ATOM     24  C   UNL     1      45.230  17.659  19.263  0.00  0.00    +0.035 A 
BRANCH   3   2
ATOM      1  C   UNL     1      45.289  14.129  20.163  0.00  0.00    +0.245 C 
ATOM      2  O   UNL     1      44.948  15.513  20.259  0.00  0.00    -0.300 OA
ENDBRANCH   3   2
BRANCH  21  22
ATOM     22  O   UNL     1      45.552  19.797  18.265  0.00  0.00    -0.299 OA
ATOM     23  C   UNL     1      46.257  20.897  18.844  0.00  0.00    +0.244 C 
ENDBRANCH  21  22
BRANCH  24  25
ATOM     25  O   UNL     1      43.992  18.031  19.687  0.00  0.00    -0.312 OA
ATOM     26  C   UNL     1      43.903  18.637  20.978  0.00  0.00    +0.219 C 
ENDBRANCH  24  25
ENDBRANCH   6   5
TORSDOF 4
ENDMDL
MODEL 9
REMARK VINA RESULT:      -4.9      4.276      7.694
REMARK  Name = ZINC95486069
REMARK  7 active torsions:
REMARK  status: ('A' for Active; 'I' for Inactive)
REMARK    1  A    between atoms: C1_1  and  O1_2
REMARK    2  A    between atoms: O1_2  and  C2_3
REMARK    3  A    between atoms: C4_5  and  C10_13
REMARK    4  A    between atoms: C6_7  and  O3_11
REMARK    5  A    between atoms: C7_8  and  O2_9
REMARK    6  A    between atoms: O2_9  and  C8_10
REMARK    7  A    between atoms: O3_11  and  C9_12
REMARK                            x       y       z     vdW  Elec       q    Type
REMARK                         _______ _______ _______ _____ _____    ______ ____
ROOT
ATOM      6  C   UNL     1      51.081  16.754  16.883  0.00  0.00    -0.000 C 
ATOM      7  C   UNL     1      51.981  15.975  17.855  0.00  0.00    +0.290 C 
ATOM      8  O   UNL     1      51.804  16.486  19.176  0.00  0.00    -0.298 OA
ATOM      9  C   UNL     1      51.944  17.817  19.384  0.00  0.00    +0.193 A 
ATOM     10  C   UNL     1      52.243  18.283  20.651  0.00  0.00    -0.009 A 
ATOM     11  C   UNL     1      52.383  19.646  20.881  0.00  0.00    +0.119 A 
ATOM     12  C   UNL     1      52.218  20.557  19.818  0.00  0.00    -0.172 A 
ATOM     13  C   UNL     1      51.921  20.099  18.541  0.00  0.00    +0.179 A 
ATOM     14  C   UNL     1      52.428  21.887  20.406  0.00  0.00    -0.029 A 
ATOM     15  C   UNL     1      52.691  21.684  21.703  0.00  0.00    +0.219 A 
ATOM     16  O   UNL     1      52.665  20.369  21.982  0.00  0.00    -0.189 OA
ATOM     17  C   UNL     1      51.786  18.729  18.322  0.00  0.00    -0.256 A 
ATOM     18  C   UNL     1      51.481  18.215  16.975  0.00  0.00    +0.415 C 
ATOM     19  O   UNL     1      51.547  18.921  15.990  0.00  0.00    -0.430 OA
ENDROOT
BRANCH   6   5
ATOM      3  C   UNL     1      47.763  15.170  17.758  0.00  0.00    +0.151 A 
ATOM      4  C   UNL     1      49.092  15.325  17.394  0.00  0.00    -0.079 A 
ATOM      5  C   UNL     1      49.636  16.590  17.280  0.00  0.00    -0.010 A 
ATOM     20  C   UNL     1      48.859  17.706  17.530  0.00  0.00    -0.076 A 
ATOM     21  C   UNL     1      47.529  17.560  17.895  0.00  0.00    +0.152 A 
ATOM     24  C   UNL     1      46.976  16.290  18.004  0.00  0.00    +0.035 A 
BRANCH   3   2
ATOM      1  C   UNL     1      47.737  13.090  18.912  0.00  0.00    +0.245 C 
ATOM      2  O   UNL     1      47.228  13.925  17.869  0.00  0.00    -0.300 OA
ENDBRANCH   3   2
BRANCH  21  22
ATOM     22  O   UNL     1      46.766  18.658  18.141  0.00  0.00    -0.299 OA
ATOM     23  C   UNL     1      47.330  19.664  18.985  0.00  0.00    +0.244 C 
ENDBRANCH  21  22
BRANCH  24  25
ATOM     25  O   UNL     1      45.671  16.142  18.357  0.00  0.00    -0.312 OA
ATOM     26  C   UNL     1      45.381  16.057  19.754  0.00  0.00    +0.219 C 
ENDBRANCH  24  25
ENDBRANCH   6   5
TORSDOF 4
ENDMDL
