MODEL 1
REMARK VINA RESULT:      -6.1      0.000      0.000
REMARK  Name = ZINC01724917
REMARK  0 active torsions:
REMARK  status: ('A' for Active; 'I' for Inactive)
REMARK                            x       y       z     vdW  Elec       q    Type
REMARK                         _______ _______ _______ _____ _____    ______ ____
ROOT
ATOM      1  C   UNL     1      48.195  22.297  22.474  0.00  0.00    +0.051 A 
ATOM      2  C   UNL     1      48.051  20.910  22.492  0.00  0.00    +0.121 A 
ATOM      3  C   UNL     1      46.965  20.311  21.932  0.00  0.00    +0.007 A 
ATOM      4  C   UNL     1      45.967  21.096  21.326  0.00  0.00    +0.158 A 
ATOM      5  C   UNL     1      46.117  22.507  21.310  0.00  0.00    -0.067 A 
ATOM      6  C   UNL     1      45.123  23.298  20.707  0.00  0.00    +0.193 A 
ATOM      7  C   UNL     1      44.030  22.661  20.149  0.00  0.00    +0.098 A 
ATOM      8  C   UNL     1      43.947  21.251  20.201  0.00  0.00    +0.196 A 
ATOM      9  C   UNL     1      42.684  20.890  19.529  0.00  0.00    -0.159 A 
ATOM     10  C   UNL     1      42.055  19.675  19.267  0.00  0.00    +0.099 A 
ATOM     11  C   UNL     1      40.848  19.658  18.601  0.00  0.00    +0.011 A 
ATOM     12  C   UNL     1      40.259  20.845  18.194  0.00  0.00    +0.116 A 
ATOM     13  C   UNL     1      40.872  22.054  18.441  0.00  0.00    +0.003 A 
ATOM     14  C   UNL     1      42.089  22.092  19.117  0.00  0.00    +0.206 A 
ATOM     15  N   UNL     1      42.908  23.142  19.497  0.00  0.00    -0.613 N 
ATOM     16  H   UNL     1      42.778  24.224  19.349  0.00  0.00    +0.471 HD
ATOM     17  N   UNL     1      44.893  20.529  20.774  0.00  0.00    -0.458 N 
ATOM     18  H   UNL     1      44.781  19.435  20.788  0.00  0.00    +0.478 HD
ATOM     19  C   UNL     1      47.253  23.091  21.897  0.00  0.00    +0.091 A 
ENDROOT
TORSDOF 0
ENDMDL
MODEL 2
REMARK VINA RESULT:      -5.8      2.026      2.294
REMARK  Name = ZINC01724917
REMARK  0 active torsions:
REMARK  status: ('A' for Active; 'I' for Inactive)
REMARK                            x       y       z     vdW  Elec       q    Type
REMARK                         _______ _______ _______ _____ _____    ______ ____
ROOT
ATOM      1  C   UNL     1      48.586  20.151  19.484  0.00  0.00    +0.051 A 
ATOM      2  C   UNL     1      48.216  18.945  18.887  0.00  0.00    +0.121 A 
ATOM      3  C   UNL     1      46.921  18.696  18.554  0.00  0.00    +0.007 A 
ATOM      4  C   UNL     1      45.932  19.663  18.814  0.00  0.00    +0.158 A 
ATOM      5  C   UNL     1      46.312  20.888  19.423  0.00  0.00    -0.067 A 
ATOM      6  C   UNL     1      45.329  21.858  19.687  0.00  0.00    +0.193 A 
ATOM      7  C   UNL     1      44.022  21.575  19.340  0.00  0.00    +0.098 A 
ATOM      8  C   UNL     1      43.717  20.334  18.736  0.00  0.00    +0.196 A 
ATOM      9  C   UNL     1      42.261  20.344  18.493  0.00  0.00    -0.159 A 
ATOM     10  C   UNL     1      41.380  19.421  17.933  0.00  0.00    +0.099 A 
ATOM     11  C   UNL     1      40.039  19.725  17.839  0.00  0.00    +0.011 A 
ATOM     12  C   UNL     1      39.565  20.943  18.301  0.00  0.00    +0.116 A 
ATOM     13  C   UNL     1      40.425  21.868  18.851  0.00  0.00    +0.003 A 
ATOM     14  C   UNL     1      41.783  21.578  18.960  0.00  0.00    +0.206 A 
ATOM     15  N   UNL     1      42.850  22.302  19.464  0.00  0.00    -0.613 N 
ATOM     16  H   UNL     1      42.870  23.306  19.913  0.00  0.00    +0.471 HD
ATOM     17  N   UNL     1      44.657  19.438  18.498  0.00  0.00    -0.458 N 
ATOM     18  H   UNL     1      44.367  18.487  18.026  0.00  0.00    +0.478 HD
ATOM     19  C   UNL     1      47.660  21.110  19.752  0.00  0.00    +0.091 A 
ENDROOT
TORSDOF 0
ENDMDL
MODEL 3
REMARK VINA RESULT:      -5.7      0.813      6.177
REMARK  Name = ZINC01724917
REMARK  0 active torsions:
REMARK  status: ('A' for Active; 'I' for Inactive)
REMARK                            x       y       z     vdW  Elec       q    Type
REMARK                         _______ _______ _______ _____ _____    ______ ____
ROOT
ATOM      1  C   UNL     1      40.157  20.205  18.132  0.00  0.00    +0.051 A 
ATOM      2  C   UNL     1      40.238  21.598  18.162  0.00  0.00    +0.121 A 
ATOM      3  C   UNL     1      41.294  22.226  18.744  0.00  0.00    +0.007 A 
ATOM      4  C   UNL     1      42.325  21.467  19.330  0.00  0.00    +0.158 A 
ATOM      5  C   UNL     1      42.239  20.050  19.298  0.00  0.00    -0.067 A 
ATOM      6  C   UNL     1      43.264  19.286  19.882  0.00  0.00    +0.193 A 
ATOM      7  C   UNL     1      44.323  19.952  20.468  0.00  0.00    +0.098 A 
ATOM      8  C   UNL     1      44.343  21.365  20.462  0.00  0.00    +0.196 A 
ATOM      9  C   UNL     1      45.586  21.760  21.154  0.00  0.00    -0.159 A 
ATOM     10  C   UNL     1      46.158  22.993  21.460  0.00  0.00    +0.099 A 
ATOM     11  C   UNL     1      47.360  23.042  22.132  0.00  0.00    +0.011 A 
ATOM     12  C   UNL     1      48.000  21.870  22.504  0.00  0.00    +0.116 A 
ATOM     13  C   UNL     1      47.449  20.643  22.203  0.00  0.00    +0.003 A 
ATOM     14  C   UNL     1      46.232  20.573  21.530  0.00  0.00    +0.206 A 
ATOM     15  N   UNL     1      45.463  19.501  21.112  0.00  0.00    -0.613 N 
ATOM     16  H   UNL     1      45.641  18.421  21.223  0.00  0.00    +0.471 HD
ATOM     17  N   UNL     1      43.368  22.062  19.908  0.00  0.00    -0.458 N 
ATOM     18  H   UNL     1      43.431  23.161  19.930  0.00  0.00    +0.478 HD
ATOM     19  C   UNL     1      41.132  19.436  18.686  0.00  0.00    +0.091 A 
ENDROOT
TORSDOF 0
ENDMDL
MODEL 4
REMARK VINA RESULT:      -5.7     21.336     22.344
REMARK  Name = ZINC01724917
REMARK  0 active torsions:
REMARK  status: ('A' for Active; 'I' for Inactive)
REMARK                            x       y       z     vdW  Elec       q    Type
REMARK                         _______ _______ _______ _____ _____    ______ ____
ROOT
ATOM      1  C   UNL     1      59.338  31.846   3.055  0.00  0.00    +0.051 A 
ATOM      2  C   UNL     1      58.399  31.232   2.227  0.00  0.00    +0.121 A 
ATOM      3  C   UNL     1      57.067  31.335   2.480  0.00  0.00    +0.007 A 
ATOM      4  C   UNL     1      56.621  32.068   3.596  0.00  0.00    +0.158 A 
ATOM      5  C   UNL     1      57.580  32.691   4.437  0.00  0.00    -0.067 A 
ATOM      6  C   UNL     1      57.141  33.425   5.553  0.00  0.00    +0.193 A 
ATOM      7  C   UNL     1      55.782  33.510   5.787  0.00  0.00    +0.098 A 
ATOM      8  C   UNL     1      54.885  32.864   4.906  0.00  0.00    +0.196 A 
ATOM      9  C   UNL     1      53.531  33.143   5.424  0.00  0.00    -0.159 A 
ATOM     10  C   UNL     1      52.253  32.785   4.999  0.00  0.00    +0.099 A 
ATOM     11  C   UNL     1      51.151  33.209   5.709  0.00  0.00    +0.011 A 
ATOM     12  C   UNL     1      51.310  33.988   6.845  0.00  0.00    +0.116 A 
ATOM     13  C   UNL     1      52.567  34.354   7.274  0.00  0.00    +0.003 A 
ATOM     14  C   UNL     1      53.694  33.931   6.573  0.00  0.00    +0.206 A 
ATOM     15  N   UNL     1      55.047  34.141   6.775  0.00  0.00    -0.613 N 
ATOM     16  H   UNL     1      55.561  34.707   7.567  0.00  0.00    +0.471 HD
ATOM     17  N   UNL     1      55.320  32.180   3.864  0.00  0.00    -0.458 N 
ATOM     18  H   UNL     1      54.580  31.695   3.209  0.00  0.00    +0.478 HD
ATOM     19  C   UNL     1      58.948  32.564   4.143  0.00  0.00    +0.091 A 
ENDROOT
TORSDOF 0
ENDMDL
MODEL 5
REMARK VINA RESULT:      -5.7      0.846      5.750
REMARK  Name = ZINC01724917
REMARK  0 active torsions:
REMARK  status: ('A' for Active; 'I' for Inactive)
REMARK                            x       y       z     vdW  Elec       q    Type
REMARK                         _______ _______ _______ _____ _____    ______ ____
ROOT
ATOM      1  C   UNL     1      39.982  20.996  18.098  0.00  0.00    +0.051 A 
ATOM      2  C   UNL     1      40.349  19.726  18.543  0.00  0.00    +0.121 A 
ATOM      3  C   UNL     1      41.494  19.536  19.253  0.00  0.00    +0.007 A 
ATOM      4  C   UNL     1      42.328  20.632  19.544  0.00  0.00    +0.158 A 
ATOM      5  C   UNL     1      41.952  21.923  19.088  0.00  0.00    -0.067 A 
ATOM      6  C   UNL     1      42.780  23.021  19.374  0.00  0.00    +0.193 A 
ATOM      7  C   UNL     1      43.938  22.797  20.094  0.00  0.00    +0.098 A 
ATOM      8  C   UNL     1      44.250  21.485  20.517  0.00  0.00    +0.196 A 
ATOM      9  C   UNL     1      45.527  21.583  21.250  0.00  0.00    -0.159 A 
ATOM     10  C   UNL     1      46.333  20.646  21.893  0.00  0.00    +0.099 A 
ATOM     11  C   UNL     1      47.499  21.051  22.505  0.00  0.00    +0.011 A 
ATOM     12  C   UNL     1      47.872  22.386  22.481  0.00  0.00    +0.116 A 
ATOM     13  C   UNL     1      47.082  23.324  21.854  0.00  0.00    +0.003 A 
ATOM     14  C   UNL     1      45.903  22.934  21.224  0.00  0.00    +0.206 A 
ATOM     15  N   UNL     1      44.941  23.646  20.529  0.00  0.00    -0.613 N 
ATOM     16  H   UNL     1      44.889  24.721  20.303  0.00  0.00    +0.471 HD
ATOM     17  N   UNL     1      43.456  20.467  20.235  0.00  0.00    -0.458 N 
ATOM     18  H   UNL     1      43.744  19.465  20.587  0.00  0.00    +0.478 HD
ATOM     19  C   UNL     1      40.761  22.081  18.358  0.00  0.00    +0.091 A 
ENDROOT
TORSDOF 0
ENDMDL
MODEL 6
REMARK VINA RESULT:      -5.5      2.353      2.805
REMARK  Name = ZINC01724917
REMARK  0 active torsions:
REMARK  status: ('A' for Active; 'I' for Inactive)
REMARK                            x       y       z     vdW  Elec       q    Type
REMARK                         _______ _______ _______ _____ _____    ______ ____
ROOT
ATOM      1  C   UNL     1      50.057  20.384  19.715  0.00  0.00    +0.051 A 
ATOM      2  C   UNL     1      49.902  19.553  20.825  0.00  0.00    +0.121 A 
ATOM      3  C   UNL     1      48.667  19.165  21.243  0.00  0.00    +0.007 A 
ATOM      4  C   UNL     1      47.523  19.606  20.552  0.00  0.00    +0.158 A 
ATOM      5  C   UNL     1      47.685  20.452  19.423  0.00  0.00    -0.067 A 
ATOM      6  C   UNL     1      46.547  20.897  18.729  0.00  0.00    +0.193 A 
ATOM      7  C   UNL     1      45.305  20.488  19.178  0.00  0.00    +0.098 A 
ATOM      8  C   UNL     1      45.220  19.645  20.309  0.00  0.00    +0.196 A 
ATOM      9  C   UNL     1      43.781  19.395  20.526  0.00  0.00    -0.159 A 
ATOM     10  C   UNL     1      43.072  18.653  21.468  0.00  0.00    +0.099 A 
ATOM     11  C   UNL     1      41.696  18.610  21.411  0.00  0.00    +0.011 A 
ATOM     12  C   UNL     1      41.017  19.303  20.421  0.00  0.00    +0.116 A 
ATOM     13  C   UNL     1      41.705  20.035  19.479  0.00  0.00    +0.003 A 
ATOM     14  C   UNL     1      43.095  20.096  19.523  0.00  0.00    +0.206 A 
ATOM     15  N   UNL     1      44.023  20.745  18.726  0.00  0.00    -0.613 N 
ATOM     16  H   UNL     1      43.867  21.387  17.846  0.00  0.00    +0.471 HD
ATOM     17  N   UNL     1      46.303  19.240  20.946  0.00  0.00    -0.458 N 
ATOM     18  H   UNL     1      46.183  18.584  21.821  0.00  0.00    +0.478 HD
ATOM     19  C   UNL     1      48.977  20.831  19.020  0.00  0.00    +0.091 A 
ENDROOT
TORSDOF 0
ENDMDL
MODEL 7
REMARK VINA RESULT:      -5.4      2.339      6.227
REMARK  Name = ZINC01724917
REMARK  0 active torsions:
REMARK  status: ('A' for Active; 'I' for Inactive)
REMARK                            x       y       z     vdW  Elec       q    Type
REMARK                         _______ _______ _______ _____ _____    ______ ____
ROOT
ATOM      1  C   UNL     1      40.252  20.448  19.520  0.00  0.00    +0.051 A 
ATOM      2  C   UNL     1      40.736  21.620  18.938  0.00  0.00    +0.121 A 
ATOM      3  C   UNL     1      42.071  21.826  18.783  0.00  0.00    +0.007 A 
ATOM      4  C   UNL     1      42.986  20.848  19.216  0.00  0.00    +0.158 A 
ATOM      5  C   UNL     1      42.490  19.657  19.808  0.00  0.00    -0.067 A 
ATOM      6  C   UNL     1      43.398  18.676  20.244  0.00  0.00    +0.193 A 
ATOM      7  C   UNL     1      44.749  18.915  20.075  0.00  0.00    +0.098 A 
ATOM      8  C   UNL     1      45.171  20.124  19.477  0.00  0.00    +0.196 A 
ATOM      9  C   UNL     1      46.646  20.071  19.443  0.00  0.00    -0.159 A 
ATOM     10  C   UNL     1      47.622  20.951  18.981  0.00  0.00    +0.099 A 
ATOM     11  C   UNL     1      48.954  20.614  19.089  0.00  0.00    +0.011 A 
ATOM     12  C   UNL     1      49.324  19.404  19.656  0.00  0.00    +0.116 A 
ATOM     13  C   UNL     1      48.369  18.521  20.112  0.00  0.00    +0.003 A 
ATOM     14  C   UNL     1      47.018  18.846  20.017  0.00  0.00    +0.206 A 
ATOM     15  N   UNL     1      45.871  18.167  20.390  0.00  0.00    -0.613 N 
ATOM     16  H   UNL     1      45.760  17.182  20.867  0.00  0.00    +0.471 HD
ATOM     17  N   UNL     1      44.299  21.031  19.076  0.00  0.00    -0.458 N 
ATOM     18  H   UNL     1      44.679  21.956  18.616  0.00  0.00    +0.478 HD
ATOM     19  C   UNL     1      41.103  19.478  19.950  0.00  0.00    +0.091 A 
ENDROOT
TORSDOF 0
ENDMDL
MODEL 8
REMARK VINA RESULT:      -5.3     21.755     23.405
REMARK  Name = ZINC01724917
REMARK  0 active torsions:
REMARK  status: ('A' for Active; 'I' for Inactive)
REMARK                            x       y       z     vdW  Elec       q    Type
REMARK                         _______ _______ _______ _____ _____    ______ ____
ROOT
ATOM      1  C   UNL     1      45.476  34.652   1.996  0.00  0.00    +0.051 A 
ATOM      2  C   UNL     1      45.352  35.150   0.699  0.00  0.00    +0.121 A 
ATOM      3  C   UNL     1      44.146  35.177   0.071  0.00  0.00    +0.007 A 
ATOM      4  C   UNL     1      43.001  34.694   0.733  0.00  0.00    +0.158 A 
ATOM      5  C   UNL     1      43.131  34.187   2.052  0.00  0.00    -0.067 A 
ATOM      6  C   UNL     1      41.993  33.703   2.719  0.00  0.00    +0.193 A 
ATOM      7  C   UNL     1      40.781  33.740   2.054  0.00  0.00    +0.098 A 
ATOM      8  C   UNL     1      40.726  34.259   0.741  0.00  0.00    +0.196 A 
ATOM      9  C   UNL     1      39.314  34.161   0.321  0.00  0.00    -0.159 A 
ATOM     10  C   UNL     1      38.639  34.504  -0.848  0.00  0.00    +0.099 A 
ATOM     11  C   UNL     1      37.282  34.287  -0.945  0.00  0.00    +0.011 A 
ATOM     12  C   UNL     1      36.587  33.727   0.117  0.00  0.00    +0.116 A 
ATOM     13  C   UNL     1      37.240  33.388   1.282  0.00  0.00    +0.003 A 
ATOM     14  C   UNL     1      38.612  33.595   1.397  0.00  0.00    +0.206 A 
ATOM     15  N   UNL     1      39.506  33.349   2.425  0.00  0.00    -0.613 N 
ATOM     16  H   UNL     1      39.331  32.915   3.421  0.00  0.00    +0.471 HD
ATOM     17  N   UNL     1      41.809  34.708   0.135  0.00  0.00    -0.458 N 
ATOM     18  H   UNL     1      41.713  35.102  -0.888  0.00  0.00    +0.478 HD
ATOM     19  C   UNL     1      44.394  34.177   2.670  0.00  0.00    +0.091 A 
ENDROOT
TORSDOF 0
ENDMDL
MODEL 9
REMARK VINA RESULT:      -5.3     21.332     22.694
REMARK  Name = ZINC01724917
REMARK  0 active torsions:
REMARK  status: ('A' for Active; 'I' for Inactive)
REMARK                            x       y       z     vdW  Elec       q    Type
REMARK                         _______ _______ _______ _____ _____    ______ ____
ROOT
ATOM      1  C   UNL     1      51.595  34.271   6.997  0.00  0.00    +0.051 A 
ATOM      2  C   UNL     1      51.140  33.380   6.024  0.00  0.00    +0.121 A 
ATOM      3  C   UNL     1      52.009  32.741   5.197  0.00  0.00    +0.007 A 
ATOM      4  C   UNL     1      53.392  32.977   5.316  0.00  0.00    +0.158 A 
ATOM      5  C   UNL     1      53.852  33.884   6.307  0.00  0.00    -0.067 A 
ATOM      6  C   UNL     1      55.231  34.125   6.431  0.00  0.00    +0.193 A 
ATOM      7  C   UNL     1      56.090  33.462   5.575  0.00  0.00    +0.098 A 
ATOM      8  C   UNL     1      55.562  32.572   4.612  0.00  0.00    +0.196 A 
ATOM      9  C   UNL     1      56.720  32.037   3.870  0.00  0.00    -0.159 A 
ATOM     10  C   UNL     1      56.844  31.132   2.818  0.00  0.00    +0.099 A 
ATOM     11  C   UNL     1      58.093  30.822   2.326  0.00  0.00    +0.011 A 
ATOM     12  C   UNL     1      59.224  31.408   2.873  0.00  0.00    +0.116 A 
ATOM     13  C   UNL     1      59.117  32.300   3.917  0.00  0.00    +0.003 A 
ATOM     14  C   UNL     1      57.863  32.630   4.425  0.00  0.00    +0.206 A 
ATOM     15  N   UNL     1      57.468  33.480   5.444  0.00  0.00    -0.613 N 
ATOM     16  H   UNL     1      58.076  34.115   6.106  0.00  0.00    +0.471 HD
ATOM     17  N   UNL     1      54.262  32.362   4.514  0.00  0.00    -0.458 N 
ATOM     18  H   UNL     1      53.901  31.659   3.748  0.00  0.00    +0.478 HD
ATOM     19  C   UNL     1      52.923  34.526   7.144  0.00  0.00    +0.091 A 
ENDROOT
TORSDOF 0
ENDMDL
