MODEL 1
REMARK VINA RESULT:      -5.2      0.000      0.000
REMARK  Name = ZINC71791185
REMARK  11 active torsions:
REMARK  status: ('A' for Active; 'I' for Inactive)
REMARK    1  A    between atoms: C1_1  and  C2_2
REMARK    2  A    between atoms: C2_2  and  C3_3
REMARK    3  A    between atoms: C2_2  and  C4_4
REMARK    4  A    between atoms: C4_4  and  N1_5
REMARK    5  A    between atoms: C5_6  and  C6_8
REMARK    6  A    between atoms: C7_9  and  C8_10
REMARK    7  A    between atoms: C9_11  and  C10_12
REMARK    8  A    between atoms: C10_12  and  C11_13
REMARK    9  A    between atoms: C11_13  and  C12_14
REMARK   10  A    between atoms: C12_14  and  C13_15
REMARK   11  A    between atoms: C13_15  and  O2_16
REMARK                            x       y       z     vdW  Elec       q    Type
REMARK                         _______ _______ _______ _____ _____    ______ ____
ROOT
ATOM      7  C   UNL     1      45.909  21.325  19.489  0.00  0.00    -0.094 C 
ATOM      8  C   UNL     1      46.834  21.453  20.466  0.00  0.00    +0.105 C 
ENDROOT
BRANCH   7   6
ATOM      4  N   UNL     1      43.547  21.397  18.898  0.00  0.00    -0.727 N 
ATOM      5  H   UNL     1      43.734  20.780  18.173  0.00  0.00    +0.401 HD
ATOM      6  C   UNL     1      44.545  21.809  19.706  0.00  0.00    +0.545 C 
ATOM     17  O   UNL     1      44.311  22.583  20.615  0.00  0.00    -0.548 OA
BRANCH   4   3
ATOM      3  C   UNL     1      42.182  21.882  19.115  0.00  0.00    +0.259 C 
BRANCH   3   2
ATOM      1  C   UNL     1      41.112  19.737  19.822  0.00  0.00    +0.021 C 
ATOM      2  C   UNL     1      41.185  20.792  18.716  0.00  0.00    -0.032 C 
ATOM     18  C   UNL     1      39.802  21.416  18.513  0.00  0.00    +0.032 C 
ENDBRANCH   3   2
ENDBRANCH   4   3
ENDBRANCH   7   6
BRANCH   8   9
ATOM      9  C   UNL     1      48.198  20.970  20.248  0.00  0.00    -0.037 C 
ATOM     10  C   UNL     1      48.569  20.543  19.040  0.00  0.00    +0.008 C 
BRANCH  10  11
ATOM     11  C   UNL     1      49.974  20.046  18.815  0.00  0.00    +0.056 C 
BRANCH  11  12
ATOM     12  C   UNL     1      50.851  21.200  18.324  0.00  0.00    +0.021 C 
BRANCH  12  13
ATOM     13  C   UNL     1      52.120  20.637  17.680  0.00  0.00    +0.019 C 
BRANCH  13  14
ATOM     14  C   UNL     1      51.951  20.613  16.159  0.00  0.00    +0.165 C 
BRANCH  14  15
ATOM     15  O   UNL     1      51.724  21.941  15.684  0.00  0.00    -0.577 OA
ATOM     16  H   UNL     1      52.305  22.204  14.957  0.00  0.00    +0.381 HD
ENDBRANCH  14  15
ENDBRANCH  13  14
ENDBRANCH  12  13
ENDBRANCH  11  12
ENDBRANCH  10  11
ENDBRANCH   8   9
TORSDOF 9
ENDMDL
MODEL 2
REMARK VINA RESULT:      -5.1      1.537      1.892
REMARK  Name = ZINC71791185
REMARK  11 active torsions:
REMARK  status: ('A' for Active; 'I' for Inactive)
REMARK    1  A    between atoms: C1_1  and  C2_2
REMARK    2  A    between atoms: C2_2  and  C3_3
REMARK    3  A    between atoms: C2_2  and  C4_4
REMARK    4  A    between atoms: C4_4  and  N1_5
REMARK    5  A    between atoms: C5_6  and  C6_8
REMARK    6  A    between atoms: C7_9  and  C8_10
REMARK    7  A    between atoms: C9_11  and  C10_12
REMARK    8  A    between atoms: C10_12  and  C11_13
REMARK    9  A    between atoms: C11_13  and  C12_14
REMARK   10  A    between atoms: C12_14  and  C13_15
REMARK   11  A    between atoms: C13_15  and  O2_16
REMARK                            x       y       z     vdW  Elec       q    Type
REMARK                         _______ _______ _______ _____ _____    ______ ____
ROOT
ATOM      7  C   UNL     1      46.857  20.725  18.729  0.00  0.00    -0.094 C 
ATOM      8  C   UNL     1      48.039  20.628  19.378  0.00  0.00    +0.105 C 
ENDROOT
BRANCH   7   6
ATOM      4  N   UNL     1      44.528  21.414  18.911  0.00  0.00    -0.727 N 
ATOM      5  H   UNL     1      44.571  21.717  17.990  0.00  0.00    +0.401 HD
ATOM      6  C   UNL     1      45.615  20.865  19.490  0.00  0.00    +0.545 C 
ATOM     17  O   UNL     1      45.564  20.486  20.645  0.00  0.00    -0.548 OA
BRANCH   4   3
ATOM      3  C   UNL     1      43.285  21.555  19.674  0.00  0.00    +0.259 C 
BRANCH   3   2
ATOM      1  C   UNL     1      41.715  19.626  19.915  0.00  0.00    +0.021 C 
ATOM      2  C   UNL     1      42.175  20.754  18.990  0.00  0.00    -0.032 C 
ATOM     18  C   UNL     1      40.994  21.679  18.686  0.00  0.00    +0.032 C 
ENDBRANCH   3   2
ENDBRANCH   4   3
ENDBRANCH   7   6
BRANCH   8   9
ATOM      9  C   UNL     1      49.281  20.488  18.616  0.00  0.00    -0.037 C 
ATOM     10  C   UNL     1      50.408  21.039  19.072  0.00  0.00    +0.008 C 
BRANCH  10  11
ATOM     11  C   UNL     1      51.687  20.894  18.288  0.00  0.00    +0.056 C 
BRANCH  11  12
ATOM     12  C   UNL     1      51.407  21.144  16.804  0.00  0.00    +0.021 C 
BRANCH  12  13
ATOM     13  C   UNL     1      52.217  20.158  15.961  0.00  0.00    +0.019 C 
BRANCH  13  14
ATOM     14  C   UNL     1      51.574  18.771  16.040  0.00  0.00    +0.165 C 
BRANCH  14  15
ATOM     15  O   UNL     1      52.393  17.826  15.349  0.00  0.00    -0.577 OA
ATOM     16  H   UNL     1      52.655  18.107  14.462  0.00  0.00    +0.381 HD
ENDBRANCH  14  15
ENDBRANCH  13  14
ENDBRANCH  12  13
ENDBRANCH  11  12
ENDBRANCH  10  11
ENDBRANCH   8   9
TORSDOF 9
ENDMDL
MODEL 3
REMARK VINA RESULT:      -4.7      2.713      8.470
REMARK  Name = ZINC71791185
REMARK  11 active torsions:
REMARK  status: ('A' for Active; 'I' for Inactive)
REMARK    1  A    between atoms: C1_1  and  C2_2
REMARK    2  A    between atoms: C2_2  and  C3_3
REMARK    3  A    between atoms: C2_2  and  C4_4
REMARK    4  A    between atoms: C4_4  and  N1_5
REMARK    5  A    between atoms: C5_6  and  C6_8
REMARK    6  A    between atoms: C7_9  and  C8_10
REMARK    7  A    between atoms: C9_11  and  C10_12
REMARK    8  A    between atoms: C10_12  and  C11_13
REMARK    9  A    between atoms: C11_13  and  C12_14
REMARK   10  A    between atoms: C12_14  and  C13_15
REMARK   11  A    between atoms: C13_15  and  O2_16
REMARK                            x       y       z     vdW  Elec       q    Type
REMARK                         _______ _______ _______ _____ _____    ______ ____
ROOT
ATOM      7  C   UNL     1      47.981  20.920  19.161  0.00  0.00    -0.094 C 
ATOM      8  C   UNL     1      46.891  20.250  18.725  0.00  0.00    +0.105 C 
ENDROOT
BRANCH   7   6
ATOM      4  N   UNL     1      50.343  20.796  18.580  0.00  0.00    -0.727 N 
ATOM      5  H   UNL     1      50.245  21.634  18.100  0.00  0.00    +0.401 HD
ATOM      6  C   UNL     1      49.281  20.250  19.206  0.00  0.00    +0.545 C 
ATOM     17  O   UNL     1      49.404  19.199  19.806  0.00  0.00    -0.548 OA
BRANCH   4   3
ATOM      3  C   UNL     1      51.644  20.125  18.624  0.00  0.00    +0.259 C 
BRANCH   3   2
ATOM      1  C   UNL     1      51.537  18.600  16.648  0.00  0.00    +0.021 C 
ATOM      2  C   UNL     1      52.146  19.892  17.198  0.00  0.00    -0.032 C 
ATOM     18  C   UNL     1      51.730  21.070  16.313  0.00  0.00    +0.032 C 
ENDBRANCH   3   2
ENDBRANCH   4   3
ENDBRANCH   7   6
BRANCH   8   9
ATOM      9  C   UNL     1      45.591  20.921  18.681  0.00  0.00    -0.037 C 
ATOM     10  C   UNL     1      44.703  20.719  19.656  0.00  0.00    +0.008 C 
BRANCH  10  11
ATOM     11  C   UNL     1      43.364  21.410  19.611  0.00  0.00    +0.056 C 
BRANCH  11  12
ATOM     12  C   UNL     1      42.250  20.361  19.597  0.00  0.00    +0.021 C 
BRANCH  12  13
ATOM     13  C   UNL     1      41.602  20.324  18.212  0.00  0.00    +0.019 C 
BRANCH  13  14
ATOM     14  C   UNL     1      40.135  20.745  18.323  0.00  0.00    +0.165 C 
BRANCH  14  15
ATOM     15  O   UNL     1      40.044  22.170  18.278  0.00  0.00    -0.577 OA
ATOM     16  H   UNL     1      40.846  22.606  17.959  0.00  0.00    +0.381 HD
ENDBRANCH  14  15
ENDBRANCH  13  14
ENDBRANCH  12  13
ENDBRANCH  11  12
ENDBRANCH  10  11
ENDBRANCH   8   9
TORSDOF 9
ENDMDL
MODEL 4
REMARK VINA RESULT:      -4.5     18.971     21.191
REMARK  Name = ZINC71791185
REMARK  11 active torsions:
REMARK  status: ('A' for Active; 'I' for Inactive)
REMARK    1  A    between atoms: C1_1  and  C2_2
REMARK    2  A    between atoms: C2_2  and  C3_3
REMARK    3  A    between atoms: C2_2  and  C4_4
REMARK    4  A    between atoms: C4_4  and  N1_5
REMARK    5  A    between atoms: C5_6  and  C6_8
REMARK    6  A    between atoms: C7_9  and  C8_10
REMARK    7  A    between atoms: C9_11  and  C10_12
REMARK    8  A    between atoms: C10_12  and  C11_13
REMARK    9  A    between atoms: C11_13  and  C12_14
REMARK   10  A    between atoms: C12_14  and  C13_15
REMARK   11  A    between atoms: C13_15  and  O2_16
REMARK                            x       y       z     vdW  Elec       q    Type
REMARK                         _______ _______ _______ _____ _____    ______ ____
ROOT
ATOM      7  C   UNL     1      47.817  34.451   3.065  0.00  0.00    -0.094 C 
ATOM      8  C   UNL     1      46.963  35.247   3.748  0.00  0.00    +0.105 C 
ENDROOT
BRANCH   7   6
ATOM      4  N   UNL     1      49.900  33.843   4.169  0.00  0.00    -0.727 N 
ATOM      5  H   UNL     1      49.403  33.204   4.704  0.00  0.00    +0.401 HD
ATOM      6  C   UNL     1      49.260  34.597   3.253  0.00  0.00    +0.545 C 
ATOM     17  O   UNL     1      49.883  35.398   2.583  0.00  0.00    -0.548 OA
BRANCH   4   3
ATOM      3  C   UNL     1      51.346  33.989   4.358  0.00  0.00    +0.259 C 
BRANCH   3   2
ATOM      1  C   UNL     1      53.179  33.541   5.996  0.00  0.00    +0.021 C 
ATOM      2  C   UNL     1      51.804  33.083   5.502  0.00  0.00    -0.032 C 
ATOM     18  C   UNL     1      50.796  33.163   6.651  0.00  0.00    +0.032 C 
ENDBRANCH   3   2
ENDBRANCH   4   3
ENDBRANCH   7   6
BRANCH   8   9
ATOM      9  C   UNL     1      45.520  35.101   3.560  0.00  0.00    -0.037 C 
ATOM     10  C   UNL     1      45.048  34.237   2.660  0.00  0.00    +0.008 C 
BRANCH  10  11
ATOM     11  C   UNL     1      43.561  34.086   2.466  0.00  0.00    +0.056 C 
BRANCH  11  12
ATOM     12  C   UNL     1      43.144  32.656   2.817  0.00  0.00    +0.021 C 
BRANCH  12  13
ATOM     13  C   UNL     1      43.437  31.735   1.632  0.00  0.00    +0.019 C 
BRANCH  13  14
ATOM     14  C   UNL     1      42.570  30.478   1.736  0.00  0.00    +0.165 C 
BRANCH  14  15
ATOM     15  O   UNL     1      41.966  30.422   3.030  0.00  0.00    -0.577 OA
ATOM     16  H   UNL     1      41.001  30.377   3.012  0.00  0.00    +0.381 HD
ENDBRANCH  14  15
ENDBRANCH  13  14
ENDBRANCH  12  13
ENDBRANCH  11  12
ENDBRANCH  10  11
ENDBRANCH   8   9
TORSDOF 9
ENDMDL
MODEL 5
REMARK VINA RESULT:      -4.5      2.551      3.174
REMARK  Name = ZINC71791185
REMARK  11 active torsions:
REMARK  status: ('A' for Active; 'I' for Inactive)
REMARK    1  A    between atoms: C1_1  and  C2_2
REMARK    2  A    between atoms: C2_2  and  C3_3
REMARK    3  A    between atoms: C2_2  and  C4_4
REMARK    4  A    between atoms: C4_4  and  N1_5
REMARK    5  A    between atoms: C5_6  and  C6_8
REMARK    6  A    between atoms: C7_9  and  C8_10
REMARK    7  A    between atoms: C9_11  and  C10_12
REMARK    8  A    between atoms: C10_12  and  C11_13
REMARK    9  A    between atoms: C11_13  and  C12_14
REMARK   10  A    between atoms: C12_14  and  C13_15
REMARK   11  A    between atoms: C13_15  and  O2_16
REMARK                            x       y       z     vdW  Elec       q    Type
REMARK                         _______ _______ _______ _____ _____    ______ ____
ROOT
ATOM      7  C   UNL     1      47.823  20.050  18.897  0.00  0.00    -0.094 C 
ATOM      8  C   UNL     1      48.595  20.817  19.699  0.00  0.00    +0.105 C 
ENDROOT
BRANCH   7   6
ATOM      4  N   UNL     1      45.818  21.255  19.577  0.00  0.00    -0.727 N 
ATOM      5  H   UNL     1      46.380  21.845  20.104  0.00  0.00    +0.401 HD
ATOM      6  C   UNL     1      46.373  20.250  18.870  0.00  0.00    +0.545 C 
ATOM     17  O   UNL     1      45.669  19.510  18.210  0.00  0.00    -0.548 OA
BRANCH   4   3
ATOM      3  C   UNL     1      44.367  21.455  19.550  0.00  0.00    +0.259 C 
BRANCH   3   2
ATOM      1  C   UNL     1      44.696  22.988  21.496  0.00  0.00    +0.021 C 
ATOM      2  C   UNL     1      44.032  22.832  20.126  0.00  0.00    -0.032 C 
ATOM     18  C   UNL     1      44.548  23.919  19.181  0.00  0.00    +0.032 C 
ENDBRANCH   3   2
ENDBRANCH   4   3
ENDBRANCH   7   6
BRANCH   8   9
ATOM      9  C   UNL     1      50.044  20.617  19.727  0.00  0.00    -0.037 C 
ATOM     10  C   UNL     1      50.795  21.044  18.710  0.00  0.00    +0.008 C 
BRANCH  10  11
ATOM     11  C   UNL     1      52.288  20.839  18.738  0.00  0.00    +0.056 C 
BRANCH  11  12
ATOM     12  C   UNL     1      52.643  19.572  17.956  0.00  0.00    +0.021 C 
BRANCH  12  13
ATOM     13  C   UNL     1      52.140  19.704  16.518  0.00  0.00    +0.019 C 
BRANCH  13  14
ATOM     14  C   UNL     1      51.514  18.379  16.074  0.00  0.00    +0.165 C 
BRANCH  14  15
ATOM     15  O   UNL     1      52.433  17.675  15.237  0.00  0.00    -0.577 OA
ATOM     16  H   UNL     1      53.299  18.098  15.159  0.00  0.00    +0.381 HD
ENDBRANCH  14  15
ENDBRANCH  13  14
ENDBRANCH  12  13
ENDBRANCH  11  12
ENDBRANCH  10  11
ENDBRANCH   8   9
TORSDOF 9
ENDMDL
MODEL 6
REMARK VINA RESULT:      -4.3      2.990      3.403
REMARK  Name = ZINC71791185
REMARK  11 active torsions:
REMARK  status: ('A' for Active; 'I' for Inactive)
REMARK    1  A    between atoms: C1_1  and  C2_2
REMARK    2  A    between atoms: C2_2  and  C3_3
REMARK    3  A    between atoms: C2_2  and  C4_4
REMARK    4  A    between atoms: C4_4  and  N1_5
REMARK    5  A    between atoms: C5_6  and  C6_8
REMARK    6  A    between atoms: C7_9  and  C8_10
REMARK    7  A    between atoms: C9_11  and  C10_12
REMARK    8  A    between atoms: C10_12  and  C11_13
REMARK    9  A    between atoms: C11_13  and  C12_14
REMARK   10  A    between atoms: C12_14  and  C13_15
REMARK   11  A    between atoms: C13_15  and  O2_16
REMARK                            x       y       z     vdW  Elec       q    Type
REMARK                         _______ _______ _______ _____ _____    ______ ____
ROOT
ATOM      7  C   UNL     1      47.046  18.184  19.398  0.00  0.00    -0.094 C 
ATOM      8  C   UNL     1      47.519  19.392  19.017  0.00  0.00    +0.105 C 
ENDROOT
BRANCH   7   6
ATOM      4  N   UNL     1      44.817  18.980  19.973  0.00  0.00    -0.727 N 
ATOM      5  H   UNL     1      45.207  19.841  20.193  0.00  0.00    +0.401 HD
ATOM      6  C   UNL     1      45.604  17.975  19.537  0.00  0.00    +0.545 C 
ATOM     17  O   UNL     1      45.116  16.896  19.261  0.00  0.00    -0.548 OA
BRANCH   4   3
ATOM      3  C   UNL     1      43.374  18.770  20.113  0.00  0.00    +0.259 C 
BRANCH   3   2
ATOM      1  C   UNL     1      43.019  17.366  22.149  0.00  0.00    +0.021 C 
ATOM      2  C   UNL     1      42.998  18.793  21.596  0.00  0.00    -0.032 C 
ATOM     18  C   UNL     1      44.004  19.653  22.364  0.00  0.00    +0.032 C 
ENDBRANCH   3   2
ENDBRANCH   4   3
ENDBRANCH   7   6
BRANCH   8   9
ATOM      9  C   UNL     1      48.961  19.601  18.877  0.00  0.00    -0.037 C 
ATOM     10  C   UNL     1      49.451  20.839  18.807  0.00  0.00    +0.008 C 
BRANCH  10  11
ATOM     11  C   UNL     1      50.936  21.055  18.664  0.00  0.00    +0.056 C 
BRANCH  11  12
ATOM     12  C   UNL     1      51.319  20.998  17.183  0.00  0.00    +0.021 C 
BRANCH  12  13
ATOM     13  C   UNL     1      52.242  19.802  16.942  0.00  0.00    +0.019 C 
BRANCH  13  14
ATOM     14  C   UNL     1      51.460  18.687  16.244  0.00  0.00    +0.165 C 
BRANCH  14  15
ATOM     15  O   UNL     1      52.324  17.993  15.341  0.00  0.00    -0.577 OA
ATOM     16  H   UNL     1      52.038  17.092  15.138  0.00  0.00    +0.381 HD
ENDBRANCH  14  15
ENDBRANCH  13  14
ENDBRANCH  12  13
ENDBRANCH  11  12
ENDBRANCH  10  11
ENDBRANCH   8   9
TORSDOF 9
ENDMDL
MODEL 7
REMARK VINA RESULT:      -4.3      2.489      3.026
REMARK  Name = ZINC71791185
REMARK  11 active torsions:
REMARK  status: ('A' for Active; 'I' for Inactive)
REMARK    1  A    between atoms: C1_1  and  C2_2
REMARK    2  A    between atoms: C2_2  and  C3_3
REMARK    3  A    between atoms: C2_2  and  C4_4
REMARK    4  A    between atoms: C4_4  and  N1_5
REMARK    5  A    between atoms: C5_6  and  C6_8
REMARK    6  A    between atoms: C7_9  and  C8_10
REMARK    7  A    between atoms: C9_11  and  C10_12
REMARK    8  A    between atoms: C10_12  and  C11_13
REMARK    9  A    between atoms: C11_13  and  C12_14
REMARK   10  A    between atoms: C12_14  and  C13_15
REMARK   11  A    between atoms: C13_15  and  O2_16
REMARK                            x       y       z     vdW  Elec       q    Type
REMARK                         _______ _______ _______ _____ _____    ______ ____
ROOT
ATOM      7  C   UNL     1      47.119  21.193  20.271  0.00  0.00    -0.094 C 
ATOM      8  C   UNL     1      47.827  20.296  19.549  0.00  0.00    +0.105 C 
ENDROOT
BRANCH   7   6
ATOM      4  N   UNL     1      44.941  20.106  20.346  0.00  0.00    -0.727 N 
ATOM      5  H   UNL     1      45.031  19.914  19.399  0.00  0.00    +0.401 HD
ATOM      6  C   UNL     1      45.921  20.767  20.995  0.00  0.00    +0.545 C 
ATOM     17  O   UNL     1      45.809  21.009  22.182  0.00  0.00    -0.548 OA
BRANCH   4   3
ATOM      3  C   UNL     1      43.742  19.680  21.071  0.00  0.00    +0.259 C 
BRANCH   3   2
ATOM      1  C   UNL     1      44.595  17.620  19.945  0.00  0.00    +0.021 C 
ATOM      2  C   UNL     1      43.603  18.160  20.977  0.00  0.00    -0.032 C 
ATOM     18  C   UNL     1      43.897  17.536  22.343  0.00  0.00    +0.032 C 
ENDBRANCH   3   2
ENDBRANCH   4   3
ENDBRANCH   7   6
BRANCH   8   9
ATOM      9  C   UNL     1      49.025  20.722  18.825  0.00  0.00    -0.037 C 
ATOM     10  C   UNL     1      50.213  20.702  19.432  0.00  0.00    +0.008 C 
BRANCH  10  11
ATOM     11  C   UNL     1      51.447  21.141  18.686  0.00  0.00    +0.056 C 
BRANCH  11  12
ATOM     12  C   UNL     1      51.132  21.240  17.192  0.00  0.00    +0.021 C 
BRANCH  12  13
ATOM     13  C   UNL     1      52.145  20.410  16.401  0.00  0.00    +0.019 C 
BRANCH  13  14
ATOM     14  C   UNL     1      51.553  19.030  16.106  0.00  0.00    +0.165 C 
BRANCH  14  15
ATOM     15  O   UNL     1      52.225  18.045  16.894  0.00  0.00    -0.577 OA
ATOM     16  H   UNL     1      52.123  17.142  16.565  0.00  0.00    +0.381 HD
ENDBRANCH  14  15
ENDBRANCH  13  14
ENDBRANCH  12  13
ENDBRANCH  11  12
ENDBRANCH  10  11
ENDBRANCH   8   9
TORSDOF 9
ENDMDL
MODEL 8
REMARK VINA RESULT:      -4.2      6.565      9.202
REMARK  Name = ZINC71791185
REMARK  11 active torsions:
REMARK  status: ('A' for Active; 'I' for Inactive)
REMARK    1  A    between atoms: C1_1  and  C2_2
REMARK    2  A    between atoms: C2_2  and  C3_3
REMARK    3  A    between atoms: C2_2  and  C4_4
REMARK    4  A    between atoms: C4_4  and  N1_5
REMARK    5  A    between atoms: C5_6  and  C6_8
REMARK    6  A    between atoms: C7_9  and  C8_10
REMARK    7  A    between atoms: C9_11  and  C10_12
REMARK    8  A    between atoms: C10_12  and  C11_13
REMARK    9  A    between atoms: C11_13  and  C12_14
REMARK   10  A    between atoms: C12_14  and  C13_15
REMARK   11  A    between atoms: C13_15  and  O2_16
REMARK                            x       y       z     vdW  Elec       q    Type
REMARK                         _______ _______ _______ _____ _____    ______ ____
ROOT
ATOM      7  C   UNL     1      50.545  16.101  16.910  0.00  0.00    -0.094 C 
ATOM      8  C   UNL     1      49.527  15.357  17.395  0.00  0.00    +0.105 C 
ENDROOT
BRANCH   7   6
ATOM      4  N   UNL     1      52.015  18.026  17.169  0.00  0.00    -0.727 N 
ATOM      5  H   UNL     1      52.330  17.878  16.263  0.00  0.00    +0.401 HD
ATOM      6  C   UNL     1      51.082  17.209  17.700  0.00  0.00    +0.545 C 
ATOM     17  O   UNL     1      50.688  17.394  18.836  0.00  0.00    -0.548 OA
BRANCH   4   3
ATOM      3  C   UNL     1      52.553  19.135  17.961  0.00  0.00    +0.259 C 
BRANCH   3   2
ATOM      1  C   UNL     1      51.829  20.266  15.853  0.00  0.00    +0.021 C 
ATOM      2  C   UNL     1      52.108  20.463  17.345  0.00  0.00    -0.032 C 
ATOM     18  C   UNL     1      50.835  20.947  18.042  0.00  0.00    +0.032 C 
ENDBRANCH   3   2
ENDBRANCH   4   3
ENDBRANCH   7   6
BRANCH   8   9
ATOM      9  C   UNL     1      48.990  14.249  16.605  0.00  0.00    -0.037 C 
ATOM     10  C   UNL     1      49.807  13.507  15.855  0.00  0.00    +0.008 C 
BRANCH  10  11
ATOM     11  C   UNL     1      49.255  12.365  15.041  0.00  0.00    +0.056 C 
BRANCH  11  12
ATOM     12  C   UNL     1      50.299  11.918  14.015  0.00  0.00    +0.021 C 
BRANCH  12  13
ATOM     13  C   UNL     1      51.075  13.138  13.514  0.00  0.00    +0.019 C 
BRANCH  13  14
ATOM     14  C   UNL     1      51.127  13.115  11.985  0.00  0.00    +0.165 C 
BRANCH  14  15
ATOM     15  O   UNL     1      52.229  13.907  11.534  0.00  0.00    -0.577 OA
ATOM     16  H   UNL     1      53.058  13.416  11.453  0.00  0.00    +0.381 HD
ENDBRANCH  14  15
ENDBRANCH  13  14
ENDBRANCH  12  13
ENDBRANCH  11  12
ENDBRANCH  10  11
ENDBRANCH   8   9
TORSDOF 9
ENDMDL
MODEL 9
REMARK VINA RESULT:      -4.1      2.300      2.548
REMARK  Name = ZINC71791185
REMARK  11 active torsions:
REMARK  status: ('A' for Active; 'I' for Inactive)
REMARK    1  A    between atoms: C1_1  and  C2_2
REMARK    2  A    between atoms: C2_2  and  C3_3
REMARK    3  A    between atoms: C2_2  and  C4_4
REMARK    4  A    between atoms: C4_4  and  N1_5
REMARK    5  A    between atoms: C5_6  and  C6_8
REMARK    6  A    between atoms: C7_9  and  C8_10
REMARK    7  A    between atoms: C9_11  and  C10_12
REMARK    8  A    between atoms: C10_12  and  C11_13
REMARK    9  A    between atoms: C11_13  and  C12_14
REMARK   10  A    between atoms: C12_14  and  C13_15
REMARK   11  A    between atoms: C13_15  and  O2_16
REMARK                            x       y       z     vdW  Elec       q    Type
REMARK                         _______ _______ _______ _____ _____    ______ ____
ROOT
ATOM      7  C   UNL     1      46.214  20.420  18.725  0.00  0.00    -0.094 C 
ATOM      8  C   UNL     1      46.142  19.118  18.372  0.00  0.00    +0.105 C 
ENDROOT
BRANCH   7   6
ATOM      4  N   UNL     1      43.786  20.592  18.817  0.00  0.00    -0.727 N 
ATOM      5  H   UNL     1      43.733  19.680  18.488  0.00  0.00    +0.401 HD
ATOM      6  C   UNL     1      44.989  21.169  19.011  0.00  0.00    +0.545 C 
ATOM     17  O   UNL     1      45.057  22.311  19.422  0.00  0.00    -0.548 OA
BRANCH   4   3
ATOM      3  C   UNL     1      42.560  21.341  19.102  0.00  0.00    +0.259 C 
BRANCH   3   2
ATOM      1  C   UNL     1      41.190  19.464  20.020  0.00  0.00    +0.021 C 
ATOM      2  C   UNL     1      41.346  20.445  18.855  0.00  0.00    -0.032 C 
ATOM     18  C   UNL     1      40.088  21.309  18.745  0.00  0.00    +0.032 C 
ENDBRANCH   3   2
ENDBRANCH   4   3
ENDBRANCH   7   6
BRANCH   8   9
ATOM      9  C   UNL     1      47.366  18.369  18.086  0.00  0.00    -0.037 C 
ATOM     10  C   UNL     1      47.775  17.415  18.924  0.00  0.00    +0.008 C 
BRANCH  10  11
ATOM     11  C   UNL     1      49.036  16.643  18.630  0.00  0.00    +0.056 C 
BRANCH  11  12
ATOM     12  C   UNL     1      49.548  17.014  17.237  0.00  0.00    +0.021 C 
BRANCH  12  13
ATOM     13  C   UNL     1      51.002  17.478  17.336  0.00  0.00    +0.019 C 
BRANCH  13  14
ATOM     14  C   UNL     1      51.280  18.518  16.248  0.00  0.00    +0.165 C 
BRANCH  14  15
ATOM     15  O   UNL     1      52.307  18.035  15.378  0.00  0.00    -0.577 OA
ATOM     16  H   UNL     1      52.426  17.076  15.406  0.00  0.00    +0.381 HD
ENDBRANCH  14  15
ENDBRANCH  13  14
ENDBRANCH  12  13
ENDBRANCH  11  12
ENDBRANCH  10  11
ENDBRANCH   8   9
TORSDOF 9
ENDMDL
