MODEL 1
REMARK VINA RESULT:      -7.0      0.000      0.000
REMARK  Name = ZINC95485944
REMARK  17 active torsions:
REMARK  status: ('A' for Active; 'I' for Inactive)
REMARK    1  A    between atoms: C1_1  and  C2_2
REMARK    2  A    between atoms: C2_2  and  C3_3
REMARK    3  A    between atoms: C3_3  and  C4_5
REMARK    4  A    between atoms: C3_3  and  C32_48
REMARK    5  A    between atoms: C4_5  and  C5_6
REMARK    6  A    between atoms: C5_6  and  C6_7
REMARK    7  A    between atoms: C6_7  and  C7_9
REMARK    8  A    between atoms: C6_7  and  C8_10
REMARK    9  A    between atoms: C12_16  and  C31_47
REMARK   10  A    between atoms: C20_26  and  C30_46
REMARK   11  A    between atoms: C24_30  and  O1_32
REMARK   12  A    between atoms: O1_32  and  C25_33
REMARK   13  A    between atoms: C26_35  and  O5_45
REMARK   14  A    between atoms: C27_37  and  O4_44
REMARK   15  A    between atoms: C28_39  and  O3_43
REMARK   16  A    between atoms: C32_48  and  C33_49
REMARK   17  A    between atoms: C32_48  and  C34_50
REMARK                            x       y       z     vdW  Elec       q    Type
REMARK                         _______ _______ _______ _____ _____    ______ ____
ROOT
ATOM     10  C   UNL     1      50.552  15.459  18.775  0.00  0.00    -0.001 C 
ATOM     11  C   UNL     1      50.235  15.679  17.282  0.00  0.00    +0.004 C 
ATOM     12  C   UNL     1      48.835  15.076  17.037  0.00  0.00    +0.002 C 
ATOM     13  C   UNL     1      48.163  15.113  18.443  0.00  0.00    +0.003 C 
ATOM     14  C   UNL     1      47.711  16.560  18.668  0.00  0.00    +0.008 C 
ATOM     15  C   UNL     1      46.407  16.769  17.883  0.00  0.00    +0.059 C 
ATOM     16  C   UNL     1      45.829  18.115  18.198  0.00  0.00    -0.026 C 
ATOM     17  C   UNL     1      46.108  18.781  19.273  0.00  0.00    -0.108 C 
ATOM     18  C   UNL     1      47.067  18.288  20.363  0.00  0.00    -0.006 C 
ATOM     19  C   UNL     1      46.356  18.413  21.712  0.00  0.00    +0.025 C 
ATOM     20  C   UNL     1      48.308  19.174  20.409  0.00  0.00    +0.025 C 
ATOM     21  C   UNL     1      47.962  20.585  19.935  0.00  0.00    +0.013 C 
ATOM     22  C   UNL     1      46.543  20.972  20.347  0.00  0.00    -0.003 C 
ATOM     23  C   UNL     1      45.489  20.153  19.491  0.00  0.00    +0.202 C 
ATOM     37  C   UNL     1      47.447  16.826  20.158  0.00  0.00    +0.000 C 
ATOM     38  C   UNL     1      48.724  16.545  20.961  0.00  0.00    +0.013 C 
ATOM     39  C   UNL     1      49.088  15.071  20.810  0.00  0.00    +0.021 C 
ATOM     40  C   UNL     1      49.337  14.725  19.359  0.00  0.00    -0.048 C 
ATOM     41  C   UNL     1      49.571  13.217  19.257  0.00  0.00    +0.016 C 
ENDROOT
BRANCH  10   9
ATOM      9  C   UNL     1      50.744  16.804  19.479  0.00  0.00    +0.000 C 
ATOM     42  C   UNL     1      52.026  16.765  20.314  0.00  0.00    +0.003 C 
BRANCH   9   8
ATOM      8  C   UNL     1      50.850  17.916  18.433  0.00  0.00    +0.006 C 
BRANCH   8   7
ATOM      7  C   UNL     1      52.279  18.460  18.409  0.00  0.00    +0.008 C 
BRANCH   7   3
ATOM      3  C   UNL     1      52.264  19.916  17.939  0.00  0.00    -0.015 C 
BRANCH   3   4
ATOM      4  C   UNL     1      51.488  20.019  16.624  0.00  0.00    -0.021 C 
ATOM      5  C   UNL     1      52.168  19.152  15.563  0.00  0.00    +0.011 C 
ATOM      6  C   UNL     1      51.469  21.475  16.157  0.00  0.00    +0.008 C 
ENDBRANCH   3   4
BRANCH   3   2
ATOM      1  C   UNL     1      52.654  21.451  19.871  0.00  0.00    +0.004 C 
ATOM      2  C   UNL     1      51.587  20.786  19.000  0.00  0.00    +0.001 C 
ENDBRANCH   3   2
ENDBRANCH   7   3
ENDBRANCH   8   7
ENDBRANCH   9   8
ENDBRANCH  10   9
BRANCH  23  24
ATOM     24  O   UNL     1      44.259  20.026  20.207  0.00  0.00    -0.344 OA
BRANCH  24  25
ATOM     25  C   UNL     1      43.098  20.297  19.420  0.00  0.00    +0.286 C 
ATOM     26  C   UNL     1      43.042  21.791  19.089  0.00  0.00    +0.185 C 
ATOM     29  C   UNL     1      41.765  22.083  18.296  0.00  0.00    +0.200 C 
ATOM     32  C   UNL     1      40.554  21.625  19.114  0.00  0.00    +0.125 C 
ATOM     35  C   UNL     1      40.705  20.138  19.443  0.00  0.00    +0.210 C 
ATOM     36  O   UNL     1      41.927  19.930  20.153  0.00  0.00    -0.386 OA
BRANCH  26  27
ATOM     27  O   UNL     1      43.039  22.549  20.300  0.00  0.00    -0.538 OA
ATOM     28  H   UNL     1      42.562  23.388  20.238  0.00  0.00    +0.387 HD
ENDBRANCH  26  27
BRANCH  29  30
ATOM     30  O   UNL     1      41.670  23.488  18.044  0.00  0.00    -0.545 OA
ATOM     31  H   UNL     1      41.246  23.987  18.755  0.00  0.00    +0.388 HD
ENDBRANCH  29  30
BRANCH  32  33
ATOM     33  O   UNL     1      39.361  21.828  18.354  0.00  0.00    -0.563 OA
ATOM     34  H   UNL     1      39.005  22.725  18.415  0.00  0.00    +0.387 HD
ENDBRANCH  32  33
ENDBRANCH  24  25
ENDBRANCH  23  24
TORSDOF 11
ENDMDL
MODEL 2
REMARK VINA RESULT:      -6.8      1.214      4.408
REMARK  Name = ZINC95485944
REMARK  17 active torsions:
REMARK  status: ('A' for Active; 'I' for Inactive)
REMARK    1  A    between atoms: C1_1  and  C2_2
REMARK    2  A    between atoms: C2_2  and  C3_3
REMARK    3  A    between atoms: C3_3  and  C4_5
REMARK    4  A    between atoms: C3_3  and  C32_48
REMARK    5  A    between atoms: C4_5  and  C5_6
REMARK    6  A    between atoms: C5_6  and  C6_7
REMARK    7  A    between atoms: C6_7  and  C7_9
REMARK    8  A    between atoms: C6_7  and  C8_10
REMARK    9  A    between atoms: C12_16  and  C31_47
REMARK   10  A    between atoms: C20_26  and  C30_46
REMARK   11  A    between atoms: C24_30  and  O1_32
REMARK   12  A    between atoms: O1_32  and  C25_33
REMARK   13  A    between atoms: C26_35  and  O5_45
REMARK   14  A    between atoms: C27_37  and  O4_44
REMARK   15  A    between atoms: C28_39  and  O3_43
REMARK   16  A    between atoms: C32_48  and  C33_49
REMARK   17  A    between atoms: C32_48  and  C34_50
REMARK                            x       y       z     vdW  Elec       q    Type
REMARK                         _______ _______ _______ _____ _____    ______ ____
ROOT
ATOM     10  C   UNL     1      51.968  19.089  19.012  0.00  0.00    -0.001 C 
ATOM     11  C   UNL     1      51.986  18.217  20.284  0.00  0.00    +0.004 C 
ATOM     12  C   UNL     1      51.642  19.153  21.462  0.00  0.00    +0.002 C 
ATOM     13  C   UNL     1      50.847  20.316  20.794  0.00  0.00    +0.003 C 
ATOM     14  C   UNL     1      49.430  19.787  20.550  0.00  0.00    +0.008 C 
ATOM     15  C   UNL     1      48.673  19.847  21.886  0.00  0.00    +0.059 C 
ATOM     16  C   UNL     1      47.231  19.499  21.674  0.00  0.00    -0.026 C 
ATOM     17  C   UNL     1      46.631  19.591  20.530  0.00  0.00    -0.108 C 
ATOM     18  C   UNL     1      47.313  20.063  19.240  0.00  0.00    -0.006 C 
ATOM     19  C   UNL     1      46.443  21.157  18.617  0.00  0.00    +0.025 C 
ATOM     20  C   UNL     1      47.398  18.913  18.241  0.00  0.00    +0.025 C 
ATOM     21  C   UNL     1      46.249  17.932  18.473  0.00  0.00    +0.013 C 
ATOM     22  C   UNL     1      44.986  18.661  18.927  0.00  0.00    -0.003 C 
ATOM     23  C   UNL     1      45.170  19.188  20.411  0.00  0.00    +0.202 C 
ATOM     37  C   UNL     1      48.692  20.650  19.516  0.00  0.00    +0.000 C 
ATOM     38  C   UNL     1      49.483  20.658  18.200  0.00  0.00    +0.013 C 
ATOM     39  C   UNL     1      50.848  21.293  18.448  0.00  0.00    +0.021 C 
ATOM     40  C   UNL     1      51.625  20.509  19.481  0.00  0.00    -0.048 C 
ATOM     41  C   UNL     1      52.924  21.262  19.778  0.00  0.00    +0.016 C 
ENDROOT
BRANCH  10   9
ATOM      9  C   UNL     1      50.900  18.582  18.039  0.00  0.00    +0.000 C 
ATOM     42  C   UNL     1      51.494  18.491  16.632  0.00  0.00    +0.003 C 
BRANCH   9   8
ATOM      8  C   UNL     1      50.422  17.198  18.483  0.00  0.00    +0.006 C 
BRANCH   8   7
ATOM      7  C   UNL     1      49.858  16.443  17.278  0.00  0.00    +0.008 C 
BRANCH   7   3
ATOM      3  C   UNL     1      48.831  15.415  17.755  0.00  0.00    -0.015 C 
BRANCH   3   4
ATOM      4  C   UNL     1      49.178  14.041  17.177  0.00  0.00    -0.021 C 
ATOM      5  C   UNL     1      50.531  14.115  16.466  0.00  0.00    +0.011 C 
ATOM      6  C   UNL     1      48.099  13.622  16.177  0.00  0.00    +0.008 C 
ENDBRANCH   3   4
BRANCH   3   2
ATOM      1  C   UNL     1      47.570  14.676  19.782  0.00  0.00    +0.004 C 
ATOM      2  C   UNL     1      48.853  15.344  19.283  0.00  0.00    +0.001 C 
ENDBRANCH   3   2
ENDBRANCH   7   3
ENDBRANCH   8   7
ENDBRANCH   9   8
ENDBRANCH  10   9
BRANCH  23  24
ATOM     24  O   UNL     1      44.330  20.322  20.643  0.00  0.00    -0.344 OA
BRANCH  24  25
ATOM     25  C   UNL     1      43.199  20.394  19.774  0.00  0.00    +0.286 C 
ATOM     26  C   UNL     1      43.029  21.832  19.276  0.00  0.00    +0.185 C 
ATOM     29  C   UNL     1      41.780  21.914  18.393  0.00  0.00    +0.200 C 
ATOM     32  C   UNL     1      40.568  21.429  19.194  0.00  0.00    +0.125 C 
ATOM     35  C   UNL     1      40.833  20.007  19.694  0.00  0.00    +0.210 C 
ATOM     36  O   UNL     1      42.025  19.995  20.484  0.00  0.00    -0.386 OA
BRANCH  26  27
ATOM     27  O   UNL     1      42.883  22.710  20.393  0.00  0.00    -0.538 OA
ATOM     28  H   UNL     1      42.800  23.643  20.152  0.00  0.00    +0.387 HD
ENDBRANCH  26  27
BRANCH  29  30
ATOM     30  O   UNL     1      41.574  23.267  17.981  0.00  0.00    -0.545 OA
ATOM     31  H   UNL     1      40.649  23.489  17.809  0.00  0.00    +0.388 HD
ENDBRANCH  29  30
BRANCH  32  33
ATOM     33  O   UNL     1      39.410  21.434  18.358  0.00  0.00    -0.563 OA
ATOM     34  H   UNL     1      39.361  22.193  17.760  0.00  0.00    +0.387 HD
ENDBRANCH  32  33
ENDBRANCH  24  25
ENDBRANCH  23  24
TORSDOF 11
ENDMDL
MODEL 3
REMARK VINA RESULT:      -6.7      3.974      7.691
REMARK  Name = ZINC95485944
REMARK  17 active torsions:
REMARK  status: ('A' for Active; 'I' for Inactive)
REMARK    1  A    between atoms: C1_1  and  C2_2
REMARK    2  A    between atoms: C2_2  and  C3_3
REMARK    3  A    between atoms: C3_3  and  C4_5
REMARK    4  A    between atoms: C3_3  and  C32_48
REMARK    5  A    between atoms: C4_5  and  C5_6
REMARK    6  A    between atoms: C5_6  and  C6_7
REMARK    7  A    between atoms: C6_7  and  C7_9
REMARK    8  A    between atoms: C6_7  and  C8_10
REMARK    9  A    between atoms: C12_16  and  C31_47
REMARK   10  A    between atoms: C20_26  and  C30_46
REMARK   11  A    between atoms: C24_30  and  O1_32
REMARK   12  A    between atoms: O1_32  and  C25_33
REMARK   13  A    between atoms: C26_35  and  O5_45
REMARK   14  A    between atoms: C27_37  and  O4_44
REMARK   15  A    between atoms: C28_39  and  O3_43
REMARK   16  A    between atoms: C32_48  and  C33_49
REMARK   17  A    between atoms: C32_48  and  C34_50
REMARK                            x       y       z     vdW  Elec       q    Type
REMARK                         _______ _______ _______ _____ _____    ______ ____
ROOT
ATOM     10  C   UNL     1      50.053  20.786  20.032  0.00  0.00    -0.001 C 
ATOM     11  C   UNL     1      49.988  21.073  18.518  0.00  0.00    +0.004 C 
ATOM     12  C   UNL     1      50.955  20.078  17.841  0.00  0.00    +0.002 C 
ATOM     13  C   UNL     1      51.043  18.897  18.853  0.00  0.00    +0.003 C 
ATOM     14  C   UNL     1      49.763  18.073  18.670  0.00  0.00    +0.008 C 
ATOM     15  C   UNL     1      49.945  17.201  17.419  0.00  0.00    +0.059 C 
ATOM     16  C   UNL     1      48.792  16.253  17.283  0.00  0.00    -0.026 C 
ATOM     17  C   UNL     1      48.032  15.902  18.271  0.00  0.00    -0.108 C 
ATOM     18  C   UNL     1      48.204  16.410  19.708  0.00  0.00    -0.006 C 
ATOM     19  C   UNL     1      48.219  15.198  20.641  0.00  0.00    +0.025 C 
ATOM     20  C   UNL     1      47.015  17.282  20.101  0.00  0.00    +0.025 C 
ATOM     21  C   UNL     1      45.770  16.850  19.327  0.00  0.00    +0.013 C 
ATOM     22  C   UNL     1      45.763  15.341  19.094  0.00  0.00    -0.003 C 
ATOM     23  C   UNL     1      46.870  14.953  18.027  0.00  0.00    +0.202 C 
ATOM     37  C   UNL     1      49.517  17.165  19.883  0.00  0.00    +0.000 C 
ATOM     38  C   UNL     1      49.411  18.023  21.152  0.00  0.00    +0.013 C 
ATOM     39  C   UNL     1      50.738  18.744  21.372  0.00  0.00    +0.021 C 
ATOM     40  C   UNL     1      51.062  19.642  20.200  0.00  0.00    -0.048 C 
ATOM     41  C   UNL     1      52.455  20.235  20.420  0.00  0.00    +0.016 C 
ENDROOT
BRANCH  10   9
ATOM      9  C   UNL     1      48.678  20.357  20.549  0.00  0.00    +0.000 C 
ATOM     42  C   UNL     1      48.379  21.079  21.864  0.00  0.00    +0.003 C 
BRANCH   9   8
ATOM      8  C   UNL     1      47.610  20.716  19.514  0.00  0.00    +0.006 C 
BRANCH   8   7
ATOM      7  C   UNL     1      46.428  21.389  20.214  0.00  0.00    +0.008 C 
BRANCH   7   3
ATOM      3  C   UNL     1      45.247  21.480  19.246  0.00  0.00    -0.015 C 
BRANCH   3   4
ATOM      4  C   UNL     1      44.333  20.269  19.441  0.00  0.00    -0.021 C 
ATOM      5  C   UNL     1      42.914  20.624  18.990  0.00  0.00    +0.011 C 
ATOM      6  C   UNL     1      44.314  19.875  20.919  0.00  0.00    +0.008 C 
ENDBRANCH   3   4
BRANCH   3   2
ATOM      1  C   UNL     1      45.165  23.569  20.615  0.00  0.00    +0.004 C 
ATOM      2  C   UNL     1      44.459  22.762  19.524  0.00  0.00    +0.001 C 
ENDBRANCH   3   2
ENDBRANCH   7   3
ENDBRANCH   8   7
ENDBRANCH   9   8
ENDBRANCH  10   9
BRANCH  23  24
ATOM     24  O   UNL     1      47.294  13.602  18.220  0.00  0.00    -0.344 OA
BRANCH  24  25
ATOM     25  C   UNL     1      48.068  13.076  17.140  0.00  0.00    +0.286 C 
ATOM     26  C   UNL     1      47.237  13.104  15.854  0.00  0.00    +0.185 C 
ATOM     29  C   UNL     1      48.051  12.484  14.715  0.00  0.00    +0.200 C 
ATOM     32  C   UNL     1      48.461  11.062  15.110  0.00  0.00    +0.125 C 
ATOM     35  C   UNL     1      49.245  11.113  16.423  0.00  0.00    +0.210 C 
ATOM     36  O   UNL     1      48.443  11.728  17.433  0.00  0.00    -0.386 OA
BRANCH  26  27
ATOM     27  O   UNL     1      46.035  12.356  16.046  0.00  0.00    -0.538 OA
ATOM     28  H   UNL     1      45.520  12.630  16.818  0.00  0.00    +0.387 HD
ENDBRANCH  26  27
BRANCH  29  30
ATOM     30  O   UNL     1      47.256  12.443  13.527  0.00  0.00    -0.545 OA
ATOM     31  H   UNL     1      47.034  13.314  13.172  0.00  0.00    +0.388 HD
ENDBRANCH  29  30
BRANCH  32  33
ATOM     33  O   UNL     1      49.281  10.500  14.084  0.00  0.00    -0.563 OA
ATOM     34  H   UNL     1      49.214  10.956  13.233  0.00  0.00    +0.387 HD
ENDBRANCH  32  33
ENDBRANCH  24  25
ENDBRANCH  23  24
TORSDOF 11
ENDMDL
MODEL 4
REMARK VINA RESULT:      -6.5      4.457      8.466
REMARK  Name = ZINC95485944
REMARK  17 active torsions:
REMARK  status: ('A' for Active; 'I' for Inactive)
REMARK    1  A    between atoms: C1_1  and  C2_2
REMARK    2  A    between atoms: C2_2  and  C3_3
REMARK    3  A    between atoms: C3_3  and  C4_5
REMARK    4  A    between atoms: C3_3  and  C32_48
REMARK    5  A    between atoms: C4_5  and  C5_6
REMARK    6  A    between atoms: C5_6  and  C6_7
REMARK    7  A    between atoms: C6_7  and  C7_9
REMARK    8  A    between atoms: C6_7  and  C8_10
REMARK    9  A    between atoms: C12_16  and  C31_47
REMARK   10  A    between atoms: C20_26  and  C30_46
REMARK   11  A    between atoms: C24_30  and  O1_32
REMARK   12  A    between atoms: O1_32  and  C25_33
REMARK   13  A    between atoms: C26_35  and  O5_45
REMARK   14  A    between atoms: C27_37  and  O4_44
REMARK   15  A    between atoms: C28_39  and  O3_43
REMARK   16  A    between atoms: C32_48  and  C33_49
REMARK   17  A    between atoms: C32_48  and  C34_50
REMARK                            x       y       z     vdW  Elec       q    Type
REMARK                         _______ _______ _______ _____ _____    ______ ____
ROOT
ATOM     10  C   UNL     1      50.563  21.096  19.398  0.00  0.00    -0.001 C 
ATOM     11  C   UNL     1      50.355  21.345  17.890  0.00  0.00    +0.004 C 
ATOM     12  C   UNL     1      51.524  20.644  17.164  0.00  0.00    +0.002 C 
ATOM     13  C   UNL     1      51.974  19.538  18.166  0.00  0.00    +0.003 C 
ATOM     14  C   UNL     1      50.959  18.397  18.036  0.00  0.00    +0.008 C 
ATOM     15  C   UNL     1      51.313  17.598  16.773  0.00  0.00    +0.059 C 
ATOM     16  C   UNL     1      50.456  16.372  16.685  0.00  0.00    -0.026 C 
ATOM     17  C   UNL     1      49.865  15.835  17.704  0.00  0.00    -0.108 C 
ATOM     18  C   UNL     1      49.957  16.381  19.134  0.00  0.00    -0.006 C 
ATOM     19  C   UNL     1      50.343  15.225  20.060  0.00  0.00    +0.025 C 
ATOM     20  C   UNL     1      48.595  16.901  19.586  0.00  0.00    +0.025 C 
ATOM     21  C   UNL     1      47.481  16.142  18.867  0.00  0.00    +0.013 C 
ATOM     22  C   UNL     1      47.873  14.686  18.626  0.00  0.00    -0.003 C 
ATOM     23  C   UNL     1      48.994  14.605  17.508  0.00  0.00    +0.202 C 
ATOM     37  C   UNL     1      51.023  17.464  19.255  0.00  0.00    +0.000 C 
ATOM     38  C   UNL     1      50.745  18.271  20.531  0.00  0.00    +0.013 C 
ATOM     39  C   UNL     1      51.835  19.326  20.695  0.00  0.00    +0.021 C 
ATOM     40  C   UNL     1      51.851  20.270  19.514  0.00  0.00    -0.048 C 
ATOM     41  C   UNL     1      53.040  21.220  19.674  0.00  0.00    +0.016 C 
ENDROOT
BRANCH  10   9
ATOM      9  C   UNL     1      49.381  20.314  19.974  0.00  0.00    +0.000 C 
ATOM     42  C   UNL     1      48.938  20.955  21.291  0.00  0.00    +0.003 C 
BRANCH   9   8
ATOM      8  C   UNL     1      48.220  20.339  18.978  0.00  0.00    +0.006 C 
BRANCH   8   7
ATOM      7  C   UNL     1      46.894  20.331  19.740  0.00  0.00    +0.008 C 
BRANCH   7   3
ATOM      3  C   UNL     1      45.757  20.713  18.790  0.00  0.00    -0.015 C 
BRANCH   3   4
ATOM      4  C   UNL     1      44.741  19.572  18.726  0.00  0.00    -0.021 C 
ATOM      5  C   UNL     1      43.324  20.146  18.802  0.00  0.00    +0.011 C 
ATOM      6  C   UNL     1      44.968  18.618  19.900  0.00  0.00    +0.008 C 
ENDBRANCH   3   4
BRANCH   3   2
ATOM      1  C   UNL     1      45.591  22.314  20.701  0.00  0.00    +0.004 C 
ATOM      2  C   UNL     1      45.069  21.980  19.303  0.00  0.00    +0.001 C 
ENDBRANCH   3   2
ENDBRANCH   7   3
ENDBRANCH   8   7
ENDBRANCH   9   8
ENDBRANCH  10   9
BRANCH  23  24
ATOM     24  O   UNL     1      49.777  13.420  17.674  0.00  0.00    -0.344 OA
BRANCH  24  25
ATOM     25  C   UNL     1      49.828  12.590  16.513  0.00  0.00    +0.286 C 
ATOM     26  C   UNL     1      51.287  12.259  16.185  0.00  0.00    +0.185 C 
ATOM     29  C   UNL     1      51.337  11.420  14.906  0.00  0.00    +0.200 C 
ATOM     32  C   UNL     1      50.648  12.190  13.775  0.00  0.00    +0.125 C 
ATOM     35  C   UNL     1      49.215  12.522  14.195  0.00  0.00    +0.210 C 
ATOM     36  O   UNL     1      49.238  13.278  15.408  0.00  0.00    -0.386 OA
BRANCH  26  27
ATOM     27  O   UNL     1      52.019  13.471  15.992  0.00  0.00    -0.538 OA
ATOM     28  H   UNL     1      52.468  13.527  15.137  0.00  0.00    +0.387 HD
ENDBRANCH  26  27
BRANCH  29  30
ATOM     30  O   UNL     1      52.700  11.166  14.554  0.00  0.00    -0.545 OA
ATOM     31  H   UNL     1      52.816  10.430  13.939  0.00  0.00    +0.388 HD
ENDBRANCH  29  30
BRANCH  32  33
ATOM     33  O   UNL     1      50.627  11.386  12.595  0.00  0.00    -0.563 OA
ATOM     34  H   UNL     1      51.502  11.103  12.296  0.00  0.00    +0.387 HD
ENDBRANCH  32  33
ENDBRANCH  24  25
ENDBRANCH  23  24
TORSDOF 11
ENDMDL
MODEL 5
REMARK VINA RESULT:      -6.5      4.189      7.770
REMARK  Name = ZINC95485944
REMARK  17 active torsions:
REMARK  status: ('A' for Active; 'I' for Inactive)
REMARK    1  A    between atoms: C1_1  and  C2_2
REMARK    2  A    between atoms: C2_2  and  C3_3
REMARK    3  A    between atoms: C3_3  and  C4_5
REMARK    4  A    between atoms: C3_3  and  C32_48
REMARK    5  A    between atoms: C4_5  and  C5_6
REMARK    6  A    between atoms: C5_6  and  C6_7
REMARK    7  A    between atoms: C6_7  and  C7_9
REMARK    8  A    between atoms: C6_7  and  C8_10
REMARK    9  A    between atoms: C12_16  and  C31_47
REMARK   10  A    between atoms: C20_26  and  C30_46
REMARK   11  A    between atoms: C24_30  and  O1_32
REMARK   12  A    between atoms: O1_32  and  C25_33
REMARK   13  A    between atoms: C26_35  and  O5_45
REMARK   14  A    between atoms: C27_37  and  O4_44
REMARK   15  A    between atoms: C28_39  and  O3_43
REMARK   16  A    between atoms: C32_48  and  C33_49
REMARK   17  A    between atoms: C32_48  and  C34_50
REMARK                            x       y       z     vdW  Elec       q    Type
REMARK                         _______ _______ _______ _____ _____    ______ ____
ROOT
ATOM     10  C   UNL     1      45.115  20.162  20.741  0.00  0.00    -0.001 C 
ATOM     11  C   UNL     1      45.247  19.443  22.100  0.00  0.00    +0.004 C 
ATOM     12  C   UNL     1      44.269  18.249  22.061  0.00  0.00    +0.002 C 
ATOM     13  C   UNL     1      44.100  17.955  20.540  0.00  0.00    +0.003 C 
ATOM     14  C   UNL     1      45.354  17.190  20.104  0.00  0.00    +0.008 C 
ATOM     15  C   UNL     1      45.187  15.729  20.550  0.00  0.00    +0.059 C 
ATOM     16  C   UNL     1      46.307  14.895  20.006  0.00  0.00    -0.026 C 
ATOM     17  C   UNL     1      47.017  15.231  18.976  0.00  0.00    -0.108 C 
ATOM     18  C   UNL     1      46.811  16.525  18.178  0.00  0.00    -0.006 C 
ATOM     19  C   UNL     1      46.716  16.157  16.696  0.00  0.00    +0.025 C 
ATOM     20  C   UNL     1      48.016  17.445  18.351  0.00  0.00    +0.025 C 
ATOM     21  C   UNL     1      49.272  16.617  18.622  0.00  0.00    +0.013 C 
ATOM     22  C   UNL     1      49.231  15.291  17.866  0.00  0.00    -0.003 C 
ATOM     23  C   UNL     1      48.151  14.330  18.516  0.00  0.00    +0.202 C 
ATOM     37  C   UNL     1      45.521  17.232  18.578  0.00  0.00    +0.000 C 
ATOM     38  C   UNL     1      45.612  18.693  18.116  0.00  0.00    +0.013 C 
ATOM     39  C   UNL     1      44.306  19.403  18.461  0.00  0.00    +0.021 C 
ATOM     40  C   UNL     1      44.059  19.377  19.952  0.00  0.00    -0.048 C 
ATOM     41  C   UNL     1      42.682  19.987  20.221  0.00  0.00    +0.016 C 
ENDROOT
BRANCH  10   9
ATOM      9  C   UNL     1      46.453  20.139  19.999  0.00  0.00    +0.000 C 
ATOM     42  C   UNL     1      46.706  21.507  19.362  0.00  0.00    +0.003 C 
BRANCH   9   8
ATOM      8  C   UNL     1      47.578  19.819  20.986  0.00  0.00    +0.006 C 
BRANCH   8   7
ATOM      7  C   UNL     1      48.744  20.782  20.759  0.00  0.00    +0.008 C 
BRANCH   7   3
ATOM      3  C   UNL     1      49.918  20.025  20.136  0.00  0.00    -0.015 C 
BRANCH   3   4
ATOM      4  C   UNL     1      50.538  20.872  19.023  0.00  0.00    -0.021 C 
ATOM      5  C   UNL     1      50.781  19.996  17.792  0.00  0.00    +0.011 C 
ATOM      6  C   UNL     1      51.869  21.453  19.505  0.00  0.00    +0.008 C 
ENDBRANCH   3   4
BRANCH   3   2
ATOM      1  C   UNL     1      51.192  18.235  21.325  0.00  0.00    +0.004 C 
ATOM      2  C   UNL     1      50.971  19.744  21.210  0.00  0.00    +0.001 C 
ENDBRANCH   3   2
ENDBRANCH   7   3
ENDBRANCH   8   7
ENDBRANCH   9   8
ENDBRANCH  10   9
BRANCH  23  24
ATOM     24  O   UNL     1      47.670  13.395  17.548  0.00  0.00    -0.344 OA
BRANCH  24  25
ATOM     25  C   UNL     1      48.650  13.000  16.586  0.00  0.00    +0.286 C 
ATOM     26  C   UNL     1      48.083  13.181  15.175  0.00  0.00    +0.185 C 
ATOM     29  C   UNL     1      49.116  12.699  14.152  0.00  0.00    +0.200 C 
ATOM     32  C   UNL     1      49.473  11.240  14.452  0.00  0.00    +0.125 C 
ATOM     35  C   UNL     1      49.987  11.134  15.890  0.00  0.00    +0.210 C 
ATOM     36  O   UNL     1      48.990  11.627  16.788  0.00  0.00    -0.386 OA
BRANCH  26  27
ATOM     27  O   UNL     1      46.883  12.416  15.041  0.00  0.00    -0.538 OA
ATOM     28  H   UNL     1      46.134  12.769  15.540  0.00  0.00    +0.387 HD
ENDBRANCH  26  27
BRANCH  29  30
ATOM     30  O   UNL     1      48.567  12.798  12.836  0.00  0.00    -0.545 OA
ATOM     31  H   UNL     1      49.068  13.375  12.244  0.00  0.00    +0.388 HD
ENDBRANCH  29  30
BRANCH  32  33
ATOM     33  O   UNL     1      50.489  10.802  13.548  0.00  0.00    -0.563 OA
ATOM     34  H   UNL     1      50.813  11.495  12.956  0.00  0.00    +0.387 HD
ENDBRANCH  32  33
ENDBRANCH  24  25
ENDBRANCH  23  24
TORSDOF 11
ENDMDL
MODEL 6
REMARK VINA RESULT:      -6.3      1.991      3.298
REMARK  Name = ZINC95485944
REMARK  17 active torsions:
REMARK  status: ('A' for Active; 'I' for Inactive)
REMARK    1  A    between atoms: C1_1  and  C2_2
REMARK    2  A    between atoms: C2_2  and  C3_3
REMARK    3  A    between atoms: C3_3  and  C4_5
REMARK    4  A    between atoms: C3_3  and  C32_48
REMARK    5  A    between atoms: C4_5  and  C5_6
REMARK    6  A    between atoms: C5_6  and  C6_7
REMARK    7  A    between atoms: C6_7  and  C7_9
REMARK    8  A    between atoms: C6_7  and  C8_10
REMARK    9  A    between atoms: C12_16  and  C31_47
REMARK   10  A    between atoms: C20_26  and  C30_46
REMARK   11  A    between atoms: C24_30  and  O1_32
REMARK   12  A    between atoms: O1_32  and  C25_33
REMARK   13  A    between atoms: C26_35  and  O5_45
REMARK   14  A    between atoms: C27_37  and  O4_44
REMARK   15  A    between atoms: C28_39  and  O3_43
REMARK   16  A    between atoms: C32_48  and  C33_49
REMARK   17  A    between atoms: C32_48  and  C34_50
REMARK                            x       y       z     vdW  Elec       q    Type
REMARK                         _______ _______ _______ _____ _____    ______ ____
ROOT
ATOM     10  C   UNL     1      48.048  13.186  18.412  0.00  0.00    -0.001 C 
ATOM     11  C   UNL     1      48.768  14.123  17.421  0.00  0.00    +0.004 C 
ATOM     12  C   UNL     1      47.675  14.717  16.505  0.00  0.00    +0.002 C 
ATOM     13  C   UNL     1      46.377  14.616  17.362  0.00  0.00    +0.003 C 
ATOM     14  C   UNL     1      46.431  15.770  18.368  0.00  0.00    +0.008 C 
ATOM     15  C   UNL     1      46.014  17.052  17.631  0.00  0.00    +0.059 C 
ATOM     16  C   UNL     1      45.888  18.185  18.603  0.00  0.00    -0.026 C 
ATOM     17  C   UNL     1      45.700  18.022  19.874  0.00  0.00    -0.108 C 
ATOM     18  C   UNL     1      45.588  16.653  20.555  0.00  0.00    -0.006 C 
ATOM     19  C   UNL     1      44.326  16.657  21.421  0.00  0.00    +0.025 C 
ATOM     20  C   UNL     1      46.782  16.427  21.478  0.00  0.00    +0.025 C 
ATOM     21  C   UNL     1      47.309  17.767  21.990  0.00  0.00    +0.013 C 
ATOM     22  C   UNL     1      46.172  18.766  22.190  0.00  0.00    -0.003 C 
ATOM     23  C   UNL     1      45.611  19.237  20.783  0.00  0.00    +0.202 C 
ATOM     37  C   UNL     1      45.464  15.527  19.536  0.00  0.00    +0.000 C 
ATOM     38  C   UNL     1      45.826  14.207  20.232  0.00  0.00    +0.013 C 
ATOM     39  C   UNL     1      45.654  13.061  19.239  0.00  0.00    +0.021 C 
ATOM     40  C   UNL     1      46.560  13.248  18.043  0.00  0.00    -0.048 C 
ATOM     41  C   UNL     1      46.252  12.143  17.031  0.00  0.00    +0.016 C 
ENDROOT
BRANCH  10   9
ATOM      9  C   UNL     1      48.257  13.673  19.847  0.00  0.00    +0.000 C 
ATOM     42  C   UNL     1      48.245  12.476  20.799  0.00  0.00    +0.003 C 
BRANCH   9   8
ATOM      8  C   UNL     1      49.603  14.394  19.950  0.00  0.00    +0.006 C 
BRANCH   8   7
ATOM      7  C   UNL     1      49.373  15.843  20.382  0.00  0.00    +0.008 C 
BRANCH   7   3
ATOM      3  C   UNL     1      50.276  16.769  19.566  0.00  0.00    -0.015 C 
BRANCH   3   4
ATOM      4  C   UNL     1      49.415  17.675  18.684  0.00  0.00    -0.021 C 
ATOM      5  C   UNL     1      49.964  17.667  17.255  0.00  0.00    +0.011 C 
ATOM      6  C   UNL     1      49.447  19.102  19.234  0.00  0.00    +0.008 C 
ENDBRANCH   3   4
BRANCH   3   2
ATOM      1  C   UNL     1      52.601  17.401  20.229  0.00  0.00    +0.004 C 
ATOM      2  C   UNL     1      51.115  17.628  20.514  0.00  0.00    +0.001 C 
ENDBRANCH   3   2
ENDBRANCH   7   3
ENDBRANCH   8   7
ENDBRANCH   9   8
ENDBRANCH  10   9
BRANCH  23  24
ATOM     24  O   UNL     1      44.250  19.656  20.906  0.00  0.00    -0.344 OA
BRANCH  24  25
ATOM     25  C   UNL     1      44.064  21.068  20.785  0.00  0.00    +0.286 C 
ATOM     26  C   UNL     1      43.055  21.355  19.670  0.00  0.00    +0.185 C 
ATOM     29  C   UNL     1      42.906  22.871  19.505  0.00  0.00    +0.200 C 
ATOM     32  C   UNL     1      44.281  23.480  19.215  0.00  0.00    +0.125 C 
ATOM     35  C   UNL     1      45.242  23.110  20.347  0.00  0.00    +0.210 C 
ATOM     36  O   UNL     1      45.311  21.688  20.467  0.00  0.00    -0.386 OA
BRANCH  26  27
ATOM     27  O   UNL     1      43.520  20.784  18.446  0.00  0.00    -0.538 OA
ATOM     28  H   UNL     1      44.483  20.771  18.358  0.00  0.00    +0.387 HD
ENDBRANCH  26  27
BRANCH  29  30
ATOM     30  O   UNL     1      42.018  23.148  18.419  0.00  0.00    -0.545 OA
ATOM     31  H   UNL     1      41.966  24.084  18.184  0.00  0.00    +0.388 HD
ENDBRANCH  29  30
BRANCH  32  33
ATOM     33  O   UNL     1      44.164  24.901  19.130  0.00  0.00    -0.563 OA
ATOM     34  H   UNL     1      43.942  25.225  18.247  0.00  0.00    +0.387 HD
ENDBRANCH  32  33
ENDBRANCH  24  25
ENDBRANCH  23  24
TORSDOF 11
ENDMDL
MODEL 7
REMARK VINA RESULT:      -5.9      2.706      4.316
REMARK  Name = ZINC95485944
REMARK  17 active torsions:
REMARK  status: ('A' for Active; 'I' for Inactive)
REMARK    1  A    between atoms: C1_1  and  C2_2
REMARK    2  A    between atoms: C2_2  and  C3_3
REMARK    3  A    between atoms: C3_3  and  C4_5
REMARK    4  A    between atoms: C3_3  and  C32_48
REMARK    5  A    between atoms: C4_5  and  C5_6
REMARK    6  A    between atoms: C5_6  and  C6_7
REMARK    7  A    between atoms: C6_7  and  C7_9
REMARK    8  A    between atoms: C6_7  and  C8_10
REMARK    9  A    between atoms: C12_16  and  C31_47
REMARK   10  A    between atoms: C20_26  and  C30_46
REMARK   11  A    between atoms: C24_30  and  O1_32
REMARK   12  A    between atoms: O1_32  and  C25_33
REMARK   13  A    between atoms: C26_35  and  O5_45
REMARK   14  A    between atoms: C27_37  and  O4_44
REMARK   15  A    between atoms: C28_39  and  O3_43
REMARK   16  A    between atoms: C32_48  and  C33_49
REMARK   17  A    between atoms: C32_48  and  C34_50
REMARK                            x       y       z     vdW  Elec       q    Type
REMARK                         _______ _______ _______ _____ _____    ______ ____
ROOT
ATOM     10  C   UNL     1      47.734  13.269  18.789  0.00  0.00    -0.001 C 
ATOM     11  C   UNL     1      48.565  14.178  17.860  0.00  0.00    +0.004 C 
ATOM     12  C   UNL     1      47.567  14.835  16.882  0.00  0.00    +0.002 C 
ATOM     13  C   UNL     1      46.211  14.792  17.649  0.00  0.00    +0.003 C 
ATOM     14  C   UNL     1      46.255  15.933  18.671  0.00  0.00    +0.008 C 
ATOM     15  C   UNL     1      45.954  17.241  17.924  0.00  0.00    +0.059 C 
ATOM     16  C   UNL     1      45.820  18.370  18.900  0.00  0.00    -0.026 C 
ATOM     17  C   UNL     1      45.540  18.205  20.154  0.00  0.00    -0.108 C 
ATOM     18  C   UNL     1      45.313  16.837  20.809  0.00  0.00    -0.006 C 
ATOM     19  C   UNL     1      43.998  16.897  21.589  0.00  0.00    +0.025 C 
ATOM     20  C   UNL     1      46.430  16.541  21.806  0.00  0.00    +0.025 C 
ATOM     21  C   UNL     1      46.989  17.848  22.368  0.00  0.00    +0.013 C 
ATOM     22  C   UNL     1      45.892  18.902  22.505  0.00  0.00    -0.003 C 
ATOM     23  C   UNL     1      45.452  19.414  21.071  0.00  0.00    +0.202 C 
ATOM     37  C   UNL     1      45.201  15.728  19.769  0.00  0.00    +0.000 C 
ATOM     38  C   UNL     1      45.449  14.386  20.471  0.00  0.00    +0.013 C 
ATOM     39  C   UNL     1      45.287  13.259  19.454  0.00  0.00    +0.021 C 
ATOM     40  C   UNL     1      46.279  13.410  18.323  0.00  0.00    -0.048 C 
ATOM     41  C   UNL     1      45.984  12.332  17.278  0.00  0.00    +0.016 C 
ENDROOT
BRANCH  10   9
ATOM      9  C   UNL     1      47.871  13.732  20.241  0.00  0.00    +0.000 C 
ATOM     42  C   UNL     1      48.149  12.523  21.137  0.00  0.00    +0.003 C 
BRANCH   9   8
ATOM      8  C   UNL     1      49.027  14.727  20.352  0.00  0.00    +0.006 C 
BRANCH   8   7
ATOM      7  C   UNL     1      50.186  14.080  21.112  0.00  0.00    +0.008 C 
BRANCH   7   3
ATOM      3  C   UNL     1      51.398  13.959  20.187  0.00  0.00    -0.015 C 
BRANCH   3   4
ATOM      4  C   UNL     1      52.528  14.851  20.706  0.00  0.00    -0.021 C 
ATOM      5  C   UNL     1      52.406  14.995  22.224  0.00  0.00    +0.011 C 
ATOM      6  C   UNL     1      52.429  16.231  20.053  0.00  0.00    +0.008 C 
ENDBRANCH   3   4
BRANCH   3   2
ATOM      1  C   UNL     1      51.167  11.763  19.018  0.00  0.00    +0.004 C 
ATOM      2  C   UNL     1      51.872  12.504  20.155  0.00  0.00    +0.001 C 
ENDBRANCH   3   2
ENDBRANCH   7   3
ENDBRANCH   8   7
ENDBRANCH   9   8
ENDBRANCH  10   9
BRANCH  23  24
ATOM     24  O   UNL     1      44.108  19.901  21.109  0.00  0.00    -0.344 OA
BRANCH  24  25
ATOM     25  C   UNL     1      43.996  21.311  20.903  0.00  0.00    +0.286 C 
ATOM     26  C   UNL     1      43.015  21.583  19.759  0.00  0.00    +0.185 C 
ATOM     29  C   UNL     1      42.945  23.092  19.505  0.00  0.00    +0.200 C 
ATOM     32  C   UNL     1      44.353  23.613  19.201  0.00  0.00    +0.125 C 
ATOM     35  C   UNL     1      45.281  23.263  20.366  0.00  0.00    +0.210 C 
ATOM     36  O   UNL     1      45.277  21.848  20.568  0.00  0.00    -0.386 OA
BRANCH  26  27
ATOM     27  O   UNL     1      43.465  20.919  18.577  0.00  0.00    -0.538 OA
ATOM     28  H   UNL     1      43.762  20.010  18.725  0.00  0.00    +0.387 HD
ENDBRANCH  26  27
BRANCH  29  30
ATOM     30  O   UNL     1      42.086  23.350  18.392  0.00  0.00    -0.545 OA
ATOM     31  H   UNL     1      42.406  22.984  17.556  0.00  0.00    +0.388 HD
ENDBRANCH  29  30
BRANCH  32  33
ATOM     33  O   UNL     1      44.310  25.031  19.032  0.00  0.00    -0.563 OA
ATOM     34  H   UNL     1      45.176  25.435  18.879  0.00  0.00    +0.387 HD
ENDBRANCH  32  33
ENDBRANCH  24  25
ENDBRANCH  23  24
TORSDOF 11
ENDMDL
MODEL 8
REMARK VINA RESULT:      -5.9      2.013      4.742
REMARK  Name = ZINC95485944
REMARK  17 active torsions:
REMARK  status: ('A' for Active; 'I' for Inactive)
REMARK    1  A    between atoms: C1_1  and  C2_2
REMARK    2  A    between atoms: C2_2  and  C3_3
REMARK    3  A    between atoms: C3_3  and  C4_5
REMARK    4  A    between atoms: C3_3  and  C32_48
REMARK    5  A    between atoms: C4_5  and  C5_6
REMARK    6  A    between atoms: C5_6  and  C6_7
REMARK    7  A    between atoms: C6_7  and  C7_9
REMARK    8  A    between atoms: C6_7  and  C8_10
REMARK    9  A    between atoms: C12_16  and  C31_47
REMARK   10  A    between atoms: C20_26  and  C30_46
REMARK   11  A    between atoms: C24_30  and  O1_32
REMARK   12  A    between atoms: O1_32  and  C25_33
REMARK   13  A    between atoms: C26_35  and  O5_45
REMARK   14  A    between atoms: C27_37  and  O4_44
REMARK   15  A    between atoms: C28_39  and  O3_43
REMARK   16  A    between atoms: C32_48  and  C33_49
REMARK   17  A    between atoms: C32_48  and  C34_50
REMARK                            x       y       z     vdW  Elec       q    Type
REMARK                         _______ _______ _______ _____ _____    ______ ____
ROOT
ATOM     10  C   UNL     1      52.341  18.424  17.688  0.00  0.00    -0.001 C 
ATOM     11  C   UNL     1      52.890  19.442  18.708  0.00  0.00    +0.004 C 
ATOM     12  C   UNL     1      52.054  20.729  18.536  0.00  0.00    +0.002 C 
ATOM     13  C   UNL     1      50.714  20.223  17.921  0.00  0.00    +0.003 C 
ATOM     14  C   UNL     1      49.906  19.624  19.076  0.00  0.00    +0.008 C 
ATOM     15  C   UNL     1      49.274  20.787  19.856  0.00  0.00    +0.059 C 
ATOM     16  C   UNL     1      48.337  20.256  20.898  0.00  0.00    -0.026 C 
ATOM     17  C   UNL     1      47.798  19.080  20.846  0.00  0.00    -0.108 C 
ATOM     18  C   UNL     1      48.049  18.071  19.718  0.00  0.00    -0.006 C 
ATOM     19  C   UNL     1      46.691  17.579  19.213  0.00  0.00    +0.025 C 
ATOM     20  C   UNL     1      48.808  16.862  20.256  0.00  0.00    +0.025 C 
ATOM     21  C   UNL     1      48.490  16.659  21.737  0.00  0.00    +0.013 C 
ATOM     22  C   UNL     1      47.046  17.047  22.047  0.00  0.00    -0.003 C 
ATOM     23  C   UNL     1      46.880  18.622  21.968  0.00  0.00    +0.202 C 
ATOM     37  C   UNL     1      48.791  18.708  18.550  0.00  0.00    +0.000 C 
ATOM     38  C   UNL     1      49.409  17.586  17.705  0.00  0.00    +0.013 C 
ATOM     39  C   UNL     1      50.112  18.204  16.499  0.00  0.00    +0.021 C 
ATOM     40  C   UNL     1      51.210  19.144  16.942  0.00  0.00    -0.048 C 
ATOM     41  C   UNL     1      51.788  19.826  15.701  0.00  0.00    +0.016 C 
ENDROOT
BRANCH  10   9
ATOM      9  C   UNL     1      51.794  17.192  18.413  0.00  0.00    +0.000 C 
ATOM     42  C   UNL     1      52.144  15.934  17.617  0.00  0.00    +0.003 C 
BRANCH   9   8
ATOM      8  C   UNL     1      52.417  17.104  19.808  0.00  0.00    +0.006 C 
BRANCH   8   7
ATOM      7  C   UNL     1      52.526  15.636  20.225  0.00  0.00    +0.008 C 
BRANCH   7   3
ATOM      3  C   UNL     1      53.938  15.356  20.743  0.00  0.00    -0.015 C 
BRANCH   3   4
ATOM      4  C   UNL     1      54.154  13.845  20.844  0.00  0.00    -0.021 C 
ATOM      5  C   UNL     1      53.329  13.139  19.766  0.00  0.00    +0.011 C 
ATOM      6  C   UNL     1      53.711  13.357  22.225  0.00  0.00    +0.008 C 
ENDBRANCH   3   4
BRANCH   3   2
ATOM      1  C   UNL     1      56.347  15.378  20.080  0.00  0.00    +0.004 C 
ATOM      2  C   UNL     1      54.963  15.953  19.776  0.00  0.00    +0.001 C 
ENDBRANCH   3   2
ENDBRANCH   7   3
ENDBRANCH   8   7
ENDBRANCH   9   8
ENDBRANCH  10   9
BRANCH  23  24
ATOM     24  O   UNL     1      45.526  18.964  21.661  0.00  0.00    -0.344 OA
BRANCH  24  25
ATOM     25  C   UNL     1      45.381  20.218  20.992  0.00  0.00    +0.286 C 
ATOM     26  C   UNL     1      44.836  21.260  21.972  0.00  0.00    +0.185 C 
ATOM     29  C   UNL     1      44.627  22.585  21.233  0.00  0.00    +0.200 C 
ATOM     32  C   UNL     1      43.684  22.353  20.048  0.00  0.00    +0.125 C 
ATOM     35  C   UNL     1      44.274  21.269  19.142  0.00  0.00    +0.210 C 
ATOM     36  O   UNL     1      44.472  20.073  19.898  0.00  0.00    -0.386 OA
BRANCH  26  27
ATOM     27  O   UNL     1      43.590  20.807  22.505  0.00  0.00    -0.538 OA
ATOM     28  H   UNL     1      43.078  21.497  22.950  0.00  0.00    +0.387 HD
ENDBRANCH  26  27
BRANCH  29  30
ATOM     30  O   UNL     1      44.051  23.543  22.124  0.00  0.00    -0.545 OA
ATOM     31  H   UNL     1      43.360  24.087  21.723  0.00  0.00    +0.388 HD
ENDBRANCH  29  30
BRANCH  32  33
ATOM     33  O   UNL     1      43.539  23.567  19.309  0.00  0.00    -0.563 OA
ATOM     34  H   UNL     1      44.203  23.688  18.617  0.00  0.00    +0.387 HD
ENDBRANCH  32  33
ENDBRANCH  24  25
ENDBRANCH  23  24
TORSDOF 11
ENDMDL
MODEL 9
REMARK VINA RESULT:      -5.6      4.871      8.229
REMARK  Name = ZINC95485944
REMARK  17 active torsions:
REMARK  status: ('A' for Active; 'I' for Inactive)
REMARK    1  A    between atoms: C1_1  and  C2_2
REMARK    2  A    between atoms: C2_2  and  C3_3
REMARK    3  A    between atoms: C3_3  and  C4_5
REMARK    4  A    between atoms: C3_3  and  C32_48
REMARK    5  A    between atoms: C4_5  and  C5_6
REMARK    6  A    between atoms: C5_6  and  C6_7
REMARK    7  A    between atoms: C6_7  and  C7_9
REMARK    8  A    between atoms: C6_7  and  C8_10
REMARK    9  A    between atoms: C12_16  and  C31_47
REMARK   10  A    between atoms: C20_26  and  C30_46
REMARK   11  A    between atoms: C24_30  and  O1_32
REMARK   12  A    between atoms: O1_32  and  C25_33
REMARK   13  A    between atoms: C26_35  and  O5_45
REMARK   14  A    between atoms: C27_37  and  O4_44
REMARK   15  A    between atoms: C28_39  and  O3_43
REMARK   16  A    between atoms: C32_48  and  C33_49
REMARK   17  A    between atoms: C32_48  and  C34_50
REMARK                            x       y       z     vdW  Elec       q    Type
REMARK                         _______ _______ _______ _____ _____    ______ ____
ROOT
ATOM     10  C   UNL     1      46.318  18.406  21.144  0.00  0.00    -0.001 C 
ATOM     11  C   UNL     1      47.046  17.769  22.346  0.00  0.00    +0.004 C 
ATOM     12  C   UNL     1      46.469  16.346  22.505  0.00  0.00    +0.002 C 
ATOM     13  C   UNL     1      45.935  16.000  21.082  0.00  0.00    +0.003 C 
ATOM     14  C   UNL     1      47.158  15.617  20.242  0.00  0.00    +0.008 C 
ATOM     15  C   UNL     1      47.541  14.174  20.604  0.00  0.00    +0.059 C 
ATOM     16  C   UNL     1      48.628  13.688  19.694  0.00  0.00    -0.026 C 
ATOM     17  C   UNL     1      48.872  14.200  18.531  0.00  0.00    -0.108 C 
ATOM     18  C   UNL     1      48.088  15.373  17.929  0.00  0.00    -0.006 C 
ATOM     19  C   UNL     1      47.654  14.978  16.516  0.00  0.00    +0.025 C 
ATOM     20  C   UNL     1      48.988  16.599  17.810  0.00  0.00    +0.025 C 
ATOM     21  C   UNL     1      50.443  16.166  17.638  0.00  0.00    +0.013 C 
ATOM     22  C   UNL     1      50.541  14.875  16.828  0.00  0.00    -0.003 C 
ATOM     23  C   UNL     1      50.015  13.653  17.692  0.00  0.00    +0.202 C 
ATOM     37  C   UNL     1      46.838  15.689  18.742  0.00  0.00    +0.000 C 
ATOM     38  C   UNL     1      46.380  17.111  18.385  0.00  0.00    +0.013 C 
ATOM     39  C   UNL     1      45.098  17.423  19.150  0.00  0.00    +0.021 C 
ATOM     40  C   UNL     1      45.330  17.345  20.642  0.00  0.00    -0.048 C 
ATOM     41  C   UNL     1      43.987  17.541  21.348  0.00  0.00    +0.016 C 
ENDROOT
BRANCH  10   9
ATOM      9  C   UNL     1      47.321  18.756  20.044  0.00  0.00    +0.000 C 
ATOM     42  C   UNL     1      47.087  20.195  19.579  0.00  0.00    +0.003 C 
BRANCH   9   8
ATOM      8  C   UNL     1      48.744  18.621  20.589  0.00  0.00    +0.006 C 
BRANCH   8   7
ATOM      7  C   UNL     1      49.543  19.879  20.246  0.00  0.00    +0.008 C 
BRANCH   7   3
ATOM      3  C   UNL     1      50.976  19.490  19.877  0.00  0.00    -0.015 C 
BRANCH   3   4
ATOM      4  C   UNL     1      51.198  19.721  18.381  0.00  0.00    -0.021 C 
ATOM      5  C   UNL     1      52.699  19.794  18.095  0.00  0.00    +0.011 C 
ATOM      6  C   UNL     1      50.535  21.035  17.964  0.00  0.00    +0.008 C 
ENDBRANCH   3   4
BRANCH   3   2
ATOM      1  C   UNL     1      51.498  20.428  22.133  0.00  0.00    +0.004 C 
ATOM      2  C   UNL     1      51.959  20.347  20.677  0.00  0.00    +0.001 C 
ENDBRANCH   3   2
ENDBRANCH   7   3
ENDBRANCH   8   7
ENDBRANCH   9   8
ENDBRANCH  10   9
BRANCH  23  24
ATOM     24  O   UNL     1      49.539  12.610  16.838  0.00  0.00    -0.344 OA
BRANCH  24  25
ATOM     25  C   UNL     1      50.428  12.284  15.768  0.00  0.00    +0.286 C 
ATOM     26  C   UNL     1      49.772  12.640  14.432  0.00  0.00    +0.185 C 
ATOM     29  C   UNL     1      50.706  12.232  13.289  0.00  0.00    +0.200 C 
ATOM     32  C   UNL     1      51.015  10.736  13.404  0.00  0.00    +0.125 C 
ATOM     35  C   UNL     1      51.624  10.455  14.780  0.00  0.00    +0.210 C 
ATOM     36  O   UNL     1      50.718  10.885  15.798  0.00  0.00    -0.386 OA
BRANCH  26  27
ATOM     27  O   UNL     1      48.531  11.941  14.309  0.00  0.00    -0.538 OA
ATOM     28  H   UNL     1      47.766  12.439  14.630  0.00  0.00    +0.387 HD
ENDBRANCH  26  27
BRANCH  29  30
ATOM     30  O   UNL     1      50.070  12.496  12.035  0.00  0.00    -0.545 OA
ATOM     31  H   UNL     1      50.006  13.435  11.817  0.00  0.00    +0.388 HD
ENDBRANCH  29  30
BRANCH  32  33
ATOM     33  O   UNL     1      51.941  10.361  12.384  0.00  0.00    -0.563 OA
ATOM     34  H   UNL     1      52.855  10.284  12.693  0.00  0.00    +0.387 HD
ENDBRANCH  32  33
ENDBRANCH  24  25
ENDBRANCH  23  24
TORSDOF 11
ENDMDL
