MODEL 1
REMARK VINA RESULT:      -6.3      0.000      0.000
REMARK  Name = ZINC14640942
REMARK  7 active torsions:
REMARK  status: ('A' for Active; 'I' for Inactive)
REMARK    1  A    between atoms: C1_1  and  O1_2
REMARK    2  A    between atoms: O1_2  and  C2_3
REMARK    3  A    between atoms: C9_10  and  C10_11
REMARK    4  A    between atoms: C19_24  and  O7_28
REMARK    5  A    between atoms: C20_25  and  O6_26
REMARK    6  A    between atoms: O6_26  and  C21_27
REMARK    7  A    between atoms: O7_28  and  C22_29
REMARK                            x       y       z     vdW  Elec       q    Type
REMARK                         _______ _______ _______ _____ _____    ______ ____
ROOT
ATOM      3  C   UNL     1      45.641  22.119  20.285  0.00  0.00    +0.136 A 
ATOM      4  C   UNL     1      46.787  21.404  20.024  0.00  0.00    -0.045 A 
ATOM      5  C   UNL     1      46.720  20.229  19.260  0.00  0.00    -0.003 A 
ATOM      6  C   UNL     1      45.470  19.793  18.755  0.00  0.00    -0.058 A 
ATOM      7  C   UNL     1      44.311  20.541  19.030  0.00  0.00    +0.123 A 
ATOM     10  C   UNL     1      45.402  18.616  17.983  0.00  0.00    +0.091 A 
ATOM     11  C   UNL     1      46.522  17.902  17.723  0.00  0.00    -0.120 A 
ATOM     12  C   UNL     1      47.779  18.312  18.212  0.00  0.00    -0.172 A 
ATOM     13  C   UNL     1      48.781  17.335  17.762  0.00  0.00    +0.520 C 
ATOM     14  O   UNL     1      48.197  16.369  17.033  0.00  0.00    -0.317 OA
ATOM     15  O   UNL     1      49.969  17.394  18.012  0.00  0.00    -0.437 OA
ATOM     16  C   UNL     1      46.771  16.631  16.947  0.00  0.00    +0.333 C 
ATOM     17  C   UNL     1      47.884  19.476  18.982  0.00  0.00    +0.061 A 
ATOM     27  C   UNL     1      44.405  21.691  19.788  0.00  0.00    +0.079 A 
ENDROOT
BRANCH  17  18
ATOM     18  C   UNL     1      49.198  19.913  19.500  0.00  0.00    -0.055 A 
ATOM     19  C   UNL     1      50.024  20.723  18.718  0.00  0.00    +0.052 A 
ATOM     20  C   UNL     1      51.249  21.129  19.201  0.00  0.00    +0.041 A 
ATOM     21  C   UNL     1      51.665  20.737  20.466  0.00  0.00    +0.045 A 
ATOM     22  C   UNL     1      50.846  19.928  21.252  0.00  0.00    +0.038 A 
ATOM     23  O   UNL     1      51.478  19.687  22.437  0.00  0.00    -0.306 OA
ATOM     24  C   UNL     1      52.861  20.015  22.208  0.00  0.00    +0.436 C 
ATOM     25  O   UNL     1      52.811  21.001  21.160  0.00  0.00    -0.307 OA
ATOM     26  C   UNL     1      49.614  19.522  20.774  0.00  0.00    +0.075 A 
ENDBRANCH  17  18
BRANCH   3   2
ATOM      1  C   UNL     1      46.868  23.420  21.852  0.00  0.00    +0.249 C 
ATOM      2  O   UNL     1      45.711  23.253  21.029  0.00  0.00    -0.298 OA
ENDBRANCH   3   2
BRANCH   7   8
ATOM      8  O   UNL     1      43.106  20.135  18.551  0.00  0.00    -0.322 OA
ATOM      9  C   UNL     1      42.222  19.497  19.475  0.00  0.00    +0.242 C 
ENDBRANCH   7   8
BRANCH  27  28
ATOM     28  O   UNL     1      43.284  22.415  20.054  0.00  0.00    -0.319 OA
ATOM     29  C   UNL     1      42.949  23.454  19.132  0.00  0.00    +0.237 C 
ENDBRANCH  27  28
TORSDOF 4
ENDMDL
MODEL 2
REMARK VINA RESULT:      -5.9      2.177      5.407
REMARK  Name = ZINC14640942
REMARK  7 active torsions:
REMARK  status: ('A' for Active; 'I' for Inactive)
REMARK    1  A    between atoms: C1_1  and  O1_2
REMARK    2  A    between atoms: O1_2  and  C2_3
REMARK    3  A    between atoms: C9_10  and  C10_11
REMARK    4  A    between atoms: C19_24  and  O7_28
REMARK    5  A    between atoms: C20_25  and  O6_26
REMARK    6  A    between atoms: O6_26  and  C21_27
REMARK    7  A    between atoms: O7_28  and  C22_29
REMARK                            x       y       z     vdW  Elec       q    Type
REMARK                         _______ _______ _______ _____ _____    ______ ____
ROOT
ATOM      3  C   UNL     1      43.078  19.673  19.546  0.00  0.00    +0.136 A 
ATOM      4  C   UNL     1      44.136  18.798  19.454  0.00  0.00    -0.045 A 
ATOM      5  C   UNL     1      45.442  19.293  19.316  0.00  0.00    -0.003 A 
ATOM      6  C   UNL     1      45.661  20.692  19.281  0.00  0.00    -0.058 A 
ATOM      7  C   UNL     1      44.565  21.569  19.382  0.00  0.00    +0.123 A 
ATOM     10  C   UNL     1      46.972  21.191  19.148  0.00  0.00    +0.091 A 
ATOM     11  C   UNL     1      48.020  20.339  19.052  0.00  0.00    -0.120 A 
ATOM     12  C   UNL     1      47.833  18.943  19.083  0.00  0.00    -0.172 A 
ATOM     13  C   UNL     1      49.152  18.305  18.959  0.00  0.00    +0.520 C 
ATOM     14  O   UNL     1      50.114  19.238  18.856  0.00  0.00    -0.317 OA
ATOM     15  O   UNL     1      49.344  17.106  18.951  0.00  0.00    -0.437 OA
ATOM     16  C   UNL     1      49.507  20.558  18.904  0.00  0.00    +0.333 C 
ATOM     17  C   UNL     1      46.544  18.413  19.215  0.00  0.00    +0.061 A 
ATOM     27  C   UNL     1      43.290  21.056  19.512  0.00  0.00    +0.079 A 
ENDROOT
BRANCH  17  18
ATOM     18  C   UNL     1      46.338  16.950  19.249  0.00  0.00    -0.055 A 
ATOM     19  C   UNL     1      46.155  16.296  20.469  0.00  0.00    +0.052 A 
ATOM     20  C   UNL     1      45.963  14.932  20.499  0.00  0.00    +0.041 A 
ATOM     21  C   UNL     1      45.950  14.203  19.318  0.00  0.00    +0.045 A 
ATOM     22  C   UNL     1      46.133  14.849  18.096  0.00  0.00    +0.038 A 
ATOM     23  O   UNL     1      46.077  13.919  17.098  0.00  0.00    -0.306 OA
ATOM     24  C   UNL     1      46.269  12.648  17.747  0.00  0.00    +0.436 C 
ATOM     25  O   UNL     1      45.782  12.869  19.084  0.00  0.00    -0.307 OA
ATOM     26  C   UNL     1      46.320  16.218  18.060  0.00  0.00    +0.075 A 
ENDBRANCH  17  18
BRANCH   3   2
ATOM      1  C   UNL     1      41.359  18.910  21.001  0.00  0.00    +0.249 C 
ATOM      2  O   UNL     1      41.815  19.189  19.675  0.00  0.00    -0.298 OA
ENDBRANCH   3   2
BRANCH   7   8
ATOM      8  O   UNL     1      44.761  22.914  19.351  0.00  0.00    -0.322 OA
ATOM      9  C   UNL     1      45.079  23.552  20.589  0.00  0.00    +0.242 C 
ENDBRANCH   7   8
BRANCH  27  28
ATOM     28  O   UNL     1      42.230  21.904  19.609  0.00  0.00    -0.319 OA
ATOM     29  C   UNL     1      41.347  21.969  18.488  0.00  0.00    +0.237 C 
ENDBRANCH  27  28
TORSDOF 4
ENDMDL
MODEL 3
REMARK VINA RESULT:      -5.9      2.472      7.548
REMARK  Name = ZINC14640942
REMARK  7 active torsions:
REMARK  status: ('A' for Active; 'I' for Inactive)
REMARK    1  A    between atoms: C1_1  and  O1_2
REMARK    2  A    between atoms: O1_2  and  C2_3
REMARK    3  A    between atoms: C9_10  and  C10_11
REMARK    4  A    between atoms: C19_24  and  O7_28
REMARK    5  A    between atoms: C20_25  and  O6_26
REMARK    6  A    between atoms: O6_26  and  C21_27
REMARK    7  A    between atoms: O7_28  and  C22_29
REMARK                            x       y       z     vdW  Elec       q    Type
REMARK                         _______ _______ _______ _____ _____    ______ ____
ROOT
ATOM      3  C   UNL     1      46.871  14.620  17.580  0.00  0.00    +0.136 A 
ATOM      4  C   UNL     1      46.659  15.871  18.113  0.00  0.00    -0.045 A 
ATOM      5  C   UNL     1      47.701  16.810  18.133  0.00  0.00    -0.003 A 
ATOM      6  C   UNL     1      48.965  16.465  17.592  0.00  0.00    -0.058 A 
ATOM      7  C   UNL     1      49.159  15.182  17.048  0.00  0.00    +0.123 A 
ATOM     10  C   UNL     1      50.011  17.408  17.606  0.00  0.00    +0.091 A 
ATOM     11  C   UNL     1      49.814  18.640  18.132  0.00  0.00    -0.120 A 
ATOM     12  C   UNL     1      48.568  19.011  18.676  0.00  0.00    -0.172 A 
ATOM     13  C   UNL     1      48.678  20.395  19.160  0.00  0.00    +0.520 C 
ATOM     14  O   UNL     1      49.916  20.871  18.936  0.00  0.00    -0.317 OA
ATOM     15  O   UNL     1      47.779  21.020  19.686  0.00  0.00    -0.437 OA
ATOM     16  C   UNL     1      50.713  19.842  18.291  0.00  0.00    +0.333 C 
ATOM     17  C   UNL     1      47.506  18.099  18.679  0.00  0.00    +0.061 A 
ATOM     27  C   UNL     1      48.119  14.276  17.045  0.00  0.00    +0.079 A 
ENDROOT
BRANCH  17  18
ATOM     18  C   UNL     1      46.197  18.480  19.248  0.00  0.00    -0.055 A 
ATOM     19  C   UNL     1      45.905  18.199  20.585  0.00  0.00    +0.052 A 
ATOM     20  C   UNL     1      44.684  18.554  21.114  0.00  0.00    +0.041 A 
ATOM     21  C   UNL     1      43.739  19.193  20.323  0.00  0.00    +0.045 A 
ATOM     22  C   UNL     1      44.022  19.476  18.987  0.00  0.00    +0.038 A 
ATOM     23  O   UNL     1      42.942  20.100  18.434  0.00  0.00    -0.306 OA
ATOM     24  C   UNL     1      41.844  19.828  19.326  0.00  0.00    +0.436 C 
ATOM     25  O   UNL     1      42.480  19.639  20.604  0.00  0.00    -0.307 OA
ATOM     26  C   UNL     1      45.248  19.126  18.452  0.00  0.00    +0.075 A 
ENDBRANCH  17  18
BRANCH   3   2
ATOM      1  C   UNL     1      45.369  13.272  18.835  0.00  0.00    +0.249 C 
ATOM      2  O   UNL     1      45.860  13.713  17.568  0.00  0.00    -0.298 OA
ENDBRANCH   3   2
BRANCH   7   8
ATOM      8  O   UNL     1      50.367  14.838  16.525  0.00  0.00    -0.322 OA
ATOM      9  C   UNL     1      51.268  14.136  17.383  0.00  0.00    +0.242 C 
ENDBRANCH   7   8
BRANCH  27  28
ATOM     28  O   UNL     1      48.307  13.035  16.519  0.00  0.00    -0.319 OA
ATOM     29  C   UNL     1      48.041  12.876  15.124  0.00  0.00    +0.237 C 
ENDBRANCH  27  28
TORSDOF 4
ENDMDL
MODEL 4
REMARK VINA RESULT:      -5.7      2.112      6.263
REMARK  Name = ZINC14640942
REMARK  7 active torsions:
REMARK  status: ('A' for Active; 'I' for Inactive)
REMARK    1  A    between atoms: C1_1  and  O1_2
REMARK    2  A    between atoms: O1_2  and  C2_3
REMARK    3  A    between atoms: C9_10  and  C10_11
REMARK    4  A    between atoms: C19_24  and  O7_28
REMARK    5  A    between atoms: C20_25  and  O6_26
REMARK    6  A    between atoms: O6_26  and  C21_27
REMARK    7  A    between atoms: O7_28  and  C22_29
REMARK                            x       y       z     vdW  Elec       q    Type
REMARK                         _______ _______ _______ _____ _____    ______ ____
ROOT
ATOM      3  C   UNL     1      50.464  20.065  18.208  0.00  0.00    +0.136 A 
ATOM      4  C   UNL     1      49.214  19.918  18.766  0.00  0.00    -0.045 A 
ATOM      5  C   UNL     1      48.558  18.680  18.695  0.00  0.00    -0.003 A 
ATOM      6  C   UNL     1      49.193  17.585  18.057  0.00  0.00    -0.058 A 
ATOM      7  C   UNL     1      50.473  17.756  17.498  0.00  0.00    +0.123 A 
ATOM     10  C   UNL     1      48.538  16.340  17.991  0.00  0.00    +0.091 A 
ATOM     11  C   UNL     1      47.307  16.185  18.532  0.00  0.00    -0.120 A 
ATOM     12  C   UNL     1      46.651  17.255  19.173  0.00  0.00    -0.172 A 
ATOM     13  C   UNL     1      45.347  16.770  19.648  0.00  0.00    +0.520 C 
ATOM     14  O   UNL     1      45.187  15.474  19.328  0.00  0.00    -0.317 OA
ATOM     15  O   UNL     1      44.531  17.443  20.244  0.00  0.00    -0.437 OA
ATOM     16  C   UNL     1      46.367  15.007  18.621  0.00  0.00    +0.333 C 
ATOM     17  C   UNL     1      47.272  18.507  19.258  0.00  0.00    +0.061 A 
ATOM     27  C   UNL     1      51.094  18.986  17.577  0.00  0.00    +0.079 A 
ENDROOT
BRANCH  17  18
ATOM     18  C   UNL     1      46.592  19.635  19.928  0.00  0.00    -0.055 A 
ATOM     19  C   UNL     1      46.636  19.753  21.319  0.00  0.00    +0.052 A 
ATOM     20  C   UNL     1      46.001  20.805  21.942  0.00  0.00    +0.041 A 
ATOM     21  C   UNL     1      45.317  21.751  21.192  0.00  0.00    +0.045 A 
ATOM     22  C   UNL     1      45.268  21.639  19.802  0.00  0.00    +0.038 A 
ATOM     23  O   UNL     1      44.542  22.683  19.306  0.00  0.00    -0.306 OA
ATOM     24  C   UNL     1      43.803  23.204  20.427  0.00  0.00    +0.436 C 
ATOM     25  O   UNL     1      44.620  22.864  21.563  0.00  0.00    -0.307 OA
ATOM     26  C   UNL     1      45.908  20.589  19.171  0.00  0.00    +0.075 A 
ENDBRANCH  17  18
BRANCH   3   2
ATOM      1  C   UNL     1      51.850  21.538  19.456  0.00  0.00    +0.249 C 
ATOM      2  O   UNL     1      51.093  21.267  18.275  0.00  0.00    -0.298 OA
ENDBRANCH   3   2
BRANCH   7   8
ATOM      8  O   UNL     1      51.094  16.715  16.883  0.00  0.00    -0.322 OA
ATOM      9  C   UNL     1      51.981  15.927  17.680  0.00  0.00    +0.242 C 
ENDBRANCH   7   8
BRANCH  27  28
ATOM     28  O   UNL     1      52.332  19.151  17.036  0.00  0.00    -0.319 OA
ATOM     29  C   UNL     1      52.394  19.675  15.708  0.00  0.00    +0.237 C 
ENDBRANCH  27  28
TORSDOF 4
ENDMDL
MODEL 5
REMARK VINA RESULT:      -5.6      1.791      5.271
REMARK  Name = ZINC14640942
REMARK  7 active torsions:
REMARK  status: ('A' for Active; 'I' for Inactive)
REMARK    1  A    between atoms: C1_1  and  O1_2
REMARK    2  A    between atoms: O1_2  and  C2_3
REMARK    3  A    between atoms: C9_10  and  C10_11
REMARK    4  A    between atoms: C19_24  and  O7_28
REMARK    5  A    between atoms: C20_25  and  O6_26
REMARK    6  A    between atoms: O6_26  and  C21_27
REMARK    7  A    between atoms: O7_28  and  C22_29
REMARK                            x       y       z     vdW  Elec       q    Type
REMARK                         _______ _______ _______ _____ _____    ______ ____
ROOT
ATOM      3  C   UNL     1      44.661  19.788  19.718  0.00  0.00    +0.136 A 
ATOM      4  C   UNL     1      45.574  18.892  19.212  0.00  0.00    -0.045 A 
ATOM      5  C   UNL     1      46.939  19.219  19.192  0.00  0.00    -0.003 A 
ATOM      6  C   UNL     1      47.367  20.469  19.703  0.00  0.00    -0.058 A 
ATOM      7  C   UNL     1      46.417  21.369  20.220  0.00  0.00    +0.123 A 
ATOM     10  C   UNL     1      48.737  20.796  19.689  0.00  0.00    +0.091 A 
ATOM     11  C   UNL     1      49.643  19.924  19.189  0.00  0.00    -0.120 A 
ATOM     12  C   UNL     1      49.247  18.673  18.674  0.00  0.00    -0.172 A 
ATOM     13  C   UNL     1      50.453  17.968  18.215  0.00  0.00    +0.520 C 
ATOM     14  O   UNL     1      51.544  18.724  18.426  0.00  0.00    -0.317 OA
ATOM     15  O   UNL     1      50.461  16.860  17.716  0.00  0.00    -0.437 OA
ATOM     16  C   UNL     1      51.145  19.980  19.037  0.00  0.00    +0.333 C 
ATOM     17  C   UNL     1      47.894  18.314  18.674  0.00  0.00    +0.061 A 
ATOM     27  C   UNL     1      45.081  21.025  20.224  0.00  0.00    +0.079 A 
ENDROOT
BRANCH  17  18
ATOM     18  C   UNL     1      47.469  17.005  18.136  0.00  0.00    -0.055 A 
ATOM     19  C   UNL     1      47.086  16.889  16.797  0.00  0.00    +0.052 A 
ATOM     20  C   UNL     1      46.689  15.668  16.297  0.00  0.00    +0.041 A 
ATOM     21  C   UNL     1      46.671  14.550  17.118  0.00  0.00    +0.045 A 
ATOM     22  C   UNL     1      47.051  14.658  18.456  0.00  0.00    +0.038 A 
ATOM     23  O   UNL     1      46.945  13.429  19.040  0.00  0.00    -0.306 OA
ATOM     24  C   UNL     1      46.108  12.656  18.160  0.00  0.00    +0.436 C 
ATOM     25  O   UNL     1      46.326  13.253  16.868  0.00  0.00    -0.307 OA
ATOM     26  C   UNL     1      47.455  15.879  18.962  0.00  0.00    +0.075 A 
ENDBRANCH  17  18
BRANCH   3   2
ATOM      1  C   UNL     1      42.862  18.736  20.861  0.00  0.00    +0.249 C 
ATOM      2  O   UNL     1      43.341  19.469  19.732  0.00  0.00    -0.298 OA
ENDBRANCH   3   2
BRANCH   7   8
ATOM      8  O   UNL     1      46.815  22.572  20.714  0.00  0.00    -0.322 OA
ATOM      9  C   UNL     1      47.043  22.651  22.122  0.00  0.00    +0.242 C 
ENDBRANCH   7   8
BRANCH  27  28
ATOM     28  O   UNL     1      44.163  21.895  20.724  0.00  0.00    -0.319 OA
ATOM     29  C   UNL     1      43.648  22.881  19.827  0.00  0.00    +0.237 C 
ENDBRANCH  27  28
TORSDOF 4
ENDMDL
MODEL 6
REMARK VINA RESULT:      -5.6      2.423      5.307
REMARK  Name = ZINC14640942
REMARK  7 active torsions:
REMARK  status: ('A' for Active; 'I' for Inactive)
REMARK    1  A    between atoms: C1_1  and  O1_2
REMARK    2  A    between atoms: O1_2  and  C2_3
REMARK    3  A    between atoms: C9_10  and  C10_11
REMARK    4  A    between atoms: C19_24  and  O7_28
REMARK    5  A    between atoms: C20_25  and  O6_26
REMARK    6  A    between atoms: O6_26  and  C21_27
REMARK    7  A    between atoms: O7_28  and  C22_29
REMARK                            x       y       z     vdW  Elec       q    Type
REMARK                         _______ _______ _______ _____ _____    ______ ____
ROOT
ATOM      3  C   UNL     1      45.736  18.074  19.592  0.00  0.00    +0.136 A 
ATOM      4  C   UNL     1      46.995  17.629  19.259  0.00  0.00    -0.045 A 
ATOM      5  C   UNL     1      48.036  18.551  19.072  0.00  0.00    -0.003 A 
ATOM      6  C   UNL     1      47.784  19.936  19.239  0.00  0.00    -0.058 A 
ATOM      7  C   UNL     1      46.491  20.369  19.585  0.00  0.00    +0.123 A 
ATOM     10  C   UNL     1      48.830  20.862  19.059  0.00  0.00    +0.091 A 
ATOM     11  C   UNL     1      50.071  20.436  18.726  0.00  0.00    -0.120 A 
ATOM     12  C   UNL     1      50.351  19.066  18.553  0.00  0.00    -0.172 A 
ATOM     13  C   UNL     1      51.772  18.933  18.199  0.00  0.00    +0.520 C 
ATOM     14  O   UNL     1      52.356  20.143  18.152  0.00  0.00    -0.317 OA
ATOM     15  O   UNL     1      52.338  17.881  17.982  0.00  0.00    -0.437 OA
ATOM     16  C   UNL     1      51.369  21.162  18.468  0.00  0.00    +0.333 C 
ATOM     17  C   UNL     1      49.336  18.117  18.726  0.00  0.00    +0.061 A 
ATOM     27  C   UNL     1      45.484  19.441  19.758  0.00  0.00    +0.079 A 
ENDROOT
BRANCH  17  18
ATOM     18  C   UNL     1      49.621  16.678  18.546  0.00  0.00    -0.055 A 
ATOM     19  C   UNL     1      50.057  15.910  19.628  0.00  0.00    +0.052 A 
ATOM     20  C   UNL     1      50.322  14.568  19.460  0.00  0.00    +0.041 A 
ATOM     21  C   UNL     1      50.155  13.975  18.216  0.00  0.00    +0.045 A 
ATOM     22  C   UNL     1      49.721  14.735  17.131  0.00  0.00    +0.038 A 
ATOM     23  O   UNL     1      49.640  13.925  16.035  0.00  0.00    -0.306 OA
ATOM     24  C   UNL     1      50.419  12.759  16.362  0.00  0.00    +0.436 C 
ATOM     25  O   UNL     1      50.347  12.690  17.798  0.00  0.00    -0.307 OA
ATOM     26  C   UNL     1      49.448  16.080  17.296  0.00  0.00    +0.075 A 
ENDBRANCH  17  18
BRANCH   3   2
ATOM      1  C   UNL     1      45.100  15.858  20.170  0.00  0.00    +0.249 C 
ATOM      2  O   UNL     1      44.730  17.178  19.767  0.00  0.00    -0.298 OA
ENDBRANCH   3   2
BRANCH   7   8
ATOM      8  O   UNL     1      46.236  21.694  19.749  0.00  0.00    -0.322 OA
ATOM      9  C   UNL     1      46.334  22.214  21.077  0.00  0.00    +0.242 C 
ENDBRANCH   7   8
BRANCH  27  28
ATOM     28  O   UNL     1      44.233  19.860  20.092  0.00  0.00    -0.319 OA
ATOM     29  C   UNL     1      43.348  20.183  19.018  0.00  0.00    +0.237 C 
ENDBRANCH  27  28
TORSDOF 4
ENDMDL
MODEL 7
REMARK VINA RESULT:      -5.5      2.125      2.661
REMARK  Name = ZINC14640942
REMARK  7 active torsions:
REMARK  status: ('A' for Active; 'I' for Inactive)
REMARK    1  A    between atoms: C1_1  and  O1_2
REMARK    2  A    between atoms: O1_2  and  C2_3
REMARK    3  A    between atoms: C9_10  and  C10_11
REMARK    4  A    between atoms: C19_24  and  O7_28
REMARK    5  A    between atoms: C20_25  and  O6_26
REMARK    6  A    between atoms: O6_26  and  C21_27
REMARK    7  A    between atoms: O7_28  and  C22_29
REMARK                            x       y       z     vdW  Elec       q    Type
REMARK                         _______ _______ _______ _____ _____    ______ ____
ROOT
ATOM      3  C   UNL     1      44.567  21.435  19.488  0.00  0.00    +0.136 A 
ATOM      4  C   UNL     1      45.729  20.707  19.601  0.00  0.00    -0.045 A 
ATOM      5  C   UNL     1      45.670  19.333  19.877  0.00  0.00    -0.003 A 
ATOM      6  C   UNL     1      44.410  18.702  20.028  0.00  0.00    -0.058 A 
ATOM      7  C   UNL     1      43.234  19.464  19.904  0.00  0.00    +0.123 A 
ATOM     10  C   UNL     1      44.348  17.321  20.300  0.00  0.00    +0.091 A 
ATOM     11  C   UNL     1      45.485  16.596  20.418  0.00  0.00    -0.120 A 
ATOM     12  C   UNL     1      46.752  17.196  20.272  0.00  0.00    -0.172 A 
ATOM     13  C   UNL     1      47.772  16.153  20.455  0.00  0.00    +0.520 C 
ATOM     14  O   UNL     1      47.188  14.967  20.700  0.00  0.00    -0.317 OA
ATOM     15  O   UNL     1      48.971  16.336  20.392  0.00  0.00    -0.437 OA
ATOM     16  C   UNL     1      45.745  15.136  20.699  0.00  0.00    +0.333 C 
ATOM     17  C   UNL     1      46.851  18.566  20.001  0.00  0.00    +0.061 A 
ATOM     27  C   UNL     1      43.320  20.815  19.637  0.00  0.00    +0.079 A 
ENDROOT
BRANCH  17  18
ATOM     18  C   UNL     1      48.175  19.203  19.847  0.00  0.00    -0.055 A 
ATOM     19  C   UNL     1      48.760  19.872  20.925  0.00  0.00    +0.052 A 
ATOM     20  C   UNL     1      49.995  20.466  20.780  0.00  0.00    +0.041 A 
ATOM     21  C   UNL     1      50.663  20.401  19.565  0.00  0.00    +0.045 A 
ATOM     22  C   UNL     1      50.085  19.736  18.484  0.00  0.00    +0.038 A 
ATOM     23  O   UNL     1      50.933  19.816  17.419  0.00  0.00    -0.306 OA
ATOM     24  C   UNL     1      51.847  20.883  17.734  0.00  0.00    +0.436 C 
ATOM     25  O   UNL     1      51.872  20.898  19.174  0.00  0.00    -0.307 OA
ATOM     26  C   UNL     1      48.849  19.133  18.625  0.00  0.00    +0.075 A 
ENDBRANCH  17  18
BRANCH   3   2
ATOM      1  C   UNL     1      45.044  23.620  20.293  0.00  0.00    +0.249 C 
ATOM      2  O   UNL     1      44.629  22.766  19.225  0.00  0.00    -0.298 OA
ENDBRANCH   3   2
BRANCH   7   8
ATOM      8  O   UNL     1      42.018  18.872  20.046  0.00  0.00    -0.322 OA
ATOM      9  C   UNL     1      41.446  18.871  21.356  0.00  0.00    +0.242 C 
ENDBRANCH   7   8
BRANCH  27  28
ATOM     28  O   UNL     1      42.182  21.552  19.517  0.00  0.00    -0.319 OA
ATOM     29  C   UNL     1      41.353  21.285  18.385  0.00  0.00    +0.237 C 
ENDBRANCH  27  28
TORSDOF 4
ENDMDL
MODEL 8
REMARK VINA RESULT:      -5.4      3.152      7.152
REMARK  Name = ZINC14640942
REMARK  7 active torsions:
REMARK  status: ('A' for Active; 'I' for Inactive)
REMARK    1  A    between atoms: C1_1  and  O1_2
REMARK    2  A    between atoms: O1_2  and  C2_3
REMARK    3  A    between atoms: C9_10  and  C10_11
REMARK    4  A    between atoms: C19_24  and  O7_28
REMARK    5  A    between atoms: C20_25  and  O6_26
REMARK    6  A    between atoms: O6_26  and  C21_27
REMARK    7  A    between atoms: O7_28  and  C22_29
REMARK                            x       y       z     vdW  Elec       q    Type
REMARK                         _______ _______ _______ _____ _____    ______ ____
ROOT
ATOM      3  C   UNL     1      50.419  17.545  18.003  0.00  0.00    +0.136 A 
ATOM      4  C   UNL     1      49.259  17.396  18.728  0.00  0.00    -0.045 A 
ATOM      5  C   UNL     1      48.664  18.514  19.332  0.00  0.00    -0.003 A 
ATOM      6  C   UNL     1      49.259  19.792  19.181  0.00  0.00    -0.058 A 
ATOM      7  C   UNL     1      50.442  19.921  18.432  0.00  0.00    +0.123 A 
ATOM     10  C   UNL     1      48.659  20.916  19.782  0.00  0.00    +0.091 A 
ATOM     11  C   UNL     1      47.520  20.781  20.501  0.00  0.00    -0.120 A 
ATOM     12  C   UNL     1      46.906  19.524  20.668  0.00  0.00    -0.172 A 
ATOM     13  C   UNL     1      45.702  19.712  21.490  0.00  0.00    +0.520 C 
ATOM     14  O   UNL     1      45.562  21.007  21.823  0.00  0.00    -0.317 OA
ATOM     15  O   UNL     1      44.942  18.824  21.821  0.00  0.00    -0.437 OA
ATOM     16  C   UNL     1      46.658  21.769  21.249  0.00  0.00    +0.333 C 
ATOM     17  C   UNL     1      47.474  18.385  20.085  0.00  0.00    +0.061 A 
ATOM     27  C   UNL     1      51.010  18.805  17.852  0.00  0.00    +0.079 A 
ENDROOT
BRANCH  17  18
ATOM     18  C   UNL     1      46.837  17.063  20.255  0.00  0.00    -0.055 A 
ATOM     19  C   UNL     1      45.913  16.604  19.313  0.00  0.00    +0.052 A 
ATOM     20  C   UNL     1      45.319  15.371  19.473  0.00  0.00    +0.041 A 
ATOM     21  C   UNL     1      45.638  14.579  20.567  0.00  0.00    +0.045 A 
ATOM     22  C   UNL     1      46.560  15.031  21.512  0.00  0.00    +0.038 A 
ATOM     23  O   UNL     1      46.696  14.077  22.478  0.00  0.00    -0.306 OA
ATOM     24  C   UNL     1      45.549  13.219  22.336  0.00  0.00    +0.436 C 
ATOM     25  O   UNL     1      45.198  13.344  20.946  0.00  0.00    -0.307 OA
ATOM     26  C   UNL     1      47.162  16.265  21.354  0.00  0.00    +0.075 A 
ENDBRANCH  17  18
BRANCH   3   2
ATOM      1  C   UNL     1      51.764  15.603  18.272  0.00  0.00    +0.249 C 
ATOM      2  O   UNL     1      50.994  16.458  17.425  0.00  0.00    -0.298 OA
ENDBRANCH   3   2
BRANCH   7   8
ATOM      8  O   UNL     1      51.024  21.141  18.279  0.00  0.00    -0.322 OA
ATOM      9  C   UNL     1      52.041  21.497  19.217  0.00  0.00    +0.242 C 
ENDBRANCH   7   8
BRANCH  27  28
ATOM     28  O   UNL     1      52.155  18.931  17.128  0.00  0.00    -0.319 OA
ATOM     29  C   UNL     1      52.014  19.264  15.745  0.00  0.00    +0.237 C 
ENDBRANCH  27  28
TORSDOF 4
ENDMDL
MODEL 9
REMARK VINA RESULT:      -5.4      2.528      6.334
REMARK  Name = ZINC14640942
REMARK  7 active torsions:
REMARK  status: ('A' for Active; 'I' for Inactive)
REMARK    1  A    between atoms: C1_1  and  O1_2
REMARK    2  A    between atoms: O1_2  and  C2_3
REMARK    3  A    between atoms: C9_10  and  C10_11
REMARK    4  A    between atoms: C19_24  and  O7_28
REMARK    5  A    between atoms: C20_25  and  O6_26
REMARK    6  A    between atoms: O6_26  and  C21_27
REMARK    7  A    between atoms: O7_28  and  C22_29
REMARK                            x       y       z     vdW  Elec       q    Type
REMARK                         _______ _______ _______ _____ _____    ______ ____
ROOT
ATOM      3  C   UNL     1      49.309  20.211  19.664  0.00  0.00    +0.136 A 
ATOM      4  C   UNL     1      48.311  19.269  19.763  0.00  0.00    -0.045 A 
ATOM      5  C   UNL     1      48.370  18.103  18.985  0.00  0.00    -0.003 A 
ATOM      6  C   UNL     1      49.464  17.899  18.109  0.00  0.00    -0.058 A 
ATOM      7  C   UNL     1      50.477  18.873  18.026  0.00  0.00    +0.123 A 
ATOM     10  C   UNL     1      49.528  16.726  17.332  0.00  0.00    +0.091 A 
ATOM     11  C   UNL     1      48.548  15.795  17.418  0.00  0.00    -0.120 A 
ATOM     12  C   UNL     1      47.448  15.970  18.280  0.00  0.00    -0.172 A 
ATOM     13  C   UNL     1      46.573  14.797  18.144  0.00  0.00    +0.520 C 
ATOM     14  O   UNL     1      47.087  13.933  17.252  0.00  0.00    -0.317 OA
ATOM     15  O   UNL     1      45.534  14.631  18.752  0.00  0.00    -0.437 OA
ATOM     16  C   UNL     1      48.334  14.467  16.733  0.00  0.00    +0.333 C 
ATOM     17  C   UNL     1      47.353  17.124  19.068  0.00  0.00    +0.061 A 
ATOM     27  C   UNL     1      50.393  20.013  18.799  0.00  0.00    +0.079 A 
ENDROOT
BRANCH  17  18
ATOM     18  C   UNL     1      46.203  17.316  19.975  0.00  0.00    -0.055 A 
ATOM     19  C   UNL     1      46.224  16.767  21.260  0.00  0.00    +0.052 A 
ATOM     20  C   UNL     1      45.150  16.947  22.105  0.00  0.00    +0.041 A 
ATOM     21  C   UNL     1      44.046  17.674  21.685  0.00  0.00    +0.045 A 
ATOM     22  C   UNL     1      44.016  18.224  20.403  0.00  0.00    +0.038 A 
ATOM     23  O   UNL     1      42.833  18.883  20.238  0.00  0.00    -0.306 OA
ATOM     24  C   UNL     1      41.969  18.385  21.277  0.00  0.00    +0.436 C 
ATOM     25  O   UNL     1      42.879  17.988  22.319  0.00  0.00    -0.307 OA
ATOM     26  C   UNL     1      45.093  18.051  19.553  0.00  0.00    +0.075 A 
ENDBRANCH  17  18
BRANCH   3   2
ATOM      1  C   UNL     1      48.797  21.198  21.764  0.00  0.00    +0.249 C 
ATOM      2  O   UNL     1      49.246  21.341  20.415  0.00  0.00    -0.298 OA
ENDBRANCH   3   2
BRANCH   7   8
ATOM      8  O   UNL     1      51.533  18.690  17.190  0.00  0.00    -0.322 OA
ATOM      9  C   UNL     1      51.472  19.337  15.917  0.00  0.00    +0.242 C 
ENDBRANCH   7   8
BRANCH  27  28
ATOM     28  O   UNL     1      51.372  20.955  18.718  0.00  0.00    -0.319 OA
ATOM     29  C   UNL     1      52.454  20.846  19.646  0.00  0.00    +0.237 C 
ENDBRANCH  27  28
TORSDOF 4
ENDMDL
