MODEL 1
REMARK VINA RESULT:      -6.5      0.000      0.000
REMARK  Name = ZINC95486010
REMARK  6 active torsions:
REMARK  status: ('A' for Active; 'I' for Inactive)
REMARK    1  A    between atoms: C1_1  and  C2_2
REMARK    2  A    between atoms: C2_2  and  C4_4
REMARK    3  A    between atoms: C17_20  and  O4_30
REMARK    4  A    between atoms: C18_21  and  O3_28
REMARK    5  A    between atoms: O3_28  and  C23_29
REMARK    6  A    between atoms: O4_30  and  C24_31
REMARK                            x       y       z     vdW  Elec       q    Type
REMARK                         _______ _______ _______ _____ _____    ______ ____
ROOT
ATOM      3  C   UNL     1      41.711  20.250  19.324  0.00  0.00    +0.214 C 
ATOM      4  C   UNL     1      42.799  19.499  18.517  0.00  0.00    +0.102 C 
ATOM      5  C   UNL     1      44.047  20.242  18.912  0.00  0.00    -0.228 A 
ATOM      6  C   UNL     1      43.642  21.438  19.519  0.00  0.00    +0.185 A 
ATOM      7  C   UNL     1      44.592  22.346  20.004  0.00  0.00    -0.032 A 
ATOM      8  C   UNL     1      45.917  22.026  19.862  0.00  0.00    +0.154 A 
ATOM      9  C   UNL     1      46.323  20.836  19.255  0.00  0.00    -0.283 A 
ATOM     10  C   UNL     1      47.758  20.522  19.115  0.00  0.00    +0.414 C 
ATOM     11  O   UNL     1      48.617  21.151  19.696  0.00  0.00    -0.436 OA
ATOM     12  C   UNL     1      48.086  19.360  18.199  0.00  0.00    +0.010 C 
ATOM     13  C   UNL     1      49.471  18.843  18.469  0.00  0.00    -0.078 A 
ATOM     14  C   UNL     1      50.481  19.762  18.715  0.00  0.00    +0.005 A 
ATOM     15  C   UNL     1      51.777  19.338  18.943  0.00  0.00    +0.097 A 
ATOM     18  C   UNL     1      52.067  17.976  18.927  0.00  0.00    +0.111 A 
ATOM     21  C   UNL     1      51.056  17.065  18.687  0.00  0.00    -0.043 A 
ATOM     22  C   UNL     1      49.753  17.493  18.461  0.00  0.00    -0.071 A 
ATOM     23  C   UNL     1      48.707  16.437  18.218  0.00  0.00    +0.099 C 
ATOM     24  C   UNL     1      47.426  17.043  17.645  0.00  0.00    +0.066 C 
ATOM     25  C   UNL     1      47.058  18.260  18.491  0.00  0.00    +0.186 C 
ATOM     26  O   UNL     1      45.756  18.750  18.180  0.00  0.00    -0.292 OA
ATOM     27  C   UNL     1      45.376  19.910  18.765  0.00  0.00    +0.232 A 
ATOM     28  O   UNL     1      42.297  21.548  19.539  0.00  0.00    -0.282 OA
ENDROOT
BRANCH   3   2
ATOM      1  C   UNL     1      39.506  21.526  18.755  0.00  0.00    +0.087 C 
ATOM      2  C   UNL     1      40.439  20.365  18.525  0.00  0.00    -0.132 C 
ATOM     29  C   UNL     1      40.143  19.455  17.630  0.00  0.00    +0.050 C 
ENDBRANCH   3   2
BRANCH  15  16
ATOM     16  O   UNL     1      52.762  20.245  19.182  0.00  0.00    -0.305 OA
ATOM     17  C   UNL     1      52.392  21.437  19.876  0.00  0.00    +0.239 C 
ENDBRANCH  15  16
BRANCH  18  19
ATOM     19  O   UNL     1      53.338  17.546  19.146  0.00  0.00    -0.305 OA
ATOM     20  C   UNL     1      53.556  16.133  19.131  0.00  0.00    +0.237 C 
ENDBRANCH  18  19
TORSDOF 3
ENDMDL
MODEL 2
REMARK VINA RESULT:      -6.3      1.871      2.611
REMARK  Name = ZINC95486010
REMARK  6 active torsions:
REMARK  status: ('A' for Active; 'I' for Inactive)
REMARK    1  A    between atoms: C1_1  and  C2_2
REMARK    2  A    between atoms: C2_2  and  C4_4
REMARK    3  A    between atoms: C17_20  and  O4_30
REMARK    4  A    between atoms: C18_21  and  O3_28
REMARK    5  A    between atoms: O3_28  and  C23_29
REMARK    6  A    between atoms: O4_30  and  C24_31
REMARK                            x       y       z     vdW  Elec       q    Type
REMARK                         _______ _______ _______ _____ _____    ______ ____
ROOT
ATOM      3  C   UNL     1      42.711  20.897  19.531  0.00  0.00    +0.214 C 
ATOM      4  C   UNL     1      43.346  19.943  18.487  0.00  0.00    +0.102 C 
ATOM      5  C   UNL     1      44.802  19.996  18.865  0.00  0.00    -0.228 A 
ATOM      6  C   UNL     1      44.970  21.099  19.712  0.00  0.00    +0.185 A 
ATOM      7  C   UNL     1      46.232  21.404  20.239  0.00  0.00    -0.032 A 
ATOM      8  C   UNL     1      47.284  20.596  19.896  0.00  0.00    +0.154 A 
ATOM      9  C   UNL     1      47.119  19.498  19.049  0.00  0.00    -0.283 A 
ATOM     10  C   UNL     1      48.272  18.648  18.697  0.00  0.00    +0.414 C 
ATOM     11  O   UNL     1      49.334  18.725  19.279  0.00  0.00    -0.436 OA
ATOM     12  C   UNL     1      48.042  17.672  17.561  0.00  0.00    +0.010 C 
ATOM     13  C   UNL     1      49.072  16.578  17.580  0.00  0.00    -0.078 A 
ATOM     14  C   UNL     1      50.387  16.918  17.868  0.00  0.00    +0.005 A 
ATOM     15  C   UNL     1      51.377  15.953  17.872  0.00  0.00    +0.097 A 
ATOM     18  C   UNL     1      51.049  14.631  17.586  0.00  0.00    +0.111 A 
ATOM     21  C   UNL     1      49.737  14.297  17.305  0.00  0.00    -0.043 A 
ATOM     22  C   UNL     1      48.743  15.268  17.304  0.00  0.00    -0.071 A 
ATOM     23  C   UNL     1      47.336  14.823  17.000  0.00  0.00    +0.099 C 
ATOM     24  C   UNL     1      46.430  16.013  16.688  0.00  0.00    +0.066 C 
ATOM     25  C   UNL     1      46.646  17.069  17.770  0.00  0.00    +0.186 C 
ATOM     26  O   UNL     1      45.678  18.111  17.697  0.00  0.00    -0.292 OA
ATOM     27  C   UNL     1      45.852  19.177  18.514  0.00  0.00    +0.232 A 
ATOM     28  O   UNL     1      43.806  21.756  19.902  0.00  0.00    -0.282 OA
ENDROOT
BRANCH   3   2
ATOM      1  C   UNL     1      40.237  21.069  18.715  0.00  0.00    +0.087 C 
ATOM      2  C   UNL     1      41.593  21.696  18.911  0.00  0.00    -0.132 C 
ATOM     29  C   UNL     1      41.801  22.936  18.543  0.00  0.00    +0.050 C 
ENDBRANCH   3   2
BRANCH  15  16
ATOM     16  O   UNL     1      52.663  16.293  18.154  0.00  0.00    -0.305 OA
ATOM     17  C   UNL     1      52.867  17.483  18.917  0.00  0.00    +0.239 C 
ENDBRANCH  15  16
BRANCH  18  19
ATOM     19  O   UNL     1      52.014  13.672  17.582  0.00  0.00    -0.305 OA
ATOM     20  C   UNL     1      51.767  12.507  16.792  0.00  0.00    +0.237 C 
ENDBRANCH  18  19
TORSDOF 3
ENDMDL
MODEL 3
REMARK VINA RESULT:      -6.1      2.982      8.482
REMARK  Name = ZINC95486010
REMARK  6 active torsions:
REMARK  status: ('A' for Active; 'I' for Inactive)
REMARK    1  A    between atoms: C1_1  and  C2_2
REMARK    2  A    between atoms: C2_2  and  C4_4
REMARK    3  A    between atoms: C17_20  and  O4_30
REMARK    4  A    between atoms: C18_21  and  O3_28
REMARK    5  A    between atoms: O3_28  and  C23_29
REMARK    6  A    between atoms: O4_30  and  C24_31
REMARK                            x       y       z     vdW  Elec       q    Type
REMARK                         _______ _______ _______ _____ _____    ______ ____
ROOT
ATOM      3  C   UNL     1      50.822  13.078  16.508  0.00  0.00    +0.214 C 
ATOM      4  C   UNL     1      50.827  14.626  16.580  0.00  0.00    +0.102 C 
ATOM      5  C   UNL     1      49.379  14.928  16.858  0.00  0.00    -0.228 A 
ATOM      6  C   UNL     1      48.653  13.761  16.585  0.00  0.00    +0.185 A 
ATOM      7  C   UNL     1      47.263  13.731  16.760  0.00  0.00    -0.032 A 
ATOM      8  C   UNL     1      46.647  14.873  17.199  0.00  0.00    +0.154 A 
ATOM      9  C   UNL     1      47.368  16.039  17.468  0.00  0.00    -0.283 A 
ATOM     10  C   UNL     1      46.674  17.253  17.938  0.00  0.00    +0.414 C 
ATOM     11  O   UNL     1      45.520  17.235  18.311  0.00  0.00    -0.436 OA
ATOM     12  C   UNL     1      47.499  18.524  17.924  0.00  0.00    +0.010 C 
ATOM     13  C   UNL     1      46.886  19.568  18.814  0.00  0.00    -0.078 A 
ATOM     14  C   UNL     1      45.506  19.709  18.809  0.00  0.00    +0.005 A 
ATOM     15  C   UNL     1      44.895  20.672  19.590  0.00  0.00    +0.097 A 
ATOM     18  C   UNL     1      45.674  21.505  20.387  0.00  0.00    +0.111 A 
ATOM     21  C   UNL     1      47.049  21.358  20.392  0.00  0.00    -0.043 A 
ATOM     22  C   UNL     1      47.661  20.387  19.608  0.00  0.00    -0.071 A 
ATOM     23  C   UNL     1      49.162  20.282  19.678  0.00  0.00    +0.099 C 
ATOM     24  C   UNL     1      49.715  19.438  18.530  0.00  0.00    +0.066 C 
ATOM     25  C   UNL     1      48.893  18.154  18.447  0.00  0.00    +0.186 C 
ATOM     26  O   UNL     1      49.481  17.203  17.564  0.00  0.00    -0.292 OA
ATOM     27  C   UNL     1      48.769  16.082  17.300  0.00  0.00    +0.232 A 
ATOM     28  O   UNL     1      49.461  12.769  16.155  0.00  0.00    -0.282 OA
ENDROOT
BRANCH   3   2
ATOM      1  C   UNL     1      52.515  11.293  15.635  0.00  0.00    +0.087 C 
ATOM      2  C   UNL     1      51.773  12.591  15.445  0.00  0.00    -0.132 C 
ATOM     29  C   UNL     1      51.954  13.296  14.356  0.00  0.00    +0.050 C 
ENDBRANCH   3   2
BRANCH  15  16
ATOM     16  O   UNL     1      43.541  20.805  19.580  0.00  0.00    -0.305 OA
ATOM     17  C   UNL     1      42.772  19.614  19.756  0.00  0.00    +0.239 C 
ENDBRANCH  15  16
BRANCH  18  19
ATOM     19  O   UNL     1      45.087  22.460  21.157  0.00  0.00    -0.305 OA
ATOM     20  C   UNL     1      45.589  23.792  21.034  0.00  0.00    +0.237 C 
ENDBRANCH  18  19
TORSDOF 3
ENDMDL
MODEL 4
REMARK VINA RESULT:      -6.0      3.400      4.165
REMARK  Name = ZINC95486010
REMARK  6 active torsions:
REMARK  status: ('A' for Active; 'I' for Inactive)
REMARK    1  A    between atoms: C1_1  and  C2_2
REMARK    2  A    between atoms: C2_2  and  C4_4
REMARK    3  A    between atoms: C17_20  and  O4_30
REMARK    4  A    between atoms: C18_21  and  O3_28
REMARK    5  A    between atoms: O3_28  and  C23_29
REMARK    6  A    between atoms: O4_30  and  C24_31
REMARK                            x       y       z     vdW  Elec       q    Type
REMARK                         _______ _______ _______ _____ _____    ______ ____
ROOT
ATOM      3  C   UNL     1      41.101  19.910  19.025  0.00  0.00    +0.214 C 
ATOM      4  C   UNL     1      42.591  19.827  18.607  0.00  0.00    +0.102 C 
ATOM      5  C   UNL     1      43.155  18.902  19.651  0.00  0.00    -0.228 A 
ATOM      6  C   UNL     1      42.213  18.820  20.685  0.00  0.00    +0.185 A 
ATOM      7  C   UNL     1      42.456  18.017  21.807  0.00  0.00    -0.032 A 
ATOM      8  C   UNL     1      43.638  17.325  21.857  0.00  0.00    +0.154 A 
ATOM      9  C   UNL     1      44.580  17.408  20.829  0.00  0.00    -0.283 A 
ATOM     10  C   UNL     1      45.844  16.652  20.915  0.00  0.00    +0.414 C 
ATOM     11  O   UNL     1      46.024  15.784  21.742  0.00  0.00    -0.436 OA
ATOM     12  C   UNL     1      46.903  17.033  19.899  0.00  0.00    +0.010 C 
ATOM     13  C   UNL     1      47.932  15.946  19.768  0.00  0.00    -0.078 A 
ATOM     14  C   UNL     1      48.361  15.303  20.920  0.00  0.00    +0.005 A 
ATOM     15  C   UNL     1      49.325  14.314  20.856  0.00  0.00    +0.097 A 
ATOM     18  C   UNL     1      49.866  13.962  19.623  0.00  0.00    +0.111 A 
ATOM     21  C   UNL     1      49.432  14.601  18.477  0.00  0.00    -0.043 A 
ATOM     22  C   UNL     1      48.460  15.593  18.544  0.00  0.00    -0.071 A 
ATOM     23  C   UNL     1      48.032  16.234  17.250  0.00  0.00    +0.099 C 
ATOM     24  C   UNL     1      47.242  17.519  17.499  0.00  0.00    +0.066 C 
ATOM     25  C   UNL     1      46.182  17.226  18.558  0.00  0.00    +0.186 C 
ATOM     26  O   UNL     1      45.248  18.294  18.685  0.00  0.00    -0.292 OA
ATOM     27  C   UNL     1      44.346  18.211  19.691  0.00  0.00    +0.232 A 
ATOM     28  O   UNL     1      41.135  19.591  20.429  0.00  0.00    -0.282 OA
ENDROOT
BRANCH   3   2
ATOM      1  C   UNL     1      39.076  21.525  18.704  0.00  0.00    +0.087 C 
ATOM      2  C   UNL     1      40.562  21.300  18.807  0.00  0.00    -0.132 C 
ATOM     29  C   UNL     1      41.387  22.313  18.707  0.00  0.00    +0.050 C 
ENDBRANCH   3   2
BRANCH  15  16
ATOM     16  O   UNL     1      49.742  13.690  21.990  0.00  0.00    -0.305 OA
ATOM     17  C   UNL     1      48.904  12.654  22.505  0.00  0.00    +0.239 C 
ENDBRANCH  15  16
BRANCH  18  19
ATOM     19  O   UNL     1      50.818  12.994  19.546  0.00  0.00    -0.305 OA
ATOM     20  C   UNL     1      51.137  12.500  18.243  0.00  0.00    +0.237 C 
ENDBRANCH  18  19
TORSDOF 3
ENDMDL
MODEL 5
REMARK VINA RESULT:      -5.7      3.019      8.428
REMARK  Name = ZINC95486010
REMARK  6 active torsions:
REMARK  status: ('A' for Active; 'I' for Inactive)
REMARK    1  A    between atoms: C1_1  and  C2_2
REMARK    2  A    between atoms: C2_2  and  C4_4
REMARK    3  A    between atoms: C17_20  and  O4_30
REMARK    4  A    between atoms: C18_21  and  O3_28
REMARK    5  A    between atoms: O3_28  and  C23_29
REMARK    6  A    between atoms: O4_30  and  C24_31
REMARK                            x       y       z     vdW  Elec       q    Type
REMARK                         _______ _______ _______ _____ _____    ______ ____
ROOT
ATOM      3  C   UNL     1      49.213  12.870  20.385  0.00  0.00    +0.214 C 
ATOM      4  C   UNL     1      49.233  14.218  19.621  0.00  0.00    +0.102 C 
ATOM      5  C   UNL     1      47.802  14.667  19.748  0.00  0.00    -0.228 A 
ATOM      6  C   UNL     1      47.055  13.557  20.165  0.00  0.00    +0.185 A 
ATOM      7  C   UNL     1      45.675  13.669  20.379  0.00  0.00    -0.032 A 
ATOM      8  C   UNL     1      45.089  14.888  20.165  0.00  0.00    +0.154 A 
ATOM      9  C   UNL     1      45.830  15.995  19.745  0.00  0.00    -0.283 A 
ATOM     10  C   UNL     1      45.168  17.294  19.521  0.00  0.00    +0.414 C 
ATOM     11  O   UNL     1      44.033  17.514  19.888  0.00  0.00    -0.436 OA
ATOM     12  C   UNL     1      46.002  18.336  18.802  0.00  0.00    +0.010 C 
ATOM     13  C   UNL     1      45.439  19.712  19.020  0.00  0.00    -0.078 A 
ATOM     14  C   UNL     1      44.061  19.873  18.992  0.00  0.00    +0.005 A 
ATOM     15  C   UNL     1      43.496  21.123  19.161  0.00  0.00    +0.097 A 
ATOM     18  C   UNL     1      44.318  22.227  19.363  0.00  0.00    +0.111 A 
ATOM     21  C   UNL     1      45.690  22.062  19.395  0.00  0.00    -0.043 A 
ATOM     22  C   UNL     1      46.257  20.804  19.228  0.00  0.00    -0.071 A 
ATOM     23  C   UNL     1      47.758  20.704  19.287  0.00  0.00    +0.099 C 
ATOM     24  C   UNL     1      48.250  19.362  18.747  0.00  0.00    +0.066 C 
ATOM     25  C   UNL     1      47.416  18.257  19.391  0.00  0.00    +0.186 C 
ATOM     26  O   UNL     1      47.954  16.964  19.129  0.00  0.00    -0.292 OA
ATOM     27  C   UNL     1      47.223  15.898  19.529  0.00  0.00    +0.232 A 
ATOM     28  O   UNL     1      47.834  12.463  20.301  0.00  0.00    -0.282 OA
ENDROOT
BRANCH   3   2
ATOM      1  C   UNL     1      49.773  11.361  18.330  0.00  0.00    +0.087 C 
ATOM      2  C   UNL     1      50.108  11.862  19.711  0.00  0.00    -0.132 C 
ATOM     29  C   UNL     1      51.178  11.423  20.326  0.00  0.00    +0.050 C 
ENDBRANCH   3   2
BRANCH  15  16
ATOM     16  O   UNL     1      42.144  21.272  19.130  0.00  0.00    -0.305 OA
ATOM     17  C   UNL     1      41.360  20.078  19.100  0.00  0.00    +0.239 C 
ENDBRANCH  15  16
BRANCH  18  19
ATOM     19  O   UNL     1      43.775  23.463  19.526  0.00  0.00    -0.305 OA
ATOM     20  C   UNL     1      44.338  24.527  18.755  0.00  0.00    +0.237 C 
ENDBRANCH  18  19
TORSDOF 3
ENDMDL
MODEL 6
REMARK VINA RESULT:      -5.7      5.341     10.026
REMARK  Name = ZINC95486010
REMARK  6 active torsions:
REMARK  status: ('A' for Active; 'I' for Inactive)
REMARK    1  A    between atoms: C1_1  and  C2_2
REMARK    2  A    between atoms: C2_2  and  C4_4
REMARK    3  A    between atoms: C17_20  and  O4_30
REMARK    4  A    between atoms: C18_21  and  O3_28
REMARK    5  A    between atoms: O3_28  and  C23_29
REMARK    6  A    between atoms: O4_30  and  C24_31
REMARK                            x       y       z     vdW  Elec       q    Type
REMARK                         _______ _______ _______ _____ _____    ______ ____
ROOT
ATOM      3  C   UNL     1      51.165  12.061  13.648  0.00  0.00    +0.214 C 
ATOM      4  C   UNL     1      49.861  12.866  13.880  0.00  0.00    +0.102 C 
ATOM      5  C   UNL     1      49.501  12.470  15.287  0.00  0.00    -0.228 A 
ATOM      6  C   UNL     1      50.264  11.341  15.609  0.00  0.00    +0.185 A 
ATOM      7  C   UNL     1      50.151  10.742  16.871  0.00  0.00    -0.032 A 
ATOM      8  C   UNL     1      49.274  11.294  17.767  0.00  0.00    +0.154 A 
ATOM      9  C   UNL     1      48.509  12.418  17.447  0.00  0.00    -0.283 A 
ATOM     10  C   UNL     1      47.571  12.986  18.434  0.00  0.00    +0.414 C 
ATOM     11  O   UNL     1      47.580  12.655  19.601  0.00  0.00    -0.436 OA
ATOM     12  C   UNL     1      46.597  14.014  17.893  0.00  0.00    +0.010 C 
ATOM     13  C   UNL     1      46.019  14.840  19.007  0.00  0.00    -0.078 A 
ATOM     14  C   UNL     1      45.675  14.201  20.190  0.00  0.00    +0.005 A 
ATOM     15  C   UNL     1      45.115  14.912  21.235  0.00  0.00    +0.097 A 
ATOM     18  C   UNL     1      44.898  16.279  21.098  0.00  0.00    +0.111 A 
ATOM     21  C   UNL     1      45.247  16.912  19.919  0.00  0.00    -0.043 A 
ATOM     22  C   UNL     1      45.813  16.196  18.870  0.00  0.00    -0.071 A 
ATOM     23  C   UNL     1      46.176  16.960  17.624  0.00  0.00    +0.099 C 
ATOM     24  C   UNL     1      46.448  16.017  16.452  0.00  0.00    +0.066 C 
ATOM     25  C   UNL     1      47.389  14.917  16.938  0.00  0.00    +0.186 C 
ATOM     26  O   UNL     1      47.885  14.127  15.861  0.00  0.00    -0.292 OA
ATOM     27  C   UNL     1      48.616  13.034  16.181  0.00  0.00    +0.232 A 
ATOM     28  O   UNL     1      51.047  10.966  14.575  0.00  0.00    -0.282 OA
ENDROOT
BRANCH   3   2
ATOM      1  C   UNL     1      51.028  12.505  11.079  0.00  0.00    +0.087 C 
ATOM      2  C   UNL     1      51.232  11.554  12.230  0.00  0.00    -0.132 C 
ATOM     29  C   UNL     1      51.468  10.287  11.998  0.00  0.00    +0.050 C 
ENDBRANCH   3   2
BRANCH  15  16
ATOM     16  O   UNL     1      44.780  14.278  22.391  0.00  0.00    -0.305 OA
ATOM     17  C   UNL     1      45.142  12.901  22.505  0.00  0.00    +0.239 C 
ENDBRANCH  15  16
BRANCH  18  19
ATOM     19  O   UNL     1      44.345  16.990  22.117  0.00  0.00    -0.305 OA
ATOM     20  C   UNL     1      43.100  17.639  21.853  0.00  0.00    +0.237 C 
ENDBRANCH  18  19
TORSDOF 3
ENDMDL
MODEL 7
REMARK VINA RESULT:      -5.5      2.915      4.874
REMARK  Name = ZINC95486010
REMARK  6 active torsions:
REMARK  status: ('A' for Active; 'I' for Inactive)
REMARK    1  A    between atoms: C1_1  and  C2_2
REMARK    2  A    between atoms: C2_2  and  C4_4
REMARK    3  A    between atoms: C17_20  and  O4_30
REMARK    4  A    between atoms: C18_21  and  O3_28
REMARK    5  A    between atoms: O3_28  and  C23_29
REMARK    6  A    between atoms: O4_30  and  C24_31
REMARK                            x       y       z     vdW  Elec       q    Type
REMARK                         _______ _______ _______ _____ _____    ______ ____
ROOT
ATOM      3  C   UNL     1      44.788  21.668  19.124  0.00  0.00    +0.214 C 
ATOM      4  C   UNL     1      46.262  21.189  19.126  0.00  0.00    +0.102 C 
ATOM      5  C   UNL     1      46.102  19.696  19.232  0.00  0.00    -0.228 A 
ATOM      6  C   UNL     1      44.779  19.447  19.621  0.00  0.00    +0.185 A 
ATOM      7  C   UNL     1      44.325  18.134  19.795  0.00  0.00    -0.032 A 
ATOM      8  C   UNL     1      45.212  17.113  19.577  0.00  0.00    +0.154 A 
ATOM      9  C   UNL     1      46.532  17.358  19.193  0.00  0.00    -0.283 A 
ATOM     10  C   UNL     1      47.464  16.237  18.969  0.00  0.00    +0.414 C 
ATOM     11  O   UNL     1      47.086  15.087  18.893  0.00  0.00    -0.436 OA
ATOM     12  C   UNL     1      48.925  16.618  18.838  0.00  0.00    +0.010 C 
ATOM     13  C   UNL     1      49.707  15.517  18.179  0.00  0.00    -0.078 A 
ATOM     14  C   UNL     1      49.423  14.205  18.532  0.00  0.00    +0.005 A 
ATOM     15  C   UNL     1      50.131  13.158  17.974  0.00  0.00    +0.097 A 
ATOM     18  C   UNL     1      51.136  13.424  17.049  0.00  0.00    +0.111 A 
ATOM     21  C   UNL     1      51.412  14.732  16.696  0.00  0.00    -0.043 A 
ATOM     22  C   UNL     1      50.696  15.784  17.256  0.00  0.00    -0.071 A 
ATOM     23  C   UNL     1      51.049  17.179  16.812  0.00  0.00    +0.099 C 
ATOM     24  C   UNL     1      50.448  18.230  17.745  0.00  0.00    +0.066 C 
ATOM     25  C   UNL     1      48.979  17.881  17.968  0.00  0.00    +0.186 C 
ATOM     26  O   UNL     1      48.278  18.929  18.631  0.00  0.00    -0.292 OA
ATOM     27  C   UNL     1      47.003  18.678  19.010  0.00  0.00    +0.232 A 
ATOM     28  O   UNL     1      44.092  20.597  19.789  0.00  0.00    -0.282 OA
ENDROOT
BRANCH   3   2
ATOM      1  C   UNL     1      44.452  24.257  19.157  0.00  0.00    +0.087 C 
ATOM      2  C   UNL     1      44.645  22.956  19.893  0.00  0.00    -0.132 C 
ATOM     29  C   UNL     1      44.688  22.945  21.203  0.00  0.00    +0.050 C 
ENDBRANCH   3   2
BRANCH  15  16
ATOM     16  O   UNL     1      49.848  11.875  18.327  0.00  0.00    -0.305 OA
ATOM     17  C   UNL     1      48.471  11.541  18.508  0.00  0.00    +0.239 C 
ENDBRANCH  15  16
BRANCH  18  19
ATOM     19  O   UNL     1      51.844  12.403  16.495  0.00  0.00    -0.305 OA
ATOM     20  C   UNL     1      51.845  12.314  15.069  0.00  0.00    +0.237 C 
ENDBRANCH  18  19
TORSDOF 3
ENDMDL
MODEL 8
REMARK VINA RESULT:      -5.4      4.077      5.665
REMARK  Name = ZINC95486010
REMARK  6 active torsions:
REMARK  status: ('A' for Active; 'I' for Inactive)
REMARK    1  A    between atoms: C1_1  and  C2_2
REMARK    2  A    between atoms: C2_2  and  C4_4
REMARK    3  A    between atoms: C17_20  and  O4_30
REMARK    4  A    between atoms: C18_21  and  O3_28
REMARK    5  A    between atoms: O3_28  and  C23_29
REMARK    6  A    between atoms: O4_30  and  C24_31
REMARK                            x       y       z     vdW  Elec       q    Type
REMARK                         _______ _______ _______ _____ _____    ______ ____
ROOT
ATOM      3  C   UNL     1      44.507  18.415  20.918  0.00  0.00    +0.214 C 
ATOM      4  C   UNL     1      44.504  17.092  20.110  0.00  0.00    +0.102 C 
ATOM      5  C   UNL     1      45.794  17.197  19.341  0.00  0.00    -0.228 A 
ATOM      6  C   UNL     1      46.218  18.530  19.422  0.00  0.00    +0.185 A 
ATOM      7  C   UNL     1      47.407  18.936  18.803  0.00  0.00    -0.032 A 
ATOM      8  C   UNL     1      48.129  17.994  18.120  0.00  0.00    +0.154 A 
ATOM      9  C   UNL     1      47.707  16.665  18.034  0.00  0.00    -0.283 A 
ATOM     10  C   UNL     1      48.506  15.675  17.288  0.00  0.00    +0.414 C 
ATOM     11  O   UNL     1      49.637  15.906  16.915  0.00  0.00    -0.436 OA
ATOM     12  C   UNL     1      47.821  14.350  17.020  0.00  0.00    +0.010 C 
ATOM     13  C   UNL     1      48.828  13.288  16.679  0.00  0.00    -0.078 A 
ATOM     14  C   UNL     1      49.892  13.630  15.856  0.00  0.00    +0.005 A 
ATOM     15  C   UNL     1      50.830  12.682  15.492  0.00  0.00    +0.097 A 
ATOM     18  C   UNL     1      50.705  11.377  15.957  0.00  0.00    +0.111 A 
ATOM     21  C   UNL     1      49.646  11.043  16.781  0.00  0.00    -0.043 A 
ATOM     22  C   UNL     1      48.705  11.997  17.148  0.00  0.00    -0.071 A 
ATOM     23  C   UNL     1      47.587  11.558  18.057  0.00  0.00    +0.099 C 
ATOM     24  C   UNL     1      46.459  12.587  18.091  0.00  0.00    +0.066 C 
ATOM     25  C   UNL     1      47.080  13.965  18.307  0.00  0.00    +0.186 C 
ATOM     26  O   UNL     1      46.095  14.955  18.587  0.00  0.00    -0.292 OA
ATOM     27  C   UNL     1      46.512  16.241  18.657  0.00  0.00    +0.232 A 
ATOM     28  O   UNL     1      45.348  19.280  20.132  0.00  0.00    -0.282 OA
ENDROOT
BRANCH   3   2
ATOM      1  C   UNL     1      42.536  19.778  19.882  0.00  0.00    +0.087 C 
ATOM      2  C   UNL     1      43.113  18.979  21.022  0.00  0.00    -0.132 C 
ATOM     29  C   UNL     1      42.403  18.774  22.104  0.00  0.00    +0.050 C 
ENDBRANCH   3   2
BRANCH  15  16
ATOM     16  O   UNL     1      51.870  13.024  14.684  0.00  0.00    -0.305 OA
ATOM     17  C   UNL     1      51.571  13.262  13.307  0.00  0.00    +0.239 C 
ENDBRANCH  15  16
BRANCH  18  19
ATOM     19  O   UNL     1      51.619  10.434  15.603  0.00  0.00    -0.305 OA
ATOM     20  C   UNL     1      52.753  10.277  16.458  0.00  0.00    +0.237 C 
ENDBRANCH  18  19
TORSDOF 3
ENDMDL
MODEL 9
REMARK VINA RESULT:      -5.4      3.999      5.344
REMARK  Name = ZINC95486010
REMARK  6 active torsions:
REMARK  status: ('A' for Active; 'I' for Inactive)
REMARK    1  A    between atoms: C1_1  and  C2_2
REMARK    2  A    between atoms: C2_2  and  C4_4
REMARK    3  A    between atoms: C17_20  and  O4_30
REMARK    4  A    between atoms: C18_21  and  O3_28
REMARK    5  A    between atoms: O3_28  and  C23_29
REMARK    6  A    between atoms: O4_30  and  C24_31
REMARK                            x       y       z     vdW  Elec       q    Type
REMARK                         _______ _______ _______ _____ _____    ______ ____
ROOT
ATOM      3  C   UNL     1      43.006  20.043  19.931  0.00  0.00    +0.214 C 
ATOM      4  C   UNL     1      43.060  18.528  20.254  0.00  0.00    +0.102 C 
ATOM      5  C   UNL     1      44.351  18.117  19.597  0.00  0.00    -0.228 A 
ATOM      6  C   UNL     1      44.724  19.154  18.731  0.00  0.00    +0.185 A 
ATOM      7  C   UNL     1      45.901  19.062  17.978  0.00  0.00    -0.032 A 
ATOM      8  C   UNL     1      46.664  17.932  18.115  0.00  0.00    +0.154 A 
ATOM      9  C   UNL     1      46.293  16.896  18.974  0.00  0.00    -0.283 A 
ATOM     10  C   UNL     1      47.136  15.692  19.097  0.00  0.00    +0.414 C 
ATOM     11  O   UNL     1      48.260  15.640  18.645  0.00  0.00    -0.436 OA
ATOM     12  C   UNL     1      46.504  14.524  19.828  0.00  0.00    +0.010 C 
ATOM     13  C   UNL     1      47.553  13.552  20.290  0.00  0.00    -0.078 A 
ATOM     14  C   UNL     1      48.610  13.269  19.436  0.00  0.00    +0.005 A 
ATOM     15  C   UNL     1      49.586  12.363  19.803  0.00  0.00    +0.097 A 
ATOM     18  C   UNL     1      49.507  11.732  21.042  0.00  0.00    +0.111 A 
ATOM     21  C   UNL     1      48.455  12.021  21.890  0.00  0.00    -0.043 A 
ATOM     22  C   UNL     1      47.476  12.935  21.520  0.00  0.00    -0.071 A 
ATOM     23  C   UNL     1      46.368  13.204  22.505  0.00  0.00    +0.099 C 
ATOM     24  C   UNL     1      45.201  13.937  21.845  0.00  0.00    +0.066 C 
ATOM     25  C   UNL     1      45.768  15.105  21.042  0.00  0.00    +0.186 C 
ATOM     26  O   UNL     1      44.744  15.983  20.585  0.00  0.00    -0.292 OA
ATOM     27  C   UNL     1      45.111  16.977  19.743  0.00  0.00    +0.232 A 
ATOM     28  O   UNL     1      43.820  20.157  18.749  0.00  0.00    -0.282 OA
ENDROOT
BRANCH   3   2
ATOM      1  C   UNL     1      41.331  21.666  18.759  0.00  0.00    +0.087 C 
ATOM      2  C   UNL     1      41.591  20.477  19.647  0.00  0.00    -0.132 C 
ATOM     29  C   UNL     1      40.587  19.820  20.173  0.00  0.00    +0.050 C 
ENDBRANCH   3   2
BRANCH  15  16
ATOM     16  O   UNL     1      50.619  12.090  18.961  0.00  0.00    -0.305 OA
ATOM     17  C   UNL     1      50.379  11.129  17.931  0.00  0.00    +0.239 C 
ENDBRANCH  15  16
BRANCH  18  19
ATOM     19  O   UNL     1      50.459  10.835  21.414  0.00  0.00    -0.305 OA
ATOM     20  C   UNL     1      51.337  11.223  22.473  0.00  0.00    +0.237 C 
ENDBRANCH  18  19
TORSDOF 3
ENDMDL
