MODEL 1
REMARK VINA RESULT:      -4.6      0.000      0.000
REMARK  Name = ZINC95486148
REMARK  12 active torsions:
REMARK  status: ('A' for Active; 'I' for Inactive)
REMARK    1  A    between atoms: C1_1  and  C2_2
REMARK    2  A    between atoms: C2_2  and  C15_16
REMARK    3  A    between atoms: C3_3  and  C4_4
REMARK    4  A    between atoms: C4_4  and  C5_5
REMARK    5  A    between atoms: C5_5  and  C6_6
REMARK    6  A    between atoms: C6_6  and  C14_15
REMARK    7  A    between atoms: C7_7  and  C8_8
REMARK    8  A    between atoms: C8_8  and  C9_9
REMARK    9  A    between atoms: C8_8  and  C10_10
REMARK   10  A    between atoms: C8_8  and  O1_14
REMARK   11  A    between atoms: C10_10  and  C11_11
REMARK   12  A    between atoms: C11_11  and  C12_12
REMARK                            x       y       z     vdW  Elec       q    Type
REMARK                         _______ _______ _______ _____ _____    ______ ____
ROOT
ATOM      7  C   UNL     1      50.068  20.663  19.420  0.00  0.00    -0.101 C 
ATOM      8  C   UNL     1      51.179  20.203  20.328  0.00  0.00    +0.084 C 
ATOM      9  C   UNL     1      50.321  20.947  18.167  0.00  0.00    -0.093 C 
ENDROOT
BRANCH   9  10
ATOM     10  C   UNL     1      51.684  20.661  17.590  0.00  0.00    +0.166 C 
ATOM     17  C   UNL     1      51.749  21.182  16.153  0.00  0.00    +0.058 C 
BRANCH  10  11
ATOM     11  O   UNL     1      52.681  21.312  18.380  0.00  0.00    -0.550 OA
ATOM     12  H   UNL     1      52.459  22.223  18.620  0.00  0.00    +0.373 HD
ENDBRANCH  10  11
BRANCH  10  13
ATOM     13  C   UNL     1      51.933  19.151  17.597  0.00  0.00    +0.003 C 
BRANCH  13  14
ATOM     14  C   UNL     1      51.007  18.477  16.582  0.00  0.00    +0.055 C 
BRANCH  14  15
ATOM     15  C   UNL     1      50.202  17.406  17.271  0.00  0.00    -0.050 C 
ATOM     16  C   UNL     1      48.892  17.456  17.248  0.00  0.00    -0.003 C 
ENDBRANCH  14  15
ENDBRANCH  13  14
ENDBRANCH  10  13
ENDBRANCH   9  10
BRANCH   7   6
ATOM      6  C   UNL     1      48.665  20.797  19.955  0.00  0.00    +0.055 C 
BRANCH   6   5
ATOM      5  C   UNL     1      47.665  20.645  18.806  0.00  0.00    +0.054 C 
BRANCH   5   4
ATOM      1  C   UNL     1      45.441  19.007  18.236  0.00  0.00    +0.072 C 
ATOM      2  C   UNL     1      45.250  20.315  18.959  0.00  0.00    -0.131 C 
ATOM      3  C   UNL     1      43.864  20.786  19.314  0.00  0.00    +0.072 C 
ATOM      4  C   UNL     1      46.291  21.043  19.281  0.00  0.00    -0.062 C 
ENDBRANCH   5   4
ENDBRANCH   6   5
ENDBRANCH   7   6
TORSDOF 8
ENDMDL
MODEL 2
REMARK VINA RESULT:      -4.3      1.782      4.250
REMARK  Name = ZINC95486148
REMARK  12 active torsions:
REMARK  status: ('A' for Active; 'I' for Inactive)
REMARK    1  A    between atoms: C1_1  and  C2_2
REMARK    2  A    between atoms: C2_2  and  C15_16
REMARK    3  A    between atoms: C3_3  and  C4_4
REMARK    4  A    between atoms: C4_4  and  C5_5
REMARK    5  A    between atoms: C5_5  and  C6_6
REMARK    6  A    between atoms: C6_6  and  C14_15
REMARK    7  A    between atoms: C7_7  and  C8_8
REMARK    8  A    between atoms: C8_8  and  C9_9
REMARK    9  A    between atoms: C8_8  and  C10_10
REMARK   10  A    between atoms: C8_8  and  O1_14
REMARK   11  A    between atoms: C10_10  and  C11_11
REMARK   12  A    between atoms: C11_11  and  C12_12
REMARK                            x       y       z     vdW  Elec       q    Type
REMARK                         _______ _______ _______ _____ _____    ______ ____
ROOT
ATOM      7  C   UNL     1      51.900  19.793  17.159  0.00  0.00    -0.101 C 
ATOM      8  C   UNL     1      51.436  21.183  16.804  0.00  0.00    +0.084 C 
ATOM      9  C   UNL     1      52.360  19.543  18.359  0.00  0.00    -0.093 C 
ENDROOT
BRANCH   9  10
ATOM     10  C   UNL     1      52.276  20.597  19.433  0.00  0.00    +0.166 C 
ATOM     17  C   UNL     1      52.539  19.957  20.798  0.00  0.00    +0.058 C 
BRANCH  10  11
ATOM     11  O   UNL     1      53.254  21.609  19.184  0.00  0.00    -0.550 OA
ATOM     12  H   UNL     1      53.546  22.077  19.979  0.00  0.00    +0.373 HD
ENDBRANCH  10  11
BRANCH  10  13
ATOM     13  C   UNL     1      50.880  21.223  19.424  0.00  0.00    +0.003 C 
BRANCH  13  14
ATOM     14  C   UNL     1      50.070  20.682  20.605  0.00  0.00    +0.055 C 
BRANCH  14  15
ATOM     15  C   UNL     1      48.711  20.245  20.124  0.00  0.00    -0.050 C 
ATOM     16  C   UNL     1      48.229  20.725  19.004  0.00  0.00    -0.003 C 
ENDBRANCH  14  15
ENDBRANCH  13  14
ENDBRANCH  10  13
ENDBRANCH   9  10
BRANCH   7   6
ATOM      6  C   UNL     1      51.836  18.692  16.132  0.00  0.00    +0.055 C 
BRANCH   6   5
ATOM      5  C   UNL     1      51.280  17.422  16.780  0.00  0.00    +0.054 C 
BRANCH   5   4
ATOM      1  C   UNL     1      50.009  16.868  19.236  0.00  0.00    +0.072 C 
ATOM      2  C   UNL     1      49.187  17.213  18.020  0.00  0.00    -0.131 C 
ATOM      3  C   UNL     1      47.683  17.190  18.097  0.00  0.00    +0.072 C 
ATOM      4  C   UNL     1      49.781  17.533  16.898  0.00  0.00    -0.062 C 
ENDBRANCH   5   4
ENDBRANCH   6   5
ENDBRANCH   7   6
TORSDOF 8
ENDMDL
MODEL 3
REMARK VINA RESULT:      -4.3      1.338      1.810
REMARK  Name = ZINC95486148
REMARK  12 active torsions:
REMARK  status: ('A' for Active; 'I' for Inactive)
REMARK    1  A    between atoms: C1_1  and  C2_2
REMARK    2  A    between atoms: C2_2  and  C15_16
REMARK    3  A    between atoms: C3_3  and  C4_4
REMARK    4  A    between atoms: C4_4  and  C5_5
REMARK    5  A    between atoms: C5_5  and  C6_6
REMARK    6  A    between atoms: C6_6  and  C14_15
REMARK    7  A    between atoms: C7_7  and  C8_8
REMARK    8  A    between atoms: C8_8  and  C9_9
REMARK    9  A    between atoms: C8_8  and  C10_10
REMARK   10  A    between atoms: C8_8  and  O1_14
REMARK   11  A    between atoms: C10_10  and  C11_11
REMARK   12  A    between atoms: C11_11  and  C12_12
REMARK                            x       y       z     vdW  Elec       q    Type
REMARK                         _______ _______ _______ _____ _____    ______ ____
ROOT
ATOM      7  C   UNL     1      50.017  20.681  19.560  0.00  0.00    -0.101 C 
ATOM      8  C   UNL     1      51.099  20.095  20.431  0.00  0.00    +0.084 C 
ATOM      9  C   UNL     1      50.282  21.011  18.320  0.00  0.00    -0.093 C 
ENDROOT
BRANCH   9  10
ATOM     10  C   UNL     1      51.616  20.658  17.715  0.00  0.00    +0.166 C 
ATOM     17  C   UNL     1      51.667  21.152  16.268  0.00  0.00    +0.058 C 
BRANCH  10  11
ATOM     11  O   UNL     1      52.660  21.280  18.468  0.00  0.00    -0.550 OA
ATOM     12  H   UNL     1      53.244  21.842  17.940  0.00  0.00    +0.373 HD
ENDBRANCH  10  11
BRANCH  10  13
ATOM     13  C   UNL     1      51.802  19.139  17.743  0.00  0.00    +0.003 C 
BRANCH  13  14
ATOM     14  C   UNL     1      50.877  18.493  16.709  0.00  0.00    +0.055 C 
BRANCH  14  15
ATOM     15  C   UNL     1      50.386  17.168  17.234  0.00  0.00    -0.050 C 
ATOM     16  C   UNL     1      50.535  16.871  18.501  0.00  0.00    -0.003 C 
ENDBRANCH  14  15
ENDBRANCH  13  14
ENDBRANCH  10  13
ENDBRANCH   9  10
BRANCH   7   6
ATOM      6  C   UNL     1      48.632  20.888  20.115  0.00  0.00    +0.055 C 
BRANCH   6   5
ATOM      5  C   UNL     1      47.623  20.101  19.276  0.00  0.00    +0.054 C 
BRANCH   5   4
ATOM      1  C   UNL     1      46.542  18.061  17.657  0.00  0.00    +0.072 C 
ATOM      2  C   UNL     1      46.961  17.760  19.073  0.00  0.00    -0.131 C 
ATOM      3  C   UNL     1      46.735  16.387  19.650  0.00  0.00    +0.072 C 
ATOM      4  C   UNL     1      47.523  18.692  19.801  0.00  0.00    -0.062 C 
ENDBRANCH   5   4
ENDBRANCH   6   5
ENDBRANCH   7   6
TORSDOF 8
ENDMDL
MODEL 4
REMARK VINA RESULT:      -4.2      2.564      6.978
REMARK  Name = ZINC95486148
REMARK  12 active torsions:
REMARK  status: ('A' for Active; 'I' for Inactive)
REMARK    1  A    between atoms: C1_1  and  C2_2
REMARK    2  A    between atoms: C2_2  and  C15_16
REMARK    3  A    between atoms: C3_3  and  C4_4
REMARK    4  A    between atoms: C4_4  and  C5_5
REMARK    5  A    between atoms: C5_5  and  C6_6
REMARK    6  A    between atoms: C6_6  and  C14_15
REMARK    7  A    between atoms: C7_7  and  C8_8
REMARK    8  A    between atoms: C8_8  and  C9_9
REMARK    9  A    between atoms: C8_8  and  C10_10
REMARK   10  A    between atoms: C8_8  and  O1_14
REMARK   11  A    between atoms: C10_10  and  C11_11
REMARK   12  A    between atoms: C11_11  and  C12_12
REMARK                            x       y       z     vdW  Elec       q    Type
REMARK                         _______ _______ _______ _____ _____    ______ ____
ROOT
ATOM      7  C   UNL     1      47.007  20.525  19.661  0.00  0.00    -0.101 C 
ATOM      8  C   UNL     1      47.162  21.645  20.656  0.00  0.00    +0.084 C 
ATOM      9  C   UNL     1      45.820  20.219  19.198  0.00  0.00    -0.093 C 
ENDROOT
BRANCH   9  10
ATOM     10  C   UNL     1      44.634  21.087  19.533  0.00  0.00    +0.166 C 
ATOM     17  C   UNL     1      44.536  21.253  21.050  0.00  0.00    +0.058 C 
BRANCH  10  11
ATOM     11  O   UNL     1      44.796  22.369  18.923  0.00  0.00    -0.550 OA
ATOM     12  H   UNL     1      45.591  22.842  19.206  0.00  0.00    +0.373 HD
ENDBRANCH  10  11
BRANCH  10  13
ATOM     13  C   UNL     1      43.357  20.429  19.007  0.00  0.00    +0.003 C 
BRANCH  13  14
ATOM     14  C   UNL     1      42.208  21.440  19.049  0.00  0.00    +0.055 C 
BRANCH  14  15
ATOM     15  C   UNL     1      40.983  20.835  18.413  0.00  0.00    -0.050 C 
ATOM     16  C   UNL     1      39.799  21.331  18.673  0.00  0.00    -0.003 C 
ENDBRANCH  14  15
ENDBRANCH  13  14
ENDBRANCH  10  13
ENDBRANCH   9  10
BRANCH   7   6
ATOM      6  C   UNL     1      48.217  19.755  19.198  0.00  0.00    +0.055 C 
BRANCH   6   5
ATOM      5  C   UNL     1      49.471  20.610  19.391  0.00  0.00    +0.054 C 
BRANCH   5   4
ATOM      1  C   UNL     1      51.861  19.547  18.339  0.00  0.00    +0.072 C 
ATOM      2  C   UNL     1      51.120  20.624  17.591  0.00  0.00    -0.131 C 
ATOM      3  C   UNL     1      51.692  21.187  16.316  0.00  0.00    +0.072 C 
ATOM      4  C   UNL     1      49.976  21.071  18.049  0.00  0.00    -0.062 C 
ENDBRANCH   5   4
ENDBRANCH   6   5
ENDBRANCH   7   6
TORSDOF 8
ENDMDL
MODEL 5
REMARK VINA RESULT:      -4.2      1.303      2.385
REMARK  Name = ZINC95486148
REMARK  12 active torsions:
REMARK  status: ('A' for Active; 'I' for Inactive)
REMARK    1  A    between atoms: C1_1  and  C2_2
REMARK    2  A    between atoms: C2_2  and  C15_16
REMARK    3  A    between atoms: C3_3  and  C4_4
REMARK    4  A    between atoms: C4_4  and  C5_5
REMARK    5  A    between atoms: C5_5  and  C6_6
REMARK    6  A    between atoms: C6_6  and  C14_15
REMARK    7  A    between atoms: C7_7  and  C8_8
REMARK    8  A    between atoms: C8_8  and  C9_9
REMARK    9  A    between atoms: C8_8  and  C10_10
REMARK   10  A    between atoms: C8_8  and  O1_14
REMARK   11  A    between atoms: C10_10  and  C11_11
REMARK   12  A    between atoms: C11_11  and  C12_12
REMARK                            x       y       z     vdW  Elec       q    Type
REMARK                         _______ _______ _______ _____ _____    ______ ____
ROOT
ATOM      7  C   UNL     1      48.857  19.993  19.396  0.00  0.00    -0.101 C 
ATOM      8  C   UNL     1      49.157  18.835  18.480  0.00  0.00    +0.084 C 
ATOM      9  C   UNL     1      49.817  20.810  19.753  0.00  0.00    -0.093 C 
ENDROOT
BRANCH   9  10
ATOM     10  C   UNL     1      51.181  20.692  19.124  0.00  0.00    +0.166 C 
ATOM     17  C   UNL     1      52.164  21.603  19.861  0.00  0.00    +0.058 C 
BRANCH  10  11
ATOM     11  O   UNL     1      51.629  19.337  19.212  0.00  0.00    -0.550 OA
ATOM     12  H   UNL     1      52.587  19.235  19.130  0.00  0.00    +0.373 HD
ENDBRANCH  10  11
BRANCH  10  13
ATOM     13  C   UNL     1      51.102  21.109  17.653  0.00  0.00    +0.003 C 
BRANCH  13  14
ATOM     14  C   UNL     1      52.269  20.487  16.883  0.00  0.00    +0.055 C 
BRANCH  14  15
ATOM     15  C   UNL     1      51.734  19.654  15.747  0.00  0.00    -0.050 C 
ATOM     16  C   UNL     1      51.762  18.346  15.825  0.00  0.00    -0.003 C 
ENDBRANCH  14  15
ENDBRANCH  13  14
ENDBRANCH  10  13
ENDBRANCH   9  10
BRANCH   7   6
ATOM      6  C   UNL     1      47.455  20.211  19.902  0.00  0.00    +0.055 C 
BRANCH   6   5
ATOM      5  C   UNL     1      46.634  20.936  18.834  0.00  0.00    +0.054 C 
BRANCH   5   4
ATOM      1  C   UNL     1      44.534  22.599  19.716  0.00  0.00    +0.072 C 
ATOM      2  C   UNL     1      44.253  21.171  19.324  0.00  0.00    -0.131 C 
ATOM      3  C   UNL     1      42.864  20.608  19.472  0.00  0.00    +0.072 C 
ATOM      4  C   UNL     1      45.218  20.421  18.853  0.00  0.00    -0.062 C 
ENDBRANCH   5   4
ENDBRANCH   6   5
ENDBRANCH   7   6
TORSDOF 8
ENDMDL
MODEL 6
REMARK VINA RESULT:      -4.2      1.672      3.192
REMARK  Name = ZINC95486148
REMARK  12 active torsions:
REMARK  status: ('A' for Active; 'I' for Inactive)
REMARK    1  A    between atoms: C1_1  and  C2_2
REMARK    2  A    between atoms: C2_2  and  C15_16
REMARK    3  A    between atoms: C3_3  and  C4_4
REMARK    4  A    between atoms: C4_4  and  C5_5
REMARK    5  A    between atoms: C5_5  and  C6_6
REMARK    6  A    between atoms: C6_6  and  C14_15
REMARK    7  A    between atoms: C7_7  and  C8_8
REMARK    8  A    between atoms: C8_8  and  C9_9
REMARK    9  A    between atoms: C8_8  and  C10_10
REMARK   10  A    between atoms: C8_8  and  O1_14
REMARK   11  A    between atoms: C10_10  and  C11_11
REMARK   12  A    between atoms: C11_11  and  C12_12
REMARK                            x       y       z     vdW  Elec       q    Type
REMARK                         _______ _______ _______ _____ _____    ______ ____
ROOT
ATOM      7  C   UNL     1      48.084  20.433  19.509  0.00  0.00    -0.101 C 
ATOM      8  C   UNL     1      48.102  19.593  20.760  0.00  0.00    +0.084 C 
ATOM      9  C   UNL     1      49.211  20.817  18.962  0.00  0.00    -0.093 C 
ENDROOT
BRANCH   9  10
ATOM     10  C   UNL     1      50.521  20.287  19.485  0.00  0.00    +0.166 C 
ATOM     17  C   UNL     1      50.741  20.788  20.913  0.00  0.00    +0.058 C 
BRANCH  10  11
ATOM     11  O   UNL     1      50.492  18.858  19.480  0.00  0.00    -0.550 OA
ATOM     12  H   UNL     1      51.129  18.450  20.082  0.00  0.00    +0.373 HD
ENDBRANCH  10  11
BRANCH  10  13
ATOM     13  C   UNL     1      51.662  20.777  18.590  0.00  0.00    +0.003 C 
BRANCH  13  14
ATOM     14  C   UNL     1      51.090  21.267  17.257  0.00  0.00    +0.055 C 
BRANCH  14  15
ATOM     15  C   UNL     1      51.895  20.688  16.123  0.00  0.00    -0.050 C 
ATOM     16  C   UNL     1      51.996  19.388  15.990  0.00  0.00    -0.003 C 
ENDBRANCH  14  15
ENDBRANCH  13  14
ENDBRANCH  10  13
ENDBRANCH   9  10
BRANCH   7   6
ATOM      6  C   UNL     1      46.770  20.834  18.889  0.00  0.00    +0.055 C 
BRANCH   6   5
ATOM      5  C   UNL     1      45.806  19.647  18.925  0.00  0.00    +0.054 C 
BRANCH   5   4
ATOM      1  C   UNL     1      45.481  16.871  19.308  0.00  0.00    +0.072 C 
ATOM      2  C   UNL     1      46.061  17.394  18.019  0.00  0.00    -0.131 C 
ATOM      3  C   UNL     1      46.537  16.431  16.962  0.00  0.00    +0.072 C 
ATOM      4  C   UNL     1      46.151  18.685  17.818  0.00  0.00    -0.062 C 
ENDBRANCH   5   4
ENDBRANCH   6   5
ENDBRANCH   7   6
TORSDOF 8
ENDMDL
MODEL 7
REMARK VINA RESULT:      -4.2     22.351     23.578
REMARK  Name = ZINC95486148
REMARK  12 active torsions:
REMARK  status: ('A' for Active; 'I' for Inactive)
REMARK    1  A    between atoms: C1_1  and  C2_2
REMARK    2  A    between atoms: C2_2  and  C15_16
REMARK    3  A    between atoms: C3_3  and  C4_4
REMARK    4  A    between atoms: C4_4  and  C5_5
REMARK    5  A    between atoms: C5_5  and  C6_6
REMARK    6  A    between atoms: C6_6  and  C14_15
REMARK    7  A    between atoms: C7_7  and  C8_8
REMARK    8  A    between atoms: C8_8  and  C9_9
REMARK    9  A    between atoms: C8_8  and  C10_10
REMARK   10  A    between atoms: C8_8  and  O1_14
REMARK   11  A    between atoms: C10_10  and  C11_11
REMARK   12  A    between atoms: C11_11  and  C12_12
REMARK                            x       y       z     vdW  Elec       q    Type
REMARK                         _______ _______ _______ _____ _____    ______ ____
ROOT
ATOM      7  C   UNL     1      41.649  33.306   2.476  0.00  0.00    -0.101 C 
ATOM      8  C   UNL     1      42.065  31.862   2.586  0.00  0.00    +0.084 C 
ATOM      9  C   UNL     1      42.559  34.249   2.455  0.00  0.00    -0.093 C 
ENDROOT
BRANCH   9  10
ATOM     10  C   UNL     1      44.019  33.886   2.377  0.00  0.00    +0.166 C 
ATOM     17  C   UNL     1      44.869  35.115   2.703  0.00  0.00    +0.058 C 
BRANCH  10  11
ATOM     11  O   UNL     1      44.302  32.848   3.318  0.00  0.00    -0.550 OA
ATOM     12  H   UNL     1      44.532  32.001   2.911  0.00  0.00    +0.373 HD
ENDBRANCH  10  11
BRANCH  10  13
ATOM     13  C   UNL     1      44.348  33.397   0.965  0.00  0.00    +0.003 C 
BRANCH  13  14
ATOM     14  C   UNL     1      43.995  34.490  -0.048  0.00  0.00    +0.055 C 
BRANCH  14  15
ATOM     15  C   UNL     1      43.195  33.891  -1.175  0.00  0.00    -0.050 C 
ATOM     16  C   UNL     1      42.588  32.742  -1.007  0.00  0.00    -0.003 C 
ENDBRANCH  14  15
ENDBRANCH  13  14
ENDBRANCH  10  13
ENDBRANCH   9  10
BRANCH   7   6
ATOM      6  C   UNL     1      40.189  33.666   2.392  0.00  0.00    +0.055 C 
BRANCH   6   5
ATOM      5  C   UNL     1      39.925  34.428   1.091  0.00  0.00    +0.054 C 
BRANCH   5   4
ATOM      1  C   UNL     1      39.256  34.978  -1.593  0.00  0.00    +0.072 C 
ATOM      2  C   UNL     1      38.232  34.374  -0.667  0.00  0.00    -0.131 C 
ATOM      3  C   UNL     1      36.827  34.132  -1.153  0.00  0.00    +0.072 C 
ATOM      4  C   UNL     1      38.564  34.059   0.560  0.00  0.00    -0.062 C 
ENDBRANCH   5   4
ENDBRANCH   6   5
ENDBRANCH   7   6
TORSDOF 8
ENDMDL
MODEL 8
REMARK VINA RESULT:      -4.1     22.409     23.584
REMARK  Name = ZINC95486148
REMARK  12 active torsions:
REMARK  status: ('A' for Active; 'I' for Inactive)
REMARK    1  A    between atoms: C1_1  and  C2_2
REMARK    2  A    between atoms: C2_2  and  C15_16
REMARK    3  A    between atoms: C3_3  and  C4_4
REMARK    4  A    between atoms: C4_4  and  C5_5
REMARK    5  A    between atoms: C5_5  and  C6_6
REMARK    6  A    between atoms: C6_6  and  C14_15
REMARK    7  A    between atoms: C7_7  and  C8_8
REMARK    8  A    between atoms: C8_8  and  C9_9
REMARK    9  A    between atoms: C8_8  and  C10_10
REMARK   10  A    between atoms: C8_8  and  O1_14
REMARK   11  A    between atoms: C10_10  and  C11_11
REMARK   12  A    between atoms: C11_11  and  C12_12
REMARK                            x       y       z     vdW  Elec       q    Type
REMARK                         _______ _______ _______ _____ _____    ______ ____
ROOT
ATOM      7  C   UNL     1      40.905  33.693   1.239  0.00  0.00    -0.101 C 
ATOM      8  C   UNL     1      40.305  33.721   2.621  0.00  0.00    +0.084 C 
ATOM      9  C   UNL     1      42.074  33.136   1.043  0.00  0.00    -0.093 C 
ENDROOT
BRANCH   9  10
ATOM     10  C   UNL     1      42.746  32.382   2.162  0.00  0.00    +0.166 C 
ATOM     17  C   UNL     1      43.849  33.249   2.771  0.00  0.00    +0.058 C 
BRANCH  10  11
ATOM     11  O   UNL     1      41.781  32.062   3.166  0.00  0.00    -0.550 OA
ATOM     12  H   UNL     1      40.865  32.136   2.868  0.00  0.00    +0.373 HD
ENDBRANCH  10  11
BRANCH  10  13
ATOM     13  C   UNL     1      43.357  31.091   1.611  0.00  0.00    +0.003 C 
BRANCH  13  14
ATOM     14  C   UNL     1      42.244  30.197   1.058  0.00  0.00    +0.055 C 
BRANCH  14  15
ATOM     15  C   UNL     1      42.622  29.721  -0.321  0.00  0.00    -0.050 C 
ATOM     16  C   UNL     1      42.871  30.592  -1.268  0.00  0.00    -0.003 C 
ENDBRANCH  14  15
ENDBRANCH  13  14
ENDBRANCH  10  13
ENDBRANCH   9  10
BRANCH   7   6
ATOM      6  C   UNL     1      40.160  34.307   0.081  0.00  0.00    +0.055 C 
BRANCH   6   5
ATOM      5  C   UNL     1      38.662  34.331   0.394  0.00  0.00    +0.054 C 
BRANCH   5   4
ATOM      1  C   UNL     1      36.094  33.185   0.181  0.00  0.00    +0.072 C 
ATOM      2  C   UNL     1      36.718  33.867  -1.009  0.00  0.00    -0.131 C 
ATOM      3  C   UNL     1      36.003  33.873  -2.335  0.00  0.00    +0.072 C 
ATOM      4  C   UNL     1      37.883  34.455  -0.890  0.00  0.00    -0.062 C 
ENDBRANCH   5   4
ENDBRANCH   6   5
ENDBRANCH   7   6
TORSDOF 8
ENDMDL
MODEL 9
REMARK VINA RESULT:      -4.1     18.043     20.324
REMARK  Name = ZINC95486148
REMARK  12 active torsions:
REMARK  status: ('A' for Active; 'I' for Inactive)
REMARK    1  A    between atoms: C1_1  and  C2_2
REMARK    2  A    between atoms: C2_2  and  C15_16
REMARK    3  A    between atoms: C3_3  and  C4_4
REMARK    4  A    between atoms: C4_4  and  C5_5
REMARK    5  A    between atoms: C5_5  and  C6_6
REMARK    6  A    between atoms: C6_6  and  C14_15
REMARK    7  A    between atoms: C7_7  and  C8_8
REMARK    8  A    between atoms: C8_8  and  C9_9
REMARK    9  A    between atoms: C8_8  and  C10_10
REMARK   10  A    between atoms: C8_8  and  O1_14
REMARK   11  A    between atoms: C10_10  and  C11_11
REMARK   12  A    between atoms: C11_11  and  C12_12
REMARK                            x       y       z     vdW  Elec       q    Type
REMARK                         _______ _______ _______ _____ _____    ______ ____
ROOT
ATOM      7  C   UNL     1      54.227  33.900   6.338  0.00  0.00    -0.101 C 
ATOM      8  C   UNL     1      54.074  35.399   6.362  0.00  0.00    +0.084 C 
ATOM      9  C   UNL     1      53.166  33.135   6.260  0.00  0.00    -0.093 C 
ENDROOT
BRANCH   9  10
ATOM     10  C   UNL     1      51.809  33.749   6.031  0.00  0.00    +0.166 C 
ATOM     17  C   UNL     1      50.748  32.647   6.003  0.00  0.00    +0.058 C 
BRANCH  10  11
ATOM     11  O   UNL     1      51.517  34.666   7.088  0.00  0.00    -0.550 OA
ATOM     12  H   UNL     1      52.090  35.444   7.103  0.00  0.00    +0.373 HD
ENDBRANCH  10  11
BRANCH  10  13
ATOM     13  C   UNL     1      51.806  34.495   4.695  0.00  0.00    +0.003 C 
BRANCH  13  14
ATOM     14  C   UNL     1      51.697  33.486   3.549  0.00  0.00    +0.055 C 
BRANCH  14  15
ATOM     15  C   UNL     1      53.017  33.403   2.826  0.00  0.00    -0.050 C 
ATOM     16  C   UNL     1      53.736  34.485   2.651  0.00  0.00    -0.003 C 
ENDBRANCH  14  15
ENDBRANCH  13  14
ENDBRANCH  10  13
ENDBRANCH   9  10
BRANCH   7   6
ATOM      6  C   UNL     1      55.599  33.281   6.405  0.00  0.00    +0.055 C 
BRANCH   6   5
ATOM      5  C   UNL     1      56.464  33.835   5.271  0.00  0.00    +0.054 C 
BRANCH   5   4
ATOM      1  C   UNL     1      56.416  31.838   3.280  0.00  0.00    +0.072 C 
ATOM      2  C   UNL     1      57.611  31.971   4.188  0.00  0.00    -0.131 C 
ATOM      3  C   UNL     1      58.751  30.992   4.082  0.00  0.00    +0.072 C 
ATOM      4  C   UNL     1      57.660  32.940   5.068  0.00  0.00    -0.062 C 
ENDBRANCH   5   4
ENDBRANCH   6   5
ENDBRANCH   7   6
TORSDOF 8
ENDMDL
