MODEL 1
REMARK VINA RESULT:      -5.5      0.000      0.000
REMARK  Name = ZINC02578057
REMARK  7 active torsions:
REMARK  status: ('A' for Active; 'I' for Inactive)
REMARK    1  A    between atoms: C1_1  and  C2_2
REMARK    2  A    between atoms: C2_2  and  C22_27
REMARK    3  A    between atoms: C10_10  and  O1_11
REMARK    4  A    between atoms: O1_11  and  C11_12
REMARK    5  A    between atoms: C13_15  and  C15_18
REMARK    6  A    between atoms: C18_21  and  O4_24
REMARK    7  A    between atoms: O4_24  and  C21_25
REMARK                            x       y       z     vdW  Elec       q    Type
REMARK                         _______ _______ _______ _____ _____    ______ ____
ROOT
ATOM      1  C   UNL     1      53.344  10.444  14.967  0.00  0.00    +0.089 C 
ATOM      2  C   UNL     1      52.057  10.995  15.585  0.00  0.00    +0.146 C 
ATOM      3  C   UNL     1      51.785  10.278  16.909  0.00  0.00    +0.039 C 
ATOM      4  C   UNL     1      50.908  10.748  14.642  0.00  0.00    -0.048 C 
ATOM      5  C   UNL     1      49.858  11.567  14.644  0.00  0.00    +0.056 C 
ATOM      6  C   UNL     1      49.871  12.711  15.579  0.00  0.00    -0.183 A 
ATOM      7  C   UNL     1      51.096  13.093  16.155  0.00  0.00    +0.211 A 
ATOM      8  C   UNL     1      51.153  14.158  17.030  0.00  0.00    -0.023 A 
ATOM      9  C   UNL     1      49.998  14.865  17.353  0.00  0.00    +0.194 A 
ATOM     10  C   UNL     1      48.771  14.483  16.781  0.00  0.00    -0.272 A 
ATOM     11  C   UNL     1      47.562  15.242  17.139  0.00  0.00    +0.430 A 
ATOM     12  C   UNL     1      47.746  16.358  18.085  0.00  0.00    -0.231 A 
ATOM     21  C   UNL     1      48.994  16.607  18.554  0.00  0.00    +0.322 A 
ATOM     22  O   UNL     1      46.468  14.963  16.678  0.00  0.00    -0.438 OA
ATOM     23  O   UNL     1      50.068  15.901  18.210  0.00  0.00    -0.205 OA
ATOM     24  C   UNL     1      48.705  13.403  15.890  0.00  0.00    +0.233 A 
ATOM     27  O   UNL     1      52.213  12.393  15.830  0.00  0.00    -0.294 OA
ENDROOT
BRANCH  12  13
ATOM     13  C   UNL     1      46.594  17.187  18.514  0.00  0.00    -0.066 A 
ATOM     14  C   UNL     1      46.394  18.448  17.953  0.00  0.00    +0.081 A 
ATOM     15  C   UNL     1      45.318  19.214  18.349  0.00  0.00    -0.075 A 
ATOM     16  C   UNL     1      44.442  18.737  19.316  0.00  0.00    +0.133 A 
ATOM     19  C   UNL     1      44.643  17.485  19.880  0.00  0.00    -0.016 A 
ATOM     20  C   UNL     1      45.713  16.711  19.483  0.00  0.00    +0.061 A 
BRANCH  16  17
ATOM     17  O   UNL     1      43.387  19.498  19.709  0.00  0.00    -0.317 OA
ATOM     18  C   UNL     1      42.703  20.234  18.693  0.00  0.00    +0.241 C 
ENDBRANCH  16  17
ENDBRANCH  12  13
BRANCH  24  25
ATOM     25  O   UNL     1      47.521  13.040  15.338  0.00  0.00    -0.316 OA
ATOM     26  C   UNL     1      46.882  11.880  15.877  0.00  0.00    +0.247 C 
ENDBRANCH  24  25
TORSDOF 3
ENDMDL
MODEL 2
REMARK VINA RESULT:      -5.5      3.557      4.932
REMARK  Name = ZINC02578057
REMARK  7 active torsions:
REMARK  status: ('A' for Active; 'I' for Inactive)
REMARK    1  A    between atoms: C1_1  and  C2_2
REMARK    2  A    between atoms: C2_2  and  C22_27
REMARK    3  A    between atoms: C10_10  and  O1_11
REMARK    4  A    between atoms: O1_11  and  C11_12
REMARK    5  A    between atoms: C13_15  and  C15_18
REMARK    6  A    between atoms: C18_21  and  O4_24
REMARK    7  A    between atoms: O4_24  and  C21_25
REMARK                            x       y       z     vdW  Elec       q    Type
REMARK                         _______ _______ _______ _____ _____    ______ ____
ROOT
ATOM      1  C   UNL     1      53.731  16.337  19.167  0.00  0.00    +0.089 C 
ATOM      2  C   UNL     1      52.201  16.323  19.138  0.00  0.00    +0.146 C 
ATOM      3  C   UNL     1      51.690  15.196  20.037  0.00  0.00    +0.039 C 
ATOM      4  C   UNL     1      51.734  16.082  17.727  0.00  0.00    -0.048 C 
ATOM      5  C   UNL     1      50.557  16.561  17.325  0.00  0.00    +0.056 C 
ATOM      6  C   UNL     1      49.754  17.333  18.295  0.00  0.00    -0.183 A 
ATOM      7  C   UNL     1      50.388  17.827  19.450  0.00  0.00    +0.211 A 
ATOM      8  C   UNL     1      49.675  18.556  20.379  0.00  0.00    -0.023 A 
ATOM      9  C   UNL     1      48.320  18.808  20.185  0.00  0.00    +0.194 A 
ATOM     10  C   UNL     1      47.683  18.312  19.033  0.00  0.00    -0.272 A 
ATOM     11  C   UNL     1      46.248  18.588  18.850  0.00  0.00    +0.430 A 
ATOM     12  C   UNL     1      45.592  19.375  19.910  0.00  0.00    -0.231 A 
ATOM     21  C   UNL     1      46.339  19.785  20.965  0.00  0.00    +0.322 A 
ATOM     22  O   UNL     1      45.636  18.188  17.874  0.00  0.00    -0.438 OA
ATOM     23  O   UNL     1      47.636  19.519  21.101  0.00  0.00    -0.205 OA
ATOM     24  C   UNL     1      48.400  17.573  18.084  0.00  0.00    +0.233 A 
ATOM     27  O   UNL     1      51.710  17.572  19.624  0.00  0.00    -0.294 OA
ENDROOT
BRANCH  12  13
ATOM     13  C   UNL     1      44.150  19.708  19.826  0.00  0.00    -0.066 A 
ATOM     14  C   UNL     1      43.200  18.844  20.370  0.00  0.00    +0.081 A 
ATOM     15  C   UNL     1      41.860  19.160  20.295  0.00  0.00    -0.075 A 
ATOM     16  C   UNL     1      41.455  20.330  19.668  0.00  0.00    +0.133 A 
ATOM     19  C   UNL     1      42.397  21.189  19.121  0.00  0.00    -0.016 A 
ATOM     20  C   UNL     1      43.739  20.882  19.197  0.00  0.00    +0.061 A 
BRANCH  16  17
ATOM     17  O   UNL     1      40.133  20.634  19.590  0.00  0.00    -0.317 OA
ATOM     18  C   UNL     1      39.701  21.371  18.445  0.00  0.00    +0.241 C 
ENDBRANCH  16  17
ENDBRANCH  12  13
BRANCH  24  25
ATOM     25  O   UNL     1      47.783  17.099  16.973  0.00  0.00    -0.316 OA
ATOM     26  C   UNL     1      47.412  15.719  16.976  0.00  0.00    +0.247 C 
ENDBRANCH  24  25
TORSDOF 3
ENDMDL
MODEL 3
REMARK VINA RESULT:      -5.5      4.825      9.682
REMARK  Name = ZINC02578057
REMARK  7 active torsions:
REMARK  status: ('A' for Active; 'I' for Inactive)
REMARK    1  A    between atoms: C1_1  and  C2_2
REMARK    2  A    between atoms: C2_2  and  C22_27
REMARK    3  A    between atoms: C10_10  and  O1_11
REMARK    4  A    between atoms: O1_11  and  C11_12
REMARK    5  A    between atoms: C13_15  and  C15_18
REMARK    6  A    between atoms: C18_21  and  O4_24
REMARK    7  A    between atoms: O4_24  and  C21_25
REMARK                            x       y       z     vdW  Elec       q    Type
REMARK                         _______ _______ _______ _____ _____    ______ ____
ROOT
ATOM      1  C   UNL     1      39.697  21.523  19.068  0.00  0.00    +0.089 C 
ATOM      2  C   UNL     1      40.932  20.621  19.027  0.00  0.00    +0.146 C 
ATOM      3  C   UNL     1      41.037  19.972  17.646  0.00  0.00    +0.039 C 
ATOM      4  C   UNL     1      40.795  19.544  20.072  0.00  0.00    -0.048 C 
ATOM      5  C   UNL     1      41.884  19.010  20.623  0.00  0.00    +0.056 C 
ATOM      6  C   UNL     1      43.202  19.514  20.186  0.00  0.00    -0.183 A 
ATOM      7  C   UNL     1      43.258  20.741  19.501  0.00  0.00    +0.211 A 
ATOM      8  C   UNL     1      44.469  21.250  19.079  0.00  0.00    -0.023 A 
ATOM      9  C   UNL     1      45.648  20.554  19.326  0.00  0.00    +0.194 A 
ATOM     10  C   UNL     1      45.595  19.325  20.009  0.00  0.00    -0.272 A 
ATOM     11  C   UNL     1      46.854  18.603  20.257  0.00  0.00    +0.430 A 
ATOM     12  C   UNL     1      48.084  19.244  19.758  0.00  0.00    -0.231 A 
ATOM     21  C   UNL     1      47.978  20.434  19.115  0.00  0.00    +0.322 A 
ATOM     22  O   UNL     1      46.878  17.534  20.842  0.00  0.00    -0.438 OA
ATOM     23  O   UNL     1      46.823  21.061  18.908  0.00  0.00    -0.205 OA
ATOM     24  C   UNL     1      44.369  18.802  20.442  0.00  0.00    +0.233 A 
ATOM     27  O   UNL     1      42.098  21.408  19.267  0.00  0.00    -0.294 OA
ENDROOT
BRANCH  12  13
ATOM     13  C   UNL     1      49.407  18.603  19.953  0.00  0.00    -0.066 A 
ATOM     14  C   UNL     1      49.923  17.755  18.973  0.00  0.00    +0.081 A 
ATOM     15  C   UNL     1      51.156  17.165  19.155  0.00  0.00    -0.075 A 
ATOM     16  C   UNL     1      51.877  17.403  20.317  0.00  0.00    +0.133 A 
ATOM     19  C   UNL     1      51.363  18.241  21.296  0.00  0.00    -0.016 A 
ATOM     20  C   UNL     1      50.134  18.840  21.118  0.00  0.00    +0.061 A 
BRANCH  16  17
ATOM     17  O   UNL     1      53.089  16.814  20.495  0.00  0.00    -0.317 OA
ATOM     18  C   UNL     1      53.740  16.301  19.331  0.00  0.00    +0.241 C 
ENDBRANCH  16  17
ENDBRANCH  12  13
BRANCH  24  25
ATOM     25  O   UNL     1      44.322  17.618  21.102  0.00  0.00    -0.316 OA
ATOM     26  C   UNL     1      44.058  17.668  22.505  0.00  0.00    +0.247 C 
ENDBRANCH  24  25
TORSDOF 3
ENDMDL
MODEL 4
REMARK VINA RESULT:      -5.4      2.000      3.308
REMARK  Name = ZINC02578057
REMARK  7 active torsions:
REMARK  status: ('A' for Active; 'I' for Inactive)
REMARK    1  A    between atoms: C1_1  and  C2_2
REMARK    2  A    between atoms: C2_2  and  C22_27
REMARK    3  A    between atoms: C10_10  and  O1_11
REMARK    4  A    between atoms: O1_11  and  C11_12
REMARK    5  A    between atoms: C13_15  and  C15_18
REMARK    6  A    between atoms: C18_21  and  O4_24
REMARK    7  A    between atoms: O4_24  and  C21_25
REMARK                            x       y       z     vdW  Elec       q    Type
REMARK                         _______ _______ _______ _____ _____    ______ ____
ROOT
ATOM      1  C   UNL     1      51.411  10.926  12.865  0.00  0.00    +0.089 C 
ATOM      2  C   UNL     1      50.694  12.053  13.610  0.00  0.00    +0.146 C 
ATOM      3  C   UNL     1      49.909  12.901  12.608  0.00  0.00    +0.039 C 
ATOM      4  C   UNL     1      51.714  12.919  14.300  0.00  0.00    -0.048 C 
ATOM      5  C   UNL     1      51.387  13.577  15.412  0.00  0.00    +0.056 C 
ATOM      6  C   UNL     1      50.015  13.414  15.936  0.00  0.00    -0.183 A 
ATOM      7  C   UNL     1      49.242  12.334  15.471  0.00  0.00    +0.211 A 
ATOM      8  C   UNL     1      47.958  12.143  15.937  0.00  0.00    -0.023 A 
ATOM      9  C   UNL     1      47.412  13.019  16.871  0.00  0.00    +0.194 A 
ATOM     10  C   UNL     1      48.181  14.101  17.335  0.00  0.00    -0.272 A 
ATOM     11  C   UNL     1      47.583  15.017  18.321  0.00  0.00    +0.430 A 
ATOM     12  C   UNL     1      46.204  14.713  18.743  0.00  0.00    -0.231 A 
ATOM     21  C   UNL     1      45.588  13.631  18.206  0.00  0.00    +0.322 A 
ATOM     22  O   UNL     1      48.195  15.974  18.764  0.00  0.00    -0.438 OA
ATOM     23  O   UNL     1      46.157  12.822  17.317  0.00  0.00    -0.205 OA
ATOM     24  C   UNL     1      49.487  14.301  16.868  0.00  0.00    +0.233 A 
ATOM     27  O   UNL     1      49.789  11.489  14.559  0.00  0.00    -0.294 OA
ENDROOT
BRANCH  12  13
ATOM     13  C   UNL     1      45.506  15.572  19.731  0.00  0.00    -0.066 A 
ATOM     14  C   UNL     1      45.207  15.077  20.999  0.00  0.00    +0.081 A 
ATOM     15  C   UNL     1      44.564  15.879  21.917  0.00  0.00    -0.075 A 
ATOM     16  C   UNL     1      44.202  17.176  21.575  0.00  0.00    +0.133 A 
ATOM     19  C   UNL     1      44.493  17.669  20.311  0.00  0.00    -0.016 A 
ATOM     20  C   UNL     1      45.141  16.873  19.391  0.00  0.00    +0.061 A 
BRANCH  16  17
ATOM     17  O   UNL     1      43.562  17.961  22.480  0.00  0.00    -0.317 OA
ATOM     18  C   UNL     1      42.445  18.718  22.010  0.00  0.00    +0.241 C 
ENDBRANCH  16  17
ENDBRANCH  12  13
BRANCH  24  25
ATOM     25  O   UNL     1      50.226  15.344  17.320  0.00  0.00    -0.316 OA
ATOM     26  C   UNL     1      51.323  15.037  18.183  0.00  0.00    +0.247 C 
ENDBRANCH  24  25
TORSDOF 3
ENDMDL
MODEL 5
REMARK VINA RESULT:      -5.4      2.861      9.334
REMARK  Name = ZINC02578057
REMARK  7 active torsions:
REMARK  status: ('A' for Active; 'I' for Inactive)
REMARK    1  A    between atoms: C1_1  and  C2_2
REMARK    2  A    between atoms: C2_2  and  C22_27
REMARK    3  A    between atoms: C10_10  and  O1_11
REMARK    4  A    between atoms: O1_11  and  C11_12
REMARK    5  A    between atoms: C13_15  and  C15_18
REMARK    6  A    between atoms: C18_21  and  O4_24
REMARK    7  A    between atoms: O4_24  and  C21_25
REMARK                            x       y       z     vdW  Elec       q    Type
REMARK                         _______ _______ _______ _____ _____    ______ ____
ROOT
ATOM      1  C   UNL     1      40.157  21.679  18.819  0.00  0.00    +0.089 C 
ATOM      2  C   UNL     1      41.035  20.426  18.849  0.00  0.00    +0.146 C 
ATOM      3  C   UNL     1      40.648  19.512  17.685  0.00  0.00    +0.039 C 
ATOM      4  C   UNL     1      40.814  19.696  20.148  0.00  0.00    -0.048 C 
ATOM      5  C   UNL     1      41.789  18.952  20.667  0.00  0.00    +0.056 C 
ATOM      6  C   UNL     1      43.072  18.884  19.939  0.00  0.00    -0.183 A 
ATOM      7  C   UNL     1      43.338  19.853  18.954  0.00  0.00    +0.211 A 
ATOM      8  C   UNL     1      44.527  19.828  18.254  0.00  0.00    -0.023 A 
ATOM      9  C   UNL     1      45.474  18.842  18.512  0.00  0.00    +0.194 A 
ATOM     10  C   UNL     1      45.210  17.870  19.494  0.00  0.00    -0.272 A 
ATOM     11  C   UNL     1      46.225  16.834  19.749  0.00  0.00    +0.430 A 
ATOM     12  C   UNL     1      47.453  16.908  18.937  0.00  0.00    -0.231 A 
ATOM     21  C   UNL     1      47.566  17.907  18.026  0.00  0.00    +0.322 A 
ATOM     22  O   UNL     1      46.058  15.963  20.585  0.00  0.00    -0.438 OA
ATOM     23  O   UNL     1      46.629  18.828  17.820  0.00  0.00    -0.205 OA
ATOM     24  C   UNL     1      44.006  17.889  20.211  0.00  0.00    +0.233 A 
ATOM     27  O   UNL     1      42.404  20.808  18.714  0.00  0.00    -0.294 OA
ENDROOT
BRANCH  12  13
ATOM     13  C   UNL     1      48.540  15.914  19.112  0.00  0.00    -0.066 A 
ATOM     14  C   UNL     1      49.465  16.065  20.144  0.00  0.00    +0.081 A 
ATOM     15  C   UNL     1      50.470  15.135  20.308  0.00  0.00    -0.075 A 
ATOM     16  C   UNL     1      50.569  14.057  19.438  0.00  0.00    +0.133 A 
ATOM     19  C   UNL     1      49.653  13.908  18.407  0.00  0.00    -0.016 A 
ATOM     20  C   UNL     1      48.642  14.830  18.241  0.00  0.00    +0.061 A 
BRANCH  16  17
ATOM     17  O   UNL     1      51.565  13.147  19.599  0.00  0.00    -0.317 OA
ATOM     18  C   UNL     1      52.330  12.808  18.440  0.00  0.00    +0.241 C 
ENDBRANCH  16  17
ENDBRANCH  12  13
BRANCH  24  25
ATOM     25  O   UNL     1      43.756  16.951  21.158  0.00  0.00    -0.316 OA
ATOM     26  C   UNL     1      44.098  17.283  22.505  0.00  0.00    +0.247 C 
ENDBRANCH  24  25
TORSDOF 3
ENDMDL
MODEL 6
REMARK VINA RESULT:      -5.2      1.687      8.846
REMARK  Name = ZINC02578057
REMARK  7 active torsions:
REMARK  status: ('A' for Active; 'I' for Inactive)
REMARK    1  A    between atoms: C1_1  and  C2_2
REMARK    2  A    between atoms: C2_2  and  C22_27
REMARK    3  A    between atoms: C10_10  and  O1_11
REMARK    4  A    between atoms: O1_11  and  C11_12
REMARK    5  A    between atoms: C13_15  and  C15_18
REMARK    6  A    between atoms: C18_21  and  O4_24
REMARK    7  A    between atoms: O4_24  and  C21_25
REMARK                            x       y       z     vdW  Elec       q    Type
REMARK                         _______ _______ _______ _____ _____    ______ ____
ROOT
ATOM      1  C   UNL     1      44.091  21.639  19.504  0.00  0.00    +0.089 C 
ATOM      2  C   UNL     1      45.153  20.546  19.639  0.00  0.00    +0.146 C 
ATOM      3  C   UNL     1      44.859  19.708  20.885  0.00  0.00    +0.039 C 
ATOM      4  C   UNL     1      46.509  21.186  19.781  0.00  0.00    -0.048 C 
ATOM      5  C   UNL     1      47.597  20.540  19.363  0.00  0.00    +0.056 C 
ATOM      6  C   UNL     1      47.421  19.205  18.756  0.00  0.00    -0.183 A 
ATOM      7  C   UNL     1      46.136  18.827  18.324  0.00  0.00    +0.211 A 
ATOM      8  C   UNL     1      45.928  17.591  17.748  0.00  0.00    -0.023 A 
ATOM      9  C   UNL     1      46.988  16.703  17.590  0.00  0.00    +0.194 A 
ATOM     10  C   UNL     1      48.273  17.076  18.023  0.00  0.00    -0.272 A 
ATOM     11  C   UNL     1      49.379  16.120  17.849  0.00  0.00    +0.430 A 
ATOM     12  C   UNL     1      49.036  14.830  17.223  0.00  0.00    -0.231 A 
ATOM     21  C   UNL     1      47.748  14.612  16.857  0.00  0.00    +0.322 A 
ATOM     22  O   UNL     1      50.516  16.381  18.203  0.00  0.00    -0.438 OA
ATOM     23  O   UNL     1      46.771  15.499  17.028  0.00  0.00    -0.205 OA
ATOM     24  C   UNL     1      48.492  18.331  18.608  0.00  0.00    +0.233 A 
ATOM     27  O   UNL     1      45.113  19.705  18.486  0.00  0.00    -0.294 OA
ENDROOT
BRANCH  12  13
ATOM     13  C   UNL     1      50.074  13.794  17.002  0.00  0.00    -0.066 A 
ATOM     14  C   UNL     1      50.374  12.880  18.011  0.00  0.00    +0.081 A 
ATOM     15  C   UNL     1      51.335  11.914  17.800  0.00  0.00    -0.075 A 
ATOM     16  C   UNL     1      52.013  11.859  16.589  0.00  0.00    +0.133 A 
ATOM     19  C   UNL     1      51.720  12.772  15.585  0.00  0.00    -0.016 A 
ATOM     20  C   UNL     1      50.756  13.736  15.788  0.00  0.00    +0.061 A 
BRANCH  16  17
ATOM     17  O   UNL     1      52.964  10.910  16.387  0.00  0.00    -0.317 OA
ATOM     18  C   UNL     1      53.127  10.425  15.053  0.00  0.00    +0.241 C 
ENDBRANCH  16  17
ENDBRANCH  12  13
BRANCH  24  25
ATOM     25  O   UNL     1      49.733  18.688  19.021  0.00  0.00    -0.316 OA
ATOM     26  C   UNL     1      50.456  19.601  18.193  0.00  0.00    +0.247 C 
ENDBRANCH  24  25
TORSDOF 3
ENDMDL
MODEL 7
REMARK VINA RESULT:      -5.2      1.722      2.347
REMARK  Name = ZINC02578057
REMARK  7 active torsions:
REMARK  status: ('A' for Active; 'I' for Inactive)
REMARK    1  A    between atoms: C1_1  and  C2_2
REMARK    2  A    between atoms: C2_2  and  C22_27
REMARK    3  A    between atoms: C10_10  and  O1_11
REMARK    4  A    between atoms: O1_11  and  C11_12
REMARK    5  A    between atoms: C13_15  and  C15_18
REMARK    6  A    between atoms: C18_21  and  O4_24
REMARK    7  A    between atoms: O4_24  and  C21_25
REMARK                            x       y       z     vdW  Elec       q    Type
REMARK                         _______ _______ _______ _____ _____    ______ ____
ROOT
ATOM      1  C   UNL     1      52.211  11.502  15.459  0.00  0.00    +0.089 C 
ATOM      2  C   UNL     1      51.148  12.266  16.252  0.00  0.00    +0.146 C 
ATOM      3  C   UNL     1      51.170  11.797  17.708  0.00  0.00    +0.039 C 
ATOM      4  C   UNL     1      49.791  11.984  15.661  0.00  0.00    -0.048 C 
ATOM      5  C   UNL     1      48.820  12.891  15.762  0.00  0.00    +0.056 C 
ATOM      6  C   UNL     1      49.126  14.162  16.451  0.00  0.00    -0.183 A 
ATOM      7  C   UNL     1      50.475  14.510  16.650  0.00  0.00    +0.211 A 
ATOM      8  C   UNL     1      50.805  15.690  17.285  0.00  0.00    -0.023 A 
ATOM      9  C   UNL     1      49.806  16.546  17.738  0.00  0.00    +0.194 A 
ATOM     10  C   UNL     1      48.457  16.199  17.544  0.00  0.00    -0.272 A 
ATOM     11  C   UNL     1      47.417  17.119  18.033  0.00  0.00    +0.430 A 
ATOM     12  C   UNL     1      47.890  18.347  18.698  0.00  0.00    -0.231 A 
ATOM     21  C   UNL     1      49.227  18.545  18.812  0.00  0.00    +0.322 A 
ATOM     22  O   UNL     1      46.230  16.878  17.897  0.00  0.00    -0.438 OA
ATOM     23  O   UNL     1      50.142  17.693  18.358  0.00  0.00    -0.205 OA
ATOM     24  C   UNL     1      48.114  15.004  16.898  0.00  0.00    +0.233 A 
ATOM     27  O   UNL     1      51.437  13.663  16.202  0.00  0.00    -0.294 OA
ENDROOT
BRANCH  12  13
ATOM     13  C   UNL     1      46.927  19.342  19.230  0.00  0.00    -0.066 A 
ATOM     14  C   UNL     1      46.382  19.175  20.502  0.00  0.00    +0.081 A 
ATOM     15  C   UNL     1      45.491  20.104  20.996  0.00  0.00    -0.075 A 
ATOM     16  C   UNL     1      45.127  21.198  20.223  0.00  0.00    +0.133 A 
ATOM     19  C   UNL     1      45.663  21.364  18.954  0.00  0.00    -0.016 A 
ATOM     20  C   UNL     1      46.559  20.441  18.457  0.00  0.00    +0.061 A 
BRANCH  16  17
ATOM     17  O   UNL     1      44.244  22.108  20.712  0.00  0.00    -0.317 OA
ATOM     18  C   UNL     1      43.588  22.952  19.763  0.00  0.00    +0.241 C 
ENDBRANCH  16  17
ENDBRANCH  12  13
BRANCH  24  25
ATOM     25  O   UNL     1      46.812  14.675  16.710  0.00  0.00    -0.316 OA
ATOM     26  C   UNL     1      46.266  13.672  17.569  0.00  0.00    +0.247 C 
ENDBRANCH  24  25
TORSDOF 3
ENDMDL
MODEL 8
REMARK VINA RESULT:      -5.2      1.906      3.462
REMARK  Name = ZINC02578057
REMARK  7 active torsions:
REMARK  status: ('A' for Active; 'I' for Inactive)
REMARK    1  A    between atoms: C1_1  and  C2_2
REMARK    2  A    between atoms: C2_2  and  C22_27
REMARK    3  A    between atoms: C10_10  and  O1_11
REMARK    4  A    between atoms: O1_11  and  C11_12
REMARK    5  A    between atoms: C13_15  and  C15_18
REMARK    6  A    between atoms: C18_21  and  O4_24
REMARK    7  A    between atoms: O4_24  and  C21_25
REMARK                            x       y       z     vdW  Elec       q    Type
REMARK                         _______ _______ _______ _____ _____    ______ ____
ROOT
ATOM      1  C   UNL     1      50.312  10.728  14.455  0.00  0.00    +0.089 C 
ATOM      2  C   UNL     1      50.048  12.203  14.765  0.00  0.00    +0.146 C 
ATOM      3  C   UNL     1      49.541  12.902  13.502  0.00  0.00    +0.039 C 
ATOM      4  C   UNL     1      51.332  12.854  15.210  0.00  0.00    -0.048 C 
ATOM      5  C   UNL     1      51.296  13.897  16.039  0.00  0.00    +0.056 C 
ATOM      6  C   UNL     1      49.976  14.370  16.503  0.00  0.00    -0.183 A 
ATOM      7  C   UNL     1      48.866  13.517  16.353  0.00  0.00    +0.211 A 
ATOM      8  C   UNL     1      47.616  13.919  16.777  0.00  0.00    -0.023 A 
ATOM      9  C   UNL     1      47.439  15.172  17.355  0.00  0.00    +0.194 A 
ATOM     10  C   UNL     1      48.546  16.028  17.504  0.00  0.00    -0.272 A 
ATOM     11  C   UNL     1      48.336  17.351  18.115  0.00  0.00    +0.430 A 
ATOM     12  C   UNL     1      46.956  17.669  18.527  0.00  0.00    -0.231 A 
ATOM     21  C   UNL     1      45.990  16.740  18.319  0.00  0.00    +0.322 A 
ATOM     22  O   UNL     1      49.252  18.139  18.272  0.00  0.00    -0.438 OA
ATOM     23  O   UNL     1      46.214  15.552  17.763  0.00  0.00    -0.205 OA
ATOM     24  C   UNL     1      49.819  15.627  17.077  0.00  0.00    +0.233 A 
ATOM     27  O   UNL     1      49.056  12.298  15.787  0.00  0.00    -0.294 OA
ENDROOT
BRANCH  12  13
ATOM     13  C   UNL     1      46.633  18.974  19.152  0.00  0.00    -0.066 A 
ATOM     14  C   UNL     1      46.855  19.170  20.514  0.00  0.00    +0.081 A 
ATOM     15  C   UNL     1      46.559  20.387  21.091  0.00  0.00    -0.075 A 
ATOM     16  C   UNL     1      46.029  21.412  20.320  0.00  0.00    +0.133 A 
ATOM     19  C   UNL     1      45.801  21.218  18.965  0.00  0.00    -0.016 A 
ATOM     20  C   UNL     1      46.101  20.006  18.380  0.00  0.00    +0.061 A 
BRANCH  16  17
ATOM     17  O   UNL     1      45.732  22.608  20.894  0.00  0.00    -0.317 OA
ATOM     18  C   UNL     1      44.729  23.403  20.259  0.00  0.00    +0.241 C 
ENDBRANCH  16  17
ENDBRANCH  12  13
BRANCH  24  25
ATOM     25  O   UNL     1      50.884  16.454  17.224  0.00  0.00    -0.316 OA
ATOM     26  C   UNL     1      51.809  16.141  18.268  0.00  0.00    +0.247 C 
ENDBRANCH  24  25
TORSDOF 3
ENDMDL
MODEL 9
REMARK VINA RESULT:      -5.0      3.105      5.263
REMARK  Name = ZINC02578057
REMARK  7 active torsions:
REMARK  status: ('A' for Active; 'I' for Inactive)
REMARK    1  A    between atoms: C1_1  and  C2_2
REMARK    2  A    between atoms: C2_2  and  C22_27
REMARK    3  A    between atoms: C10_10  and  O1_11
REMARK    4  A    between atoms: O1_11  and  C11_12
REMARK    5  A    between atoms: C13_15  and  C15_18
REMARK    6  A    between atoms: C18_21  and  O4_24
REMARK    7  A    between atoms: O4_24  and  C21_25
REMARK                            x       y       z     vdW  Elec       q    Type
REMARK                         _______ _______ _______ _____ _____    ______ ____
ROOT
ATOM      1  C   UNL     1      46.020  10.278  15.374  0.00  0.00    +0.089 C 
ATOM      2  C   UNL     1      46.545  11.305  16.380  0.00  0.00    +0.146 C 
ATOM      3  C   UNL     1      47.314  10.580  17.486  0.00  0.00    +0.039 C 
ATOM      4  C   UNL     1      45.382  12.045  16.987  0.00  0.00    -0.048 C 
ATOM      5  C   UNL     1      45.543  13.294  17.422  0.00  0.00    +0.056 C 
ATOM      6  C   UNL     1      46.876  13.914  17.277  0.00  0.00    -0.183 A 
ATOM      7  C   UNL     1      47.798  13.325  16.392  0.00  0.00    +0.211 A 
ATOM      8  C   UNL     1      49.052  13.875  16.223  0.00  0.00    -0.023 A 
ATOM      9  C   UNL     1      49.419  15.017  16.928  0.00  0.00    +0.194 A 
ATOM     10  C   UNL     1      48.501  15.606  17.816  0.00  0.00    -0.272 A 
ATOM     11  C   UNL     1      48.911  16.812  18.554  0.00  0.00    +0.430 A 
ATOM     12  C   UNL     1      50.276  17.306  18.293  0.00  0.00    -0.231 A 
ATOM     21  C   UNL     1      51.049  16.629  17.407  0.00  0.00    +0.322 A 
ATOM     22  O   UNL     1      48.164  17.372  19.338  0.00  0.00    -0.438 OA
ATOM     23  O   UNL     1      50.647  15.541  16.756  0.00  0.00    -0.205 OA
ATOM     24  C   UNL     1      47.224  15.055  17.992  0.00  0.00    +0.233 A 
ATOM     27  O   UNL     1      47.424  12.211  15.712  0.00  0.00    -0.294 OA
ENDROOT
BRANCH  12  13
ATOM     13  C   UNL     1      50.791  18.512  18.984  0.00  0.00    -0.066 A 
ATOM     14  C   UNL     1      50.791  19.744  18.331  0.00  0.00    +0.081 A 
ATOM     15  C   UNL     1      51.266  20.866  18.979  0.00  0.00    -0.075 A 
ATOM     16  C   UNL     1      51.755  20.766  20.274  0.00  0.00    +0.133 A 
ATOM     19  C   UNL     1      51.762  19.540  20.924  0.00  0.00    -0.016 A 
ATOM     20  C   UNL     1      51.283  18.416  20.285  0.00  0.00    +0.061 A 
BRANCH  16  17
ATOM     17  O   UNL     1      52.228  21.873  20.906  0.00  0.00    -0.317 OA
ATOM     18  C   UNL     1      52.498  21.757  22.305  0.00  0.00    +0.241 C 
ENDBRANCH  16  17
ENDBRANCH  12  13
BRANCH  24  25
ATOM     25  O   UNL     1      46.341  15.628  18.846  0.00  0.00    -0.316 OA
ATOM     26  C   UNL     1      46.133  14.974  20.100  0.00  0.00    +0.247 C 
ENDBRANCH  24  25
TORSDOF 3
ENDMDL
