MODEL 1
REMARK VINA RESULT:      -6.5      0.000      0.000
REMARK  Name = ZINC13382721
REMARK  9 active torsions:
REMARK  status: ('A' for Active; 'I' for Inactive)
REMARK    1  A    between atoms: C1_1  and  C2_2
REMARK    2  A    between atoms: C2_2  and  C23_29
REMARK    3  A    between atoms: C3_3  and  C4_4
REMARK    4  A    between atoms: C4_4  and  C5_5
REMARK    5  A    between atoms: C6_6  and  O6_28
REMARK    6  A    between atoms: C7_7  and  O5_27
REMARK    7  A    between atoms: C15_16  and  O3_20
REMARK    8  A    between atoms: C20_23  and  C21_25
REMARK    9  A    between atoms: C20_23  and  C22_26
REMARK                            x       y       z     vdW  Elec       q    Type
REMARK                         _______ _______ _______ _____ _____    ______ ____
ROOT
ATOM      6  C   UNL     1      48.659  16.855  18.536  0.00  0.00    -0.111 A 
ATOM      7  C   UNL     1      49.488  15.832  18.959  0.00  0.00    +0.154 A 
ATOM     10  C   UNL     1      49.097  14.984  19.998  0.00  0.00    +0.057 A 
ATOM     13  C   UNL     1      47.874  15.166  20.612  0.00  0.00    +0.111 A 
ATOM     14  C   UNL     1      47.035  16.198  20.188  0.00  0.00    -0.215 A 
ATOM     15  C   UNL     1      45.722  16.412  20.829  0.00  0.00    +0.443 A 
ATOM     16  O   UNL     1      45.334  15.704  21.741  0.00  0.00    -0.434 OA
ATOM     17  C   UNL     1      44.905  17.523  20.314  0.00  0.00    -0.289 A 
ATOM     18  C   UNL     1      43.647  17.798  20.865  0.00  0.00    +0.252 A 
ATOM     21  C   UNL     1      42.898  18.853  20.354  0.00  0.00    -0.196 A 
ATOM     22  C   UNL     1      41.566  19.187  20.900  0.00  0.00    +0.058 C 
ATOM     23  C   UNL     1      40.767  19.966  20.172  0.00  0.00    -0.049 C 
ATOM     24  C   UNL     1      41.228  20.468  18.829  0.00  0.00    +0.146 C 
ATOM     25  C   UNL     1      40.842  19.453  17.751  0.00  0.00    +0.039 C 
ATOM     26  C   UNL     1      40.546  21.805  18.529  0.00  0.00    +0.089 C 
ATOM     27  O   UNL     1      42.645  20.650  18.819  0.00  0.00    -0.294 OA
ATOM     28  C   UNL     1      43.403  19.630  19.295  0.00  0.00    +0.220 A 
ATOM     29  C   UNL     1      44.645  19.355  18.759  0.00  0.00    -0.030 A 
ATOM     30  C   UNL     1      45.406  18.301  19.255  0.00  0.00    +0.220 A 
ATOM     31  O   UNL     1      46.621  18.050  18.725  0.00  0.00    -0.219 OA
ATOM     32  C   UNL     1      47.425  17.050  19.144  0.00  0.00    +0.172 A 
ENDROOT
BRANCH   7   8
ATOM      8  O   UNL     1      50.693  15.649  18.359  0.00  0.00    -0.474 OA
ATOM      9  H   UNL     1      50.921  16.336  17.718  0.00  0.00    +0.396 HD
ENDBRANCH   7   8
BRANCH  10  11
ATOM     11  O   UNL     1      49.921  13.981  20.405  0.00  0.00    -0.478 OA
ATOM     12  H   UNL     1      49.462  13.158  20.619  0.00  0.00    +0.390 HD
ENDBRANCH  10  11
BRANCH  18  19
ATOM     19  O   UNL     1      43.164  17.044  21.884  0.00  0.00    -0.469 OA
ATOM     20  H   UNL     1      43.840  16.535  22.351  0.00  0.00    +0.404 HD
ENDBRANCH  18  19
BRANCH   6   5
ATOM      5  C   UNL     1      49.095  17.760  17.413  0.00  0.00    +0.136 C 
BRANCH   5   4
ATOM      1  C   UNL     1      51.456  18.539  16.080  0.00  0.00    +0.077 C 
ATOM      2  C   UNL     1      51.069  19.197  17.381  0.00  0.00    -0.124 C 
ATOM      3  C   UNL     1      51.979  20.224  18.004  0.00  0.00    +0.074 C 
ATOM      4  C   UNL     1      49.943  18.877  17.968  0.00  0.00    -0.057 C 
ENDBRANCH   5   4
ENDBRANCH   6   5
TORSDOF 5
ENDMDL
MODEL 2
REMARK VINA RESULT:      -6.4      3.832      8.468
REMARK  Name = ZINC13382721
REMARK  9 active torsions:
REMARK  status: ('A' for Active; 'I' for Inactive)
REMARK    1  A    between atoms: C1_1  and  C2_2
REMARK    2  A    between atoms: C2_2  and  C23_29
REMARK    3  A    between atoms: C3_3  and  C4_4
REMARK    4  A    between atoms: C4_4  and  C5_5
REMARK    5  A    between atoms: C6_6  and  O6_28
REMARK    6  A    between atoms: C7_7  and  O5_27
REMARK    7  A    between atoms: C15_16  and  O3_20
REMARK    8  A    between atoms: C20_23  and  C21_25
REMARK    9  A    between atoms: C20_23  and  C22_26
REMARK                            x       y       z     vdW  Elec       q    Type
REMARK                         _______ _______ _______ _____ _____    ______ ____
ROOT
ATOM      6  C   UNL     1      49.062  18.010  18.327  0.00  0.00    -0.111 A 
ATOM      7  C   UNL     1      47.941  18.741  18.674  0.00  0.00    +0.154 A 
ATOM     10  C   UNL     1      46.661  18.237  18.433  0.00  0.00    +0.057 A 
ATOM     13  C   UNL     1      46.508  17.000  17.841  0.00  0.00    +0.111 A 
ATOM     14  C   UNL     1      47.637  16.259  17.487  0.00  0.00    -0.215 A 
ATOM     15  C   UNL     1      47.499  14.933  16.852  0.00  0.00    +0.443 A 
ATOM     16  O   UNL     1      46.407  14.449  16.616  0.00  0.00    -0.434 OA
ATOM     17  C   UNL     1      48.746  14.225  16.517  0.00  0.00    -0.289 A 
ATOM     18  C   UNL     1      48.707  12.962  15.911  0.00  0.00    +0.252 A 
ATOM     21  C   UNL     1      49.902  12.318  15.610  0.00  0.00    -0.196 A 
ATOM     22  C   UNL     1      49.918  10.985  14.970  0.00  0.00    +0.058 C 
ATOM     23  C   UNL     1      51.049  10.283  15.012  0.00  0.00    -0.049 C 
ATOM     24  C   UNL     1      52.258  10.847  15.710  0.00  0.00    +0.146 C 
ATOM     25  C   UNL     1      52.222  10.448  17.186  0.00  0.00    +0.039 C 
ATOM     26  C   UNL     1      53.524  10.279  15.065  0.00  0.00    +0.089 C 
ATOM     27  O   UNL     1      52.279  12.272  15.608  0.00  0.00    -0.294 OA
ATOM     28  C   UNL     1      51.132  12.930  15.913  0.00  0.00    +0.220 A 
ATOM     29  C   UNL     1      51.162  14.176  16.508  0.00  0.00    -0.030 A 
ATOM     30  C   UNL     1      49.977  14.834  16.820  0.00  0.00    +0.220 A 
ATOM     31  O   UNL     1      50.023  16.054  17.393  0.00  0.00    -0.219 OA
ATOM     32  C   UNL     1      48.924  16.763  17.730  0.00  0.00    +0.172 A 
ENDROOT
BRANCH   7   8
ATOM      8  O   UNL     1      48.085  19.959  19.258  0.00  0.00    -0.474 OA
ATOM      9  H   UNL     1      48.362  19.922  20.183  0.00  0.00    +0.396 HD
ENDBRANCH   7   8
BRANCH  10  11
ATOM     11  O   UNL     1      45.566  18.966  18.780  0.00  0.00    -0.478 OA
ATOM     12  H   UNL     1      45.082  18.612  19.539  0.00  0.00    +0.390 HD
ENDBRANCH  10  11
BRANCH  18  19
ATOM     19  O   UNL     1      47.519  12.375  15.623  0.00  0.00    -0.469 OA
ATOM     20  H   UNL     1      46.788  12.998  15.517  0.00  0.00    +0.404 HD
ENDBRANCH  18  19
BRANCH   6   5
ATOM      5  C   UNL     1      50.436  18.567  18.595  0.00  0.00    +0.136 C 
BRANCH   5   4
ATOM      1  C   UNL     1      51.324  21.240  18.733  0.00  0.00    +0.077 C 
ATOM      2  C   UNL     1      51.306  20.517  17.410  0.00  0.00    -0.124 C 
ATOM      3  C   UNL     1      51.698  21.243  16.150  0.00  0.00    +0.074 C 
ATOM      4  C   UNL     1      50.950  19.257  17.357  0.00  0.00    -0.057 C 
ENDBRANCH   5   4
ENDBRANCH   6   5
TORSDOF 5
ENDMDL
MODEL 3
REMARK VINA RESULT:      -6.4      4.554      7.124
REMARK  Name = ZINC13382721
REMARK  9 active torsions:
REMARK  status: ('A' for Active; 'I' for Inactive)
REMARK    1  A    between atoms: C1_1  and  C2_2
REMARK    2  A    between atoms: C2_2  and  C23_29
REMARK    3  A    between atoms: C3_3  and  C4_4
REMARK    4  A    between atoms: C4_4  and  C5_5
REMARK    5  A    between atoms: C6_6  and  O6_28
REMARK    6  A    between atoms: C7_7  and  O5_27
REMARK    7  A    between atoms: C15_16  and  O3_20
REMARK    8  A    between atoms: C20_23  and  C21_25
REMARK    9  A    between atoms: C20_23  and  C22_26
REMARK                            x       y       z     vdW  Elec       q    Type
REMARK                         _______ _______ _______ _____ _____    ______ ____
ROOT
ATOM      6  C   UNL     1      48.817  12.377  15.773  0.00  0.00    -0.111 A 
ATOM      7  C   UNL     1      47.736  11.533  15.593  0.00  0.00    +0.154 A 
ATOM     10  C   UNL     1      46.463  11.905  16.033  0.00  0.00    +0.057 A 
ATOM     13  C   UNL     1      46.278  13.123  16.655  0.00  0.00    +0.111 A 
ATOM     14  C   UNL     1      47.367  13.977  16.840  0.00  0.00    -0.215 A 
ATOM     15  C   UNL     1      47.194  15.285  17.503  0.00  0.00    +0.443 A 
ATOM     16  O   UNL     1      46.108  15.656  17.909  0.00  0.00    -0.434 OA
ATOM     17  C   UNL     1      48.399  16.118  17.651  0.00  0.00    -0.289 A 
ATOM     18  C   UNL     1      48.326  17.373  18.270  0.00  0.00    +0.252 A 
ATOM     21  C   UNL     1      49.481  18.138  18.392  0.00  0.00    -0.196 A 
ATOM     22  C   UNL     1      49.459  19.468  19.037  0.00  0.00    +0.058 C 
ATOM     23  C   UNL     1      50.493  20.281  18.829  0.00  0.00    -0.049 C 
ATOM     24  C   UNL     1      51.633  19.840  17.949  0.00  0.00    +0.146 C 
ATOM     25  C   UNL     1      51.329  20.227  16.500  0.00  0.00    +0.039 C 
ATOM     26  C   UNL     1      52.918  20.538  18.399  0.00  0.00    +0.089 C 
ATOM     27  O   UNL     1      51.813  18.425  18.030  0.00  0.00    -0.294 OA
ATOM     28  C   UNL     1      50.706  17.652  17.897  0.00  0.00    +0.220 A 
ATOM     29  C   UNL     1      50.770  16.414  17.291  0.00  0.00    -0.030 A 
ATOM     30  C   UNL     1      49.624  15.637  17.157  0.00  0.00    +0.220 A 
ATOM     31  O   UNL     1      49.706  14.425  16.570  0.00  0.00    -0.219 OA
ATOM     32  C   UNL     1      48.647  13.606  16.397  0.00  0.00    +0.172 A 
ENDROOT
BRANCH   7   8
ATOM      8  O   UNL     1      47.912  10.333  14.981  0.00  0.00    -0.474 OA
ATOM      9  H   UNL     1      48.714   9.867  15.254  0.00  0.00    +0.396 HD
ENDBRANCH   7   8
BRANCH  10  11
ATOM     11  O   UNL     1      45.408  11.067  15.849  0.00  0.00    -0.478 OA
ATOM     12  H   UNL     1      44.612  11.324  16.335  0.00  0.00    +0.390 HD
ENDBRANCH  10  11
BRANCH  18  19
ATOM     19  O   UNL     1      47.143  17.837  18.743  0.00  0.00    -0.469 OA
ATOM     20  H   UNL     1      46.819  17.367  19.523  0.00  0.00    +0.404 HD
ENDBRANCH  18  19
BRANCH   6   5
ATOM      5  C   UNL     1      50.183  11.962  15.291  0.00  0.00    +0.136 C 
BRANCH   5   4
ATOM      1  C   UNL     1      52.057  13.704  14.104  0.00  0.00    +0.077 C 
ATOM      2  C   UNL     1      51.078  12.946  13.243  0.00  0.00    -0.124 C 
ATOM      3  C   UNL     1      51.055  13.171  11.754  0.00  0.00    +0.074 C 
ATOM      4  C   UNL     1      50.248  12.093  13.790  0.00  0.00    -0.057 C 
ENDBRANCH   5   4
ENDBRANCH   6   5
TORSDOF 5
ENDMDL
MODEL 4
REMARK VINA RESULT:      -6.3      2.895      8.282
REMARK  Name = ZINC13382721
REMARK  9 active torsions:
REMARK  status: ('A' for Active; 'I' for Inactive)
REMARK    1  A    between atoms: C1_1  and  C2_2
REMARK    2  A    between atoms: C2_2  and  C23_29
REMARK    3  A    between atoms: C3_3  and  C4_4
REMARK    4  A    between atoms: C4_4  and  C5_5
REMARK    5  A    between atoms: C6_6  and  O6_28
REMARK    6  A    between atoms: C7_7  and  O5_27
REMARK    7  A    between atoms: C15_16  and  O3_20
REMARK    8  A    between atoms: C20_23  and  C21_25
REMARK    9  A    between atoms: C20_23  and  C22_26
REMARK                            x       y       z     vdW  Elec       q    Type
REMARK                         _______ _______ _______ _____ _____    ______ ____
ROOT
ATOM      6  C   UNL     1      44.818  21.285  19.865  0.00  0.00    -0.111 A 
ATOM      7  C   UNL     1      44.485  22.526  20.377  0.00  0.00    +0.154 A 
ATOM     10  C   UNL     1      45.411  23.259  21.123  0.00  0.00    +0.057 A 
ATOM     13  C   UNL     1      46.670  22.744  21.356  0.00  0.00    +0.111 A 
ATOM     14  C   UNL     1      47.010  21.491  20.842  0.00  0.00    -0.215 A 
ATOM     15  C   UNL     1      48.350  20.919  21.078  0.00  0.00    +0.443 A 
ATOM     16  O   UNL     1      49.193  21.514  21.724  0.00  0.00    -0.434 OA
ATOM     17  C   UNL     1      48.618  19.594  20.495  0.00  0.00    -0.289 A 
ATOM     18  C   UNL     1      49.864  18.976  20.671  0.00  0.00    +0.252 A 
ATOM     21  C   UNL     1      50.086  17.725  20.105  0.00  0.00    -0.196 A 
ATOM     22  C   UNL     1      51.381  17.030  20.261  0.00  0.00    +0.058 C 
ATOM     23  C   UNL     1      51.652  16.018  19.438  0.00  0.00    -0.049 C 
ATOM     24  C   UNL     1      50.657  15.623  18.380  0.00  0.00    +0.146 C 
ATOM     25  C   UNL     1      50.925  16.431  17.109  0.00  0.00    +0.039 C 
ATOM     26  C   UNL     1      50.812  14.132  18.072  0.00  0.00    +0.089 C 
ATOM     27  O   UNL     1      49.323  15.874  18.824  0.00  0.00    -0.294 OA
ATOM     28  C   UNL     1      49.070  17.093  19.365  0.00  0.00    +0.220 A 
ATOM     29  C   UNL     1      47.845  17.707  19.198  0.00  0.00    -0.030 A 
ATOM     30  C   UNL     1      47.605  18.959  19.753  0.00  0.00    +0.220 A 
ATOM     31  O   UNL     1      46.400  19.542  19.588  0.00  0.00    -0.219 OA
ATOM     32  C   UNL     1      46.081  20.754  20.091  0.00  0.00    +0.172 A 
ENDROOT
BRANCH   7   8
ATOM      8  O   UNL     1      43.247  23.038  20.151  0.00  0.00    -0.474 OA
ATOM      9  H   UNL     1      42.556  22.369  20.059  0.00  0.00    +0.396 HD
ENDBRANCH   7   8
BRANCH  10  11
ATOM     11  O   UNL     1      45.072  24.479  21.620  0.00  0.00    -0.478 OA
ATOM     12  H   UNL     1      45.696  24.826  22.272  0.00  0.00    +0.390 HD
ENDBRANCH  10  11
BRANCH  18  19
ATOM     19  O   UNL     1      50.840  19.591  21.383  0.00  0.00    -0.469 OA
ATOM     20  H   UNL     1      51.477  18.984  21.783  0.00  0.00    +0.404 HD
ENDBRANCH  18  19
BRANCH   6   5
ATOM      5  C   UNL     1      43.808  20.508  19.061  0.00  0.00    +0.136 C 
BRANCH   5   4
ATOM      1  C   UNL     1      40.989  20.565  19.044  0.00  0.00    +0.077 C 
ATOM      2  C   UNL     1      41.721  19.669  20.011  0.00  0.00    -0.124 C 
ATOM      3  C   UNL     1      40.948  18.853  21.014  0.00  0.00    +0.074 C 
ATOM      4  C   UNL     1      43.028  19.599  19.977  0.00  0.00    -0.057 C 
ENDBRANCH   5   4
ENDBRANCH   6   5
TORSDOF 5
ENDMDL
MODEL 5
REMARK VINA RESULT:      -6.3      3.101      4.096
REMARK  Name = ZINC13382721
REMARK  9 active torsions:
REMARK  status: ('A' for Active; 'I' for Inactive)
REMARK    1  A    between atoms: C1_1  and  C2_2
REMARK    2  A    between atoms: C2_2  and  C23_29
REMARK    3  A    between atoms: C3_3  and  C4_4
REMARK    4  A    between atoms: C4_4  and  C5_5
REMARK    5  A    between atoms: C6_6  and  O6_28
REMARK    6  A    between atoms: C7_7  and  O5_27
REMARK    7  A    between atoms: C15_16  and  O3_20
REMARK    8  A    between atoms: C20_23  and  C21_25
REMARK    9  A    between atoms: C20_23  and  C22_26
REMARK                            x       y       z     vdW  Elec       q    Type
REMARK                         _______ _______ _______ _____ _____    ______ ____
ROOT
ATOM      6  C   UNL     1      49.616  19.377  20.371  0.00  0.00    -0.111 A 
ATOM      7  C   UNL     1      50.720  19.825  21.075  0.00  0.00    +0.154 A 
ATOM     10  C   UNL     1      50.657  21.007  21.816  0.00  0.00    +0.057 A 
ATOM     13  C   UNL     1      49.489  21.740  21.848  0.00  0.00    +0.111 A 
ATOM     14  C   UNL     1      48.373  21.292  21.137  0.00  0.00    -0.215 A 
ATOM     15  C   UNL     1      47.111  22.058  21.156  0.00  0.00    +0.443 A 
ATOM     16  O   UNL     1      47.005  23.097  21.782  0.00  0.00    -0.434 OA
ATOM     17  C   UNL     1      45.989  21.507  20.379  0.00  0.00    -0.289 A 
ATOM     18  C   UNL     1      44.755  22.171  20.340  0.00  0.00    +0.252 A 
ATOM     21  C   UNL     1      43.713  21.623  19.600  0.00  0.00    -0.196 A 
ATOM     22  C   UNL     1      42.393  22.282  19.524  0.00  0.00    +0.058 C 
ATOM     23  C   UNL     1      41.357  21.563  19.094  0.00  0.00    -0.049 C 
ATOM     24  C   UNL     1      41.550  20.119  18.715  0.00  0.00    +0.146 C 
ATOM     25  C   UNL     1      41.354  19.242  19.953  0.00  0.00    +0.039 C 
ATOM     26  C   UNL     1      40.516  19.733  17.655  0.00  0.00    +0.089 C 
ATOM     27  O   UNL     1      42.862  19.908  18.191  0.00  0.00    -0.294 OA
ATOM     28  C   UNL     1      43.901  20.416  18.901  0.00  0.00    +0.220 A 
ATOM     29  C   UNL     1      45.120  19.769  18.943  0.00  0.00    -0.030 A 
ATOM     30  C   UNL     1      46.172  20.300  19.681  0.00  0.00    +0.220 A 
ATOM     31  O   UNL     1      47.360  19.661  19.704  0.00  0.00    -0.219 OA
ATOM     32  C   UNL     1      48.433  20.103  20.393  0.00  0.00    +0.172 A 
ENDROOT
BRANCH   7   8
ATOM      8  O   UNL     1      51.873  19.108  21.048  0.00  0.00    -0.474 OA
ATOM      9  H   UNL     1      52.673  19.650  21.047  0.00  0.00    +0.396 HD
ENDBRANCH   7   8
BRANCH  10  11
ATOM     11  O   UNL     1      51.749  21.437  22.505  0.00  0.00    -0.478 OA
ATOM     12  H   UNL     1      52.581  21.343  22.022  0.00  0.00    +0.390 HD
ENDBRANCH  10  11
BRANCH  18  19
ATOM     19  O   UNL     1      44.579  23.333  21.017  0.00  0.00    -0.469 OA
ATOM     20  H   UNL     1      44.515  24.113  20.450  0.00  0.00    +0.404 HD
ENDBRANCH  18  19
BRANCH   6   5
ATOM      5  C   UNL     1      49.699  18.098  19.578  0.00  0.00    +0.136 C 
BRANCH   5   4
ATOM      1  C   UNL     1      51.970  16.949  18.363  0.00  0.00    +0.077 C 
ATOM      2  C   UNL     1      51.118  17.931  17.598  0.00  0.00    -0.124 C 
ATOM      3  C   UNL     1      51.518  18.351  16.207  0.00  0.00    +0.074 C 
ATOM      4  C   UNL     1      50.031  18.418  18.142  0.00  0.00    -0.057 C 
ENDBRANCH   5   4
ENDBRANCH   6   5
TORSDOF 5
ENDMDL
MODEL 6
REMARK VINA RESULT:      -6.1      2.275      4.146
REMARK  Name = ZINC13382721
REMARK  9 active torsions:
REMARK  status: ('A' for Active; 'I' for Inactive)
REMARK    1  A    between atoms: C1_1  and  C2_2
REMARK    2  A    between atoms: C2_2  and  C23_29
REMARK    3  A    between atoms: C3_3  and  C4_4
REMARK    4  A    between atoms: C4_4  and  C5_5
REMARK    5  A    between atoms: C6_6  and  O6_28
REMARK    6  A    between atoms: C7_7  and  O5_27
REMARK    7  A    between atoms: C15_16  and  O3_20
REMARK    8  A    between atoms: C20_23  and  C21_25
REMARK    9  A    between atoms: C20_23  and  C22_26
REMARK                            x       y       z     vdW  Elec       q    Type
REMARK                         _______ _______ _______ _____ _____    ______ ____
ROOT
ATOM      6  C   UNL     1      49.962  16.482  17.732  0.00  0.00    -0.111 A 
ATOM      7  C   UNL     1      51.320  16.393  17.977  0.00  0.00    +0.154 A 
ATOM     10  C   UNL     1      51.979  17.390  18.701  0.00  0.00    +0.057 A 
ATOM     13  C   UNL     1      51.274  18.477  19.175  0.00  0.00    +0.111 A 
ATOM     14  C   UNL     1      49.903  18.572  18.929  0.00  0.00    -0.215 A 
ATOM     15  C   UNL     1      49.126  19.725  19.426  0.00  0.00    +0.443 A 
ATOM     16  O   UNL     1      49.652  20.623  20.059  0.00  0.00    -0.434 OA
ATOM     17  C   UNL     1      47.686  19.737  19.120  0.00  0.00    -0.289 A 
ATOM     18  C   UNL     1      46.874  20.794  19.553  0.00  0.00    +0.252 A 
ATOM     21  C   UNL     1      45.517  20.774  19.250  0.00  0.00    -0.196 A 
ATOM     22  C   UNL     1      44.617  21.864  19.681  0.00  0.00    +0.058 C 
ATOM     23  C   UNL     1      43.304  21.637  19.662  0.00  0.00    -0.049 C 
ATOM     24  C   UNL     1      42.779  20.297  19.223  0.00  0.00    +0.146 C 
ATOM     25  C   UNL     1      42.693  19.367  20.435  0.00  0.00    +0.039 C 
ATOM     26  C   UNL     1      41.383  20.473  18.622  0.00  0.00    +0.089 C 
ATOM     27  O   UNL     1      43.642  19.715  18.244  0.00  0.00    -0.294 OA
ATOM     28  C   UNL     1      44.971  19.703  18.519  0.00  0.00    +0.220 A 
ATOM     29  C   UNL     1      45.777  18.666  18.095  0.00  0.00    -0.030 A 
ATOM     30  C   UNL     1      47.136  18.667  18.391  0.00  0.00    +0.220 A 
ATOM     31  O   UNL     1      47.913  17.651  17.961  0.00  0.00    -0.219 OA
ATOM     32  C   UNL     1      49.238  17.570  18.204  0.00  0.00    +0.172 A 
ENDROOT
BRANCH   7   8
ATOM      8  O   UNL     1      52.020  15.325  17.513  0.00  0.00    -0.474 OA
ATOM      9  H   UNL     1      51.492  14.522  17.415  0.00  0.00    +0.396 HD
ENDBRANCH   7   8
BRANCH  10  11
ATOM     11  O   UNL     1      53.316  17.290  18.936  0.00  0.00    -0.478 OA
ATOM     12  H   UNL     1      53.852  17.223  18.134  0.00  0.00    +0.390 HD
ENDBRANCH  10  11
BRANCH  18  19
ATOM     19  O   UNL     1      47.405  21.822  20.259  0.00  0.00    -0.469 OA
ATOM     20  H   UNL     1      47.261  21.760  21.213  0.00  0.00    +0.404 HD
ENDBRANCH  18  19
BRANCH   6   5
ATOM      5  C   UNL     1      49.266  15.397  16.952  0.00  0.00    +0.136 C 
BRANCH   5   4
ATOM      1  C   UNL     1      46.585  14.525  16.884  0.00  0.00    +0.077 C 
ATOM      2  C   UNL     1      47.539  13.958  17.905  0.00  0.00    -0.124 C 
ATOM      3  C   UNL     1      47.044  12.974  18.933  0.00  0.00    +0.074 C 
ATOM      4  C   UNL     1      48.798  14.320  17.897  0.00  0.00    -0.057 C 
ENDBRANCH   5   4
ENDBRANCH   6   5
TORSDOF 5
ENDMDL
MODEL 7
REMARK VINA RESULT:      -6.1      2.464      3.286
REMARK  Name = ZINC13382721
REMARK  9 active torsions:
REMARK  status: ('A' for Active; 'I' for Inactive)
REMARK    1  A    between atoms: C1_1  and  C2_2
REMARK    2  A    between atoms: C2_2  and  C23_29
REMARK    3  A    between atoms: C3_3  and  C4_4
REMARK    4  A    between atoms: C4_4  and  C5_5
REMARK    5  A    between atoms: C6_6  and  O6_28
REMARK    6  A    between atoms: C7_7  and  O5_27
REMARK    7  A    between atoms: C15_16  and  O3_20
REMARK    8  A    between atoms: C20_23  and  C21_25
REMARK    9  A    between atoms: C20_23  and  C22_26
REMARK                            x       y       z     vdW  Elec       q    Type
REMARK                         _______ _______ _______ _____ _____    ______ ____
ROOT
ATOM      6  C   UNL     1      51.002  17.241  17.711  0.00  0.00    -0.111 A 
ATOM      7  C   UNL     1      51.399  16.105  17.030  0.00  0.00    +0.154 A 
ATOM     10  C   UNL     1      50.491  15.073  16.779  0.00  0.00    +0.057 A 
ATOM     13  C   UNL     1      49.186  15.183  17.215  0.00  0.00    +0.111 A 
ATOM     14  C   UNL     1      48.782  16.328  17.905  0.00  0.00    -0.215 A 
ATOM     15  C   UNL     1      47.392  16.469  18.381  0.00  0.00    +0.443 A 
ATOM     16  O   UNL     1      46.562  15.598  18.192  0.00  0.00    -0.434 OA
ATOM     17  C   UNL     1      47.058  17.712  19.096  0.00  0.00    -0.289 A 
ATOM     18  C   UNL     1      45.762  17.927  19.583  0.00  0.00    +0.252 A 
ATOM     21  C   UNL     1      45.477  19.113  20.252  0.00  0.00    -0.196 A 
ATOM     22  C   UNL     1      44.128  19.390  20.787  0.00  0.00    +0.058 C 
ATOM     23  C   UNL     1      43.827  20.647  21.109  0.00  0.00    -0.049 C 
ATOM     24  C   UNL     1      44.846  21.738  20.912  0.00  0.00    +0.146 C 
ATOM     25  C   UNL     1      44.709  22.307  19.498  0.00  0.00    +0.039 C 
ATOM     26  C   UNL     1      44.597  22.852  21.930  0.00  0.00    +0.089 C 
ATOM     27  O   UNL     1      46.169  21.228  21.087  0.00  0.00    -0.294 OA
ATOM     28  C   UNL     1      46.482  20.082  20.433  0.00  0.00    +0.220 A 
ATOM     29  C   UNL     1      47.757  19.861  19.951  0.00  0.00    -0.030 A 
ATOM     30  C   UNL     1      48.059  18.682  19.277  0.00  0.00    +0.220 A 
ATOM     31  O   UNL     1      49.312  18.478  18.821  0.00  0.00    -0.219 OA
ATOM     32  C   UNL     1      49.693  17.366  18.156  0.00  0.00    +0.172 A 
ENDROOT
BRANCH   7   8
ATOM      8  O   UNL     1      52.682  15.991  16.598  0.00  0.00    -0.474 OA
ATOM      9  H   UNL     1      53.321  15.823  17.305  0.00  0.00    +0.396 HD
ENDBRANCH   7   8
BRANCH  10  11
ATOM     11  O   UNL     1      50.893  13.961  16.107  0.00  0.00    -0.478 OA
ATOM     12  H   UNL     1      51.497  13.396  16.607  0.00  0.00    +0.390 HD
ENDBRANCH  10  11
BRANCH  18  19
ATOM     19  O   UNL     1      44.797  16.992  19.404  0.00  0.00    -0.469 OA
ATOM     20  H   UNL     1      44.689  16.389  20.152  0.00  0.00    +0.404 HD
ENDBRANCH  18  19
BRANCH   6   5
ATOM      5  C   UNL     1      51.994  18.346  17.972  0.00  0.00    +0.136 C 
BRANCH   5   4
ATOM      1  C   UNL     1      51.473  21.078  18.439  0.00  0.00    +0.077 C 
ATOM      2  C   UNL     1      51.676  20.576  17.031  0.00  0.00    -0.124 C 
ATOM      3  C   UNL     1      51.534  21.522  15.868  0.00  0.00    +0.074 C 
ATOM      4  C   UNL     1      51.976  19.319  16.821  0.00  0.00    -0.057 C 
ENDBRANCH   5   4
ENDBRANCH   6   5
TORSDOF 5
ENDMDL
MODEL 8
REMARK VINA RESULT:      -5.9      2.808      7.627
REMARK  Name = ZINC13382721
REMARK  9 active torsions:
REMARK  status: ('A' for Active; 'I' for Inactive)
REMARK    1  A    between atoms: C1_1  and  C2_2
REMARK    2  A    between atoms: C2_2  and  C23_29
REMARK    3  A    between atoms: C3_3  and  C4_4
REMARK    4  A    between atoms: C4_4  and  C5_5
REMARK    5  A    between atoms: C6_6  and  O6_28
REMARK    6  A    between atoms: C7_7  and  O5_27
REMARK    7  A    between atoms: C15_16  and  O3_20
REMARK    8  A    between atoms: C20_23  and  C21_25
REMARK    9  A    between atoms: C20_23  and  C22_26
REMARK                            x       y       z     vdW  Elec       q    Type
REMARK                         _______ _______ _______ _____ _____    ______ ____
ROOT
ATOM      6  C   UNL     1      44.836  20.802  21.057  0.00  0.00    -0.111 A 
ATOM      7  C   UNL     1      45.130  22.109  21.404  0.00  0.00    +0.154 A 
ATOM     10  C   UNL     1      46.443  22.581  21.345  0.00  0.00    +0.057 A 
ATOM     13  C   UNL     1      47.460  21.741  20.940  0.00  0.00    +0.111 A 
ATOM     14  C   UNL     1      47.168  20.421  20.590  0.00  0.00    -0.215 A 
ATOM     15  C   UNL     1      48.238  19.503  20.153  0.00  0.00    +0.443 A 
ATOM     16  O   UNL     1      49.400  19.863  20.088  0.00  0.00    -0.434 OA
ATOM     17  C   UNL     1      47.834  18.132  19.801  0.00  0.00    -0.289 A 
ATOM     18  C   UNL     1      48.786  17.195  19.378  0.00  0.00    +0.252 A 
ATOM     21  C   UNL     1      48.372  15.908  19.050  0.00  0.00    -0.196 A 
ATOM     22  C   UNL     1      49.335  14.882  18.599  0.00  0.00    +0.058 C 
ATOM     23  C   UNL     1      48.856  13.799  17.988  0.00  0.00    -0.049 C 
ATOM     24  C   UNL     1      47.374  13.655  17.765  0.00  0.00    +0.146 C 
ATOM     25  C   UNL     1      47.002  14.296  16.426  0.00  0.00    +0.039 C 
ATOM     26  C   UNL     1      47.010  12.170  17.730  0.00  0.00    +0.089 C 
ATOM     27  O   UNL     1      46.643  14.295  18.812  0.00  0.00    -0.294 OA
ATOM     28  C   UNL     1      47.013  15.558  19.142  0.00  0.00    +0.220 A 
ATOM     29  C   UNL     1      46.081  16.486  19.562  0.00  0.00    -0.030 A 
ATOM     30  C   UNL     1      46.476  17.779  19.891  0.00  0.00    +0.220 A 
ATOM     31  O   UNL     1      45.555  18.671  20.308  0.00  0.00    -0.219 OA
ATOM     32  C   UNL     1      45.849  19.945  20.646  0.00  0.00    +0.172 A 
ENDROOT
BRANCH   7   8
ATOM      8  O   UNL     1      44.133  22.940  21.804  0.00  0.00    -0.474 OA
ATOM      9  H   UNL     1      44.182  23.826  21.420  0.00  0.00    +0.396 HD
ENDBRANCH   7   8
BRANCH  10  11
ATOM     11  O   UNL     1      46.719  23.868  21.689  0.00  0.00    -0.478 OA
ATOM     12  H   UNL     1      45.981  24.331  22.107  0.00  0.00    +0.390 HD
ENDBRANCH  10  11
BRANCH  18  19
ATOM     19  O   UNL     1      50.095  17.539  19.288  0.00  0.00    -0.469 OA
ATOM     20  H   UNL     1      50.293  18.146  18.562  0.00  0.00    +0.404 HD
ENDBRANCH  18  19
BRANCH   6   5
ATOM      5  C   UNL     1      43.414  20.309  21.124  0.00  0.00    +0.136 C 
BRANCH   5   4
ATOM      1  C   UNL     1      40.885  19.167  20.616  0.00  0.00    +0.077 C 
ATOM      2  C   UNL     1      41.602  19.930  19.531  0.00  0.00    -0.124 C 
ATOM      3  C   UNL     1      40.998  20.025  18.154  0.00  0.00    +0.074 C 
ATOM      4  C   UNL     1      42.748  20.509  19.786  0.00  0.00    -0.057 C 
ENDBRANCH   5   4
ENDBRANCH   6   5
TORSDOF 5
ENDMDL
MODEL 9
REMARK VINA RESULT:      -5.7      3.639      6.203
REMARK  Name = ZINC13382721
REMARK  9 active torsions:
REMARK  status: ('A' for Active; 'I' for Inactive)
REMARK    1  A    between atoms: C1_1  and  C2_2
REMARK    2  A    between atoms: C2_2  and  C23_29
REMARK    3  A    between atoms: C3_3  and  C4_4
REMARK    4  A    between atoms: C4_4  and  C5_5
REMARK    5  A    between atoms: C6_6  and  O6_28
REMARK    6  A    between atoms: C7_7  and  O5_27
REMARK    7  A    between atoms: C15_16  and  O3_20
REMARK    8  A    between atoms: C20_23  and  C21_25
REMARK    9  A    between atoms: C20_23  and  C22_26
REMARK                            x       y       z     vdW  Elec       q    Type
REMARK                         _______ _______ _______ _____ _____    ______ ____
ROOT
ATOM      6  C   UNL     1      49.789  19.155  19.887  0.00  0.00    -0.111 A 
ATOM      7  C   UNL     1      49.483  20.098  20.852  0.00  0.00    +0.154 A 
ATOM     10  C   UNL     1      48.280  20.028  21.558  0.00  0.00    +0.057 A 
ATOM     13  C   UNL     1      47.383  19.013  21.292  0.00  0.00    +0.111 A 
ATOM     14  C   UNL     1      47.687  18.060  20.318  0.00  0.00    -0.215 A 
ATOM     15  C   UNL     1      46.745  16.965  20.015  0.00  0.00    +0.443 A 
ATOM     16  O   UNL     1      45.681  16.860  20.598  0.00  0.00    -0.434 OA
ATOM     17  C   UNL     1      47.153  16.006  18.975  0.00  0.00    -0.289 A 
ATOM     18  C   UNL     1      46.317  14.937  18.624  0.00  0.00    +0.252 A 
ATOM     21  C   UNL     1      46.733  14.047  17.639  0.00  0.00    -0.196 A 
ATOM     22  C   UNL     1      45.890  12.904  17.230  0.00  0.00    +0.058 C 
ATOM     23  C   UNL     1      46.464  11.915  16.547  0.00  0.00    -0.049 C 
ATOM     24  C   UNL     1      47.933  11.979  16.223  0.00  0.00    +0.146 C 
ATOM     25  C   UNL     1      48.730  11.346  17.366  0.00  0.00    +0.039 C 
ATOM     26  C   UNL     1      48.201  11.203  14.932  0.00  0.00    +0.089 C 
ATOM     27  O   UNL     1      48.352  13.334  16.052  0.00  0.00    -0.294 OA
ATOM     28  C   UNL     1      47.978  14.223  17.007  0.00  0.00    +0.220 A 
ATOM     29  C   UNL     1      48.794  15.280  17.356  0.00  0.00    -0.030 A 
ATOM     30  C   UNL     1      48.397  16.178  18.342  0.00  0.00    +0.220 A 
ATOM     31  O   UNL     1      49.202  17.211  18.666  0.00  0.00    -0.219 OA
ATOM     32  C   UNL     1      48.897  18.127  19.609  0.00  0.00    +0.172 A 
ENDROOT
BRANCH   7   8
ATOM      8  O   UNL     1      50.362  21.099  21.118  0.00  0.00    -0.474 OA
ATOM      9  H   UNL     1      50.869  20.971  21.931  0.00  0.00    +0.396 HD
ENDBRANCH   7   8
BRANCH  10  11
ATOM     11  O   UNL     1      47.991  20.960  22.505  0.00  0.00    -0.478 OA
ATOM     12  H   UNL     1      48.086  21.873  22.201  0.00  0.00    +0.390 HD
ENDBRANCH  10  11
BRANCH  18  19
ATOM     19  O   UNL     1      45.120  14.771  19.238  0.00  0.00    -0.469 OA
ATOM     20  H   UNL     1      44.364  14.782  18.636  0.00  0.00    +0.404 HD
ENDBRANCH  18  19
BRANCH   6   5
ATOM      5  C   UNL     1      51.092  19.244  19.136  0.00  0.00    +0.136 C 
BRANCH   5   4
ATOM      1  C   UNL     1      51.921  18.852  16.469  0.00  0.00    +0.077 C 
ATOM      2  C   UNL     1      51.468  20.215  16.928  0.00  0.00    -0.124 C 
ATOM      3  C   UNL     1      51.522  21.384  15.979  0.00  0.00    +0.074 C 
ATOM      4  C   UNL     1      51.028  20.382  18.150  0.00  0.00    -0.057 C 
ENDBRANCH   5   4
ENDBRANCH   6   5
TORSDOF 5
ENDMDL
