MODEL 1
REMARK VINA RESULT:      -5.8      0.000      0.000
REMARK  Name = ZINC33832344
REMARK  2 active torsions:
REMARK  status: ('A' for Active; 'I' for Inactive)
REMARK    1  A    between atoms: C9_12  and  O4_25
REMARK    2  A    between atoms: C10_14  and  O3_24
REMARK                            x       y       z     vdW  Elec       q    Type
REMARK                         _______ _______ _______ _____ _____    ______ ____
ROOT
ATOM      1  C   UNL     1      49.484  15.021  18.408  0.00  0.00    +0.062 A 
ATOM      2  C   UNL     1      49.712  16.398  18.426  0.00  0.00    -0.120 A 
ATOM      3  C   UNL     1      50.558  16.990  17.505  0.00  0.00    -0.071 A 
ATOM      4  C   UNL     1      50.708  18.471  17.480  0.00  0.00    +0.069 C 
ATOM      5  C   UNL     1      52.053  18.991  17.003  0.00  0.00    +0.212 C 
ATOM      8  C   UNL     1      52.041  20.514  16.886  0.00  0.00    +0.182 C 
ATOM     11  C   UNL     1      50.944  21.182  17.662  0.00  0.00    +0.036 C 
ATOM     12  C   UNL     1      50.195  20.553  18.506  0.00  0.00    -0.155 C 
ATOM     13  C   UNL     1      48.965  20.929  19.293  0.00  0.00    +0.143 C 
ATOM     14  C   UNL     1      48.217  19.577  19.421  0.00  0.00    +0.278 C 
ATOM     15  N   UNL     1      49.275  18.585  19.492  0.00  0.00    -0.367 N 
ATOM     16  H   UNL     1      49.542  18.721  20.456  0.00  0.00    +0.411 HD
ATOM     17  C   UNL     1      50.480  19.080  18.867  0.00  0.00    +0.207 C 
ATOM     18  C   UNL     1      51.247  16.231  16.562  0.00  0.00    +0.102 A 
ATOM     19  C   UNL     1      51.027  14.863  16.544  0.00  0.00    +0.053 A 
ATOM     20  O   UNL     1      51.546  13.903  15.745  0.00  0.00    -0.296 OA
ATOM     21  C   UNL     1      50.678  12.761  15.903  0.00  0.00    +0.450 C 
ATOM     22  O   UNL     1      50.107  12.933  17.217  0.00  0.00    -0.298 OA
ATOM     23  C   UNL     1      49.019  17.195  19.501  0.00  0.00    +0.337 C 
ATOM     24  C   UNL     1      50.146  14.264  17.457  0.00  0.00    +0.051 A 
ENDROOT
BRANCH   5   6
ATOM      6  O   UNL     1      52.347  18.426  15.723  0.00  0.00    -0.532 OA
ATOM      7  H   UNL     1      51.906  18.871  14.986  0.00  0.00    +0.395 HD
ENDBRANCH   5   6
BRANCH   8   9
ATOM      9  O   UNL     1      51.895  20.862  15.508  0.00  0.00    -0.539 OA
ATOM     10  H   UNL     1      52.533  20.430  14.924  0.00  0.00    +0.391 HD
ENDBRANCH   8   9
TORSDOF 2
ENDMDL
MODEL 2
REMARK VINA RESULT:      -5.7     20.067     21.113
REMARK  Name = ZINC33832344
REMARK  2 active torsions:
REMARK  status: ('A' for Active; 'I' for Inactive)
REMARK    1  A    between atoms: C9_12  and  O4_25
REMARK    2  A    between atoms: C10_14  and  O3_24
REMARK                            x       y       z     vdW  Elec       q    Type
REMARK                         _______ _______ _______ _____ _____    ______ ____
ROOT
ATOM      1  C   UNL     1      55.831  31.641   2.120  0.00  0.00    +0.062 A 
ATOM      2  C   UNL     1      54.815  32.151   2.929  0.00  0.00    -0.120 A 
ATOM      3  C   UNL     1      55.103  32.720   4.157  0.00  0.00    -0.071 A 
ATOM      4  C   UNL     1      54.015  33.347   4.958  0.00  0.00    +0.069 C 
ATOM      5  C   UNL     1      54.201  33.314   6.465  0.00  0.00    +0.212 C 
ATOM      8  C   UNL     1      53.101  34.105   7.169  0.00  0.00    +0.182 C 
ATOM     11  C   UNL     1      51.878  34.340   6.332  0.00  0.00    +0.036 C 
ATOM     12  C   UNL     1      51.687  33.766   5.190  0.00  0.00    -0.155 C 
ATOM     13  C   UNL     1      50.653  33.921   4.104  0.00  0.00    +0.143 C 
ATOM     14  C   UNL     1      51.447  33.557   2.823  0.00  0.00    +0.278 C 
ATOM     15  N   UNL     1      52.399  32.553   3.263  0.00  0.00    -0.367 N 
ATOM     16  H   UNL     1      51.773  31.762   3.302  0.00  0.00    +0.411 HD
ATOM     17  C   UNL     1      52.662  32.686   4.677  0.00  0.00    +0.207 C 
ATOM     18  C   UNL     1      56.406  32.762   4.649  0.00  0.00    +0.102 A 
ATOM     19  C   UNL     1      57.417  32.252   3.851  0.00  0.00    +0.053 A 
ATOM     20  O   UNL     1      58.749  32.172   4.070  0.00  0.00    -0.296 OA
ATOM     21  C   UNL     1      59.338  31.937   2.773  0.00  0.00    +0.450 C 
ATOM     22  O   UNL     1      58.288  31.292   2.023  0.00  0.00    -0.298 OA
ATOM     23  C   UNL     1      53.403  32.030   2.417  0.00  0.00    +0.337 C 
ATOM     24  C   UNL     1      57.131  31.702   2.592  0.00  0.00    +0.051 A 
ENDROOT
BRANCH   5   6
ATOM      6  O   UNL     1      55.470  33.883   6.793  0.00  0.00    -0.532 OA
ATOM      7  H   UNL     1      55.415  34.767   7.183  0.00  0.00    +0.395 HD
ENDBRANCH   5   6
BRANCH   8   9
ATOM      9  O   UNL     1      53.632  35.373   7.558  0.00  0.00    -0.539 OA
ATOM     10  H   UNL     1      54.541  35.335   7.883  0.00  0.00    +0.391 HD
ENDBRANCH   8   9
TORSDOF 2
ENDMDL
MODEL 3
REMARK VINA RESULT:      -5.6      4.333      6.943
REMARK  Name = ZINC33832344
REMARK  2 active torsions:
REMARK  status: ('A' for Active; 'I' for Inactive)
REMARK    1  A    between atoms: C9_12  and  O4_25
REMARK    2  A    between atoms: C10_14  and  O3_24
REMARK                            x       y       z     vdW  Elec       q    Type
REMARK                         _______ _______ _______ _____ _____    ______ ____
ROOT
ATOM      1  C   UNL     1      45.335  21.758  19.810  0.00  0.00    +0.062 A 
ATOM      2  C   UNL     1      46.366  20.877  19.479  0.00  0.00    -0.120 A 
ATOM      3  C   UNL     1      46.102  19.691  18.817  0.00  0.00    -0.071 A 
ATOM      4  C   UNL     1      47.227  18.816  18.386  0.00  0.00    +0.069 C 
ATOM      5  C   UNL     1      46.921  17.329  18.323  0.00  0.00    +0.212 C 
ATOM      8  C   UNL     1      48.098  16.553  17.738  0.00  0.00    +0.182 C 
ATOM     11  C   UNL     1      49.405  17.289  17.781  0.00  0.00    +0.036 C 
ATOM     12  C   UNL     1      49.567  18.398  18.425  0.00  0.00    -0.155 C 
ATOM     13  C   UNL     1      50.693  19.396  18.518  0.00  0.00    +0.143 C 
ATOM     14  C   UNL     1      49.945  20.730  18.768  0.00  0.00    +0.278 C 
ATOM     15  N   UNL     1      48.780  20.350  19.548  0.00  0.00    -0.367 N 
ATOM     16  H   UNL     1      49.231  20.240  20.444  0.00  0.00    +0.411 HD
ATOM     17  C   UNL     1      48.439  18.966  19.311  0.00  0.00    +0.207 C 
ATOM     18  C   UNL     1      44.799  19.312  18.501  0.00  0.00    +0.102 A 
ATOM     19  C   UNL     1      43.773  20.181  18.832  0.00  0.00    +0.053 A 
ATOM     20  O   UNL     1      42.438  20.074  18.640  0.00  0.00    -0.296 OA
ATOM     21  C   UNL     1      41.917  21.410  18.804  0.00  0.00    +0.450 C 
ATOM     22  O   UNL     1      42.873  22.054  19.672  0.00  0.00    -0.298 OA
ATOM     23  C   UNL     1      47.761  21.265  19.895  0.00  0.00    +0.337 C 
ATOM     24  C   UNL     1      44.041  21.399  19.476  0.00  0.00    +0.051 A 
ENDROOT
BRANCH   5   6
ATOM      6  O   UNL     1      45.769  17.122  17.504  0.00  0.00    -0.532 OA
ATOM      7  H   UNL     1      44.956  16.956  18.002  0.00  0.00    +0.395 HD
ENDBRANCH   5   6
BRANCH   8   9
ATOM      9  O   UNL     1      47.802  16.238  16.376  0.00  0.00    -0.539 OA
ATOM     10  H   UNL     1      47.602  15.305  16.223  0.00  0.00    +0.391 HD
ENDBRANCH   8   9
TORSDOF 2
ENDMDL
MODEL 4
REMARK VINA RESULT:      -5.3      3.944      5.309
REMARK  Name = ZINC33832344
REMARK  2 active torsions:
REMARK  status: ('A' for Active; 'I' for Inactive)
REMARK    1  A    between atoms: C9_12  and  O4_25
REMARK    2  A    between atoms: C10_14  and  O3_24
REMARK                            x       y       z     vdW  Elec       q    Type
REMARK                         _______ _______ _______ _____ _____    ______ ____
ROOT
ATOM      1  C   UNL     1      48.865  17.557  18.426  0.00  0.00    +0.062 A 
ATOM      2  C   UNL     1      48.274  18.672  19.023  0.00  0.00    -0.120 A 
ATOM      3  C   UNL     1      46.939  18.964  18.816  0.00  0.00    -0.071 A 
ATOM      4  C   UNL     1      46.306  20.100  19.542  0.00  0.00    +0.069 C 
ATOM      5  C   UNL     1      45.156  20.785  18.824  0.00  0.00    +0.212 C 
ATOM      8  C   UNL     1      44.501  21.835  19.718  0.00  0.00    +0.182 C 
ATOM     11  C   UNL     1      45.354  22.286  20.867  0.00  0.00    +0.036 C 
ATOM     12  C   UNL     1      46.600  21.965  20.986  0.00  0.00    -0.155 C 
ATOM     13  C   UNL     1      47.627  22.151  22.074  0.00  0.00    +0.143 C 
ATOM     14  C   UNL     1      48.546  20.916  21.890  0.00  0.00    +0.278 C 
ATOM     15  N   UNL     1      48.531  20.666  20.460  0.00  0.00    -0.367 N 
ATOM     16  H   UNL     1      49.170  21.395  20.176  0.00  0.00    +0.411 HD
ATOM     17  C   UNL     1      47.327  21.196  19.863  0.00  0.00    +0.207 C 
ATOM     18  C   UNL     1      46.149  18.187  17.971  0.00  0.00    +0.102 A 
ATOM     19  C   UNL     1      46.733  17.083  17.372  0.00  0.00    +0.053 A 
ATOM     20  O   UNL     1      46.209  16.165  16.527  0.00  0.00    -0.296 OA
ATOM     21  C   UNL     1      47.125  15.050  16.554  0.00  0.00    +0.450 C 
ATOM     22  O   UNL     1      48.390  15.644  16.914  0.00  0.00    -0.298 OA
ATOM     23  C   UNL     1      49.160  19.545  19.874  0.00  0.00    +0.337 C 
ATOM     24  C   UNL     1      48.080  16.766  17.604  0.00  0.00    +0.051 A 
ENDROOT
BRANCH   5   6
ATOM      6  O   UNL     1      44.182  19.806  18.458  0.00  0.00    -0.532 OA
ATOM      7  H   UNL     1      44.552  19.031  18.013  0.00  0.00    +0.395 HD
ENDBRANCH   5   6
BRANCH   8   9
ATOM      9  O   UNL     1      43.288  21.290  20.243  0.00  0.00    -0.539 OA
ATOM     10  H   UNL     1      43.001  20.478  19.805  0.00  0.00    +0.391 HD
ENDBRANCH   8   9
TORSDOF 2
ENDMDL
MODEL 5
REMARK VINA RESULT:      -5.2     19.697     21.695
REMARK  Name = ZINC33832344
REMARK  2 active torsions:
REMARK  status: ('A' for Active; 'I' for Inactive)
REMARK    1  A    between atoms: C9_12  and  O4_25
REMARK    2  A    between atoms: C10_14  and  O3_24
REMARK                            x       y       z     vdW  Elec       q    Type
REMARK                         _______ _______ _______ _____ _____    ______ ____
ROOT
ATOM      1  C   UNL     1      54.306  32.621   0.536  0.00  0.00    +0.062 A 
ATOM      2  C   UNL     1      54.082  32.902   1.885  0.00  0.00    -0.120 A 
ATOM      3  C   UNL     1      52.833  32.716   2.451  0.00  0.00    -0.071 A 
ATOM      4  C   UNL     1      52.642  32.927   3.913  0.00  0.00    +0.069 C 
ATOM      5  C   UNL     1      51.258  33.384   4.340  0.00  0.00    +0.212 C 
ATOM      8  C   UNL     1      51.142  33.429   5.861  0.00  0.00    +0.182 C 
ATOM     11  C   UNL     1      52.459  33.473   6.579  0.00  0.00    +0.036 C 
ATOM     12  C   UNL     1      53.586  33.651   5.971  0.00  0.00    -0.155 C 
ATOM     13  C   UNL     1      55.028  33.597   6.408  0.00  0.00    +0.143 C 
ATOM     14  C   UNL     1      55.756  33.129   5.122  0.00  0.00    +0.278 C 
ATOM     15  N   UNL     1      54.984  33.712   4.039  0.00  0.00    -0.367 N 
ATOM     16  H   UNL     1      55.336  34.656   4.097  0.00  0.00    +0.411 HD
ATOM     17  C   UNL     1      53.626  33.966   4.461  0.00  0.00    +0.207 C 
ATOM     18  C   UNL     1      51.748  32.289   1.689  0.00  0.00    +0.102 A 
ATOM     19  C   UNL     1      51.965  32.014   0.349  0.00  0.00    +0.053 A 
ATOM     20  O   UNL     1      51.110  31.585  -0.607  0.00  0.00    -0.296 OA
ATOM     21  C   UNL     1      51.944  31.092  -1.677  0.00  0.00    +0.450 C 
ATOM     22  O   UNL     1      53.176  31.829  -1.528  0.00  0.00    -0.298 OA
ATOM     23  C   UNL     1      55.246  33.435   2.679  0.00  0.00    +0.337 C 
ATOM     24  C   UNL     1      53.238  32.173  -0.221  0.00  0.00    +0.051 A 
ENDROOT
BRANCH   5   6
ATOM      6  O   UNL     1      50.284  32.474   3.823  0.00  0.00    -0.532 OA
ATOM      7  H   UNL     1      50.164  31.680   4.362  0.00  0.00    +0.395 HD
ENDBRANCH   5   6
BRANCH   8   9
ATOM      9  O   UNL     1      50.429  32.270   6.297  0.00  0.00    -0.539 OA
ATOM     10  H   UNL     1      49.792  31.935   5.652  0.00  0.00    +0.391 HD
ENDBRANCH   8   9
TORSDOF 2
ENDMDL
MODEL 6
REMARK VINA RESULT:      -5.1      2.506      5.695
REMARK  Name = ZINC33832344
REMARK  2 active torsions:
REMARK  status: ('A' for Active; 'I' for Inactive)
REMARK    1  A    between atoms: C9_12  and  O4_25
REMARK    2  A    between atoms: C10_14  and  O3_24
REMARK                            x       y       z     vdW  Elec       q    Type
REMARK                         _______ _______ _______ _____ _____    ______ ____
ROOT
ATOM      1  C   UNL     1      49.186  20.752  19.146  0.00  0.00    +0.062 A 
ATOM      2  C   UNL     1      48.271  19.697  19.152  0.00  0.00    -0.120 A 
ATOM      3  C   UNL     1      48.594  18.474  18.592  0.00  0.00    -0.071 A 
ATOM      4  C   UNL     1      47.642  17.334  18.698  0.00  0.00    +0.069 C 
ATOM      5  C   UNL     1      47.689  16.325  17.564  0.00  0.00    +0.212 C 
ATOM      8  C   UNL     1      46.774  15.136  17.852  0.00  0.00    +0.182 C 
ATOM     11  C   UNL     1      45.725  15.402  18.891  0.00  0.00    +0.036 C 
ATOM     12  C   UNL     1      45.488  16.581  19.365  0.00  0.00    -0.155 C 
ATOM     13  C   UNL     1      44.621  17.101  20.483  0.00  0.00    +0.143 C 
ATOM     14  C   UNL     1      45.397  18.356  20.961  0.00  0.00    +0.278 C 
ATOM     15  N   UNL     1      46.020  18.873  19.756  0.00  0.00    -0.367 N 
ATOM     16  H   UNL     1      45.211  19.321  19.351  0.00  0.00    +0.411 HD
ATOM     17  C   UNL     1      46.191  17.823  18.779  0.00  0.00    +0.207 C 
ATOM     18  C   UNL     1      49.819  18.266  17.962  0.00  0.00    +0.102 A 
ATOM     19  C   UNL     1      50.727  19.311  17.949  0.00  0.00    +0.053 A 
ATOM     20  O   UNL     1      51.972  19.384  17.425  0.00  0.00    -0.296 OA
ATOM     21  C   UNL     1      52.586  20.533  18.047  0.00  0.00    +0.450 C 
ATOM     22  O   UNL     1      51.470  21.378  18.400  0.00  0.00    -0.298 OA
ATOM     23  C   UNL     1      46.922  19.961  19.769  0.00  0.00    +0.337 C 
ATOM     24  C   UNL     1      50.414  20.544  18.543  0.00  0.00    +0.051 A 
ENDROOT
BRANCH   5   6
ATOM      6  O   UNL     1      49.030  15.857  17.408  0.00  0.00    -0.532 OA
ATOM      7  H   UNL     1      49.136  15.191  16.714  0.00  0.00    +0.395 HD
ENDBRANCH   5   6
BRANCH   8   9
ATOM      9  O   UNL     1      47.579  14.041  18.293  0.00  0.00    -0.539 OA
ATOM     10  H   UNL     1      47.877  14.116  19.209  0.00  0.00    +0.391 HD
ENDBRANCH   8   9
TORSDOF 2
ENDMDL
MODEL 7
REMARK VINA RESULT:      -5.1      2.528      5.951
REMARK  Name = ZINC33832344
REMARK  2 active torsions:
REMARK  status: ('A' for Active; 'I' for Inactive)
REMARK    1  A    between atoms: C9_12  and  O4_25
REMARK    2  A    between atoms: C10_14  and  O3_24
REMARK                            x       y       z     vdW  Elec       q    Type
REMARK                         _______ _______ _______ _____ _____    ______ ____
ROOT
ATOM      1  C   UNL     1      52.366  17.247  18.415  0.00  0.00    +0.062 A 
ATOM      2  C   UNL     1      51.398  16.273  18.167  0.00  0.00    -0.120 A 
ATOM      3  C   UNL     1      50.197  16.601  17.564  0.00  0.00    -0.071 A 
ATOM      4  C   UNL     1      49.222  15.530  17.219  0.00  0.00    +0.069 C 
ATOM      5  C   UNL     1      47.759  15.939  17.228  0.00  0.00    +0.212 C 
ATOM      8  C   UNL     1      46.871  14.804  16.725  0.00  0.00    +0.182 C 
ATOM     11  C   UNL     1      47.516  13.449  16.771  0.00  0.00    +0.036 C 
ATOM     12  C   UNL     1      48.645  13.228  17.358  0.00  0.00    -0.155 C 
ATOM     13  C   UNL     1      49.567  12.037  17.433  0.00  0.00    +0.143 C 
ATOM     14  C   UNL     1      50.962  12.694  17.584  0.00  0.00    +0.278 C 
ATOM     15  N   UNL     1      50.709  13.905  18.345  0.00  0.00    -0.367 N 
ATOM     16  H   UNL     1      50.619  13.490  19.260  0.00  0.00    +0.411 HD
ATOM     17  C   UNL     1      49.341  14.337  18.174  0.00  0.00    +0.207 C 
ATOM     18  C   UNL     1      49.892  17.918  17.226  0.00  0.00    +0.102 A 
ATOM     19  C   UNL     1      50.847  18.889  17.475  0.00  0.00    +0.053 A 
ATOM     20  O   UNL     1      50.822  20.222  17.245  0.00  0.00    -0.296 OA
ATOM     21  C   UNL     1      52.199  20.651  17.319  0.00  0.00    +0.450 C 
ATOM     22  O   UNL     1      52.824  19.677  18.181  0.00  0.00    -0.298 OA
ATOM     23  C   UNL     1      51.711  14.866  18.608  0.00  0.00    +0.337 C 
ATOM     24  C   UNL     1      52.079  18.554  18.060  0.00  0.00    +0.051 A 
ENDROOT
BRANCH   5   6
ATOM      6  O   UNL     1      47.586  17.079  16.384  0.00  0.00    -0.532 OA
ATOM      7  H   UNL     1      47.929  17.902  16.759  0.00  0.00    +0.395 HD
ENDBRANCH   5   6
BRANCH   8   9
ATOM      9  O   UNL     1      46.500  15.082  15.374  0.00  0.00    -0.539 OA
ATOM     10  H   UNL     1      46.317  14.293  14.846  0.00  0.00    +0.391 HD
ENDBRANCH   8   9
TORSDOF 2
ENDMDL
MODEL 8
REMARK VINA RESULT:      -5.1      3.296      5.466
REMARK  Name = ZINC33832344
REMARK  2 active torsions:
REMARK  status: ('A' for Active; 'I' for Inactive)
REMARK    1  A    between atoms: C9_12  and  O4_25
REMARK    2  A    between atoms: C10_14  and  O3_24
REMARK                            x       y       z     vdW  Elec       q    Type
REMARK                         _______ _______ _______ _____ _____    ______ ____
ROOT
ATOM      1  C   UNL     1      46.197  18.164  17.881  0.00  0.00    +0.062 A 
ATOM      2  C   UNL     1      47.591  18.077  17.869  0.00  0.00    -0.120 A 
ATOM      3  C   UNL     1      48.370  19.099  18.380  0.00  0.00    -0.071 A 
ATOM      4  C   UNL     1      49.849  18.942  18.447  0.00  0.00    +0.069 C 
ATOM      5  C   UNL     1      50.657  20.225  18.340  0.00  0.00    +0.212 C 
ATOM      8  C   UNL     1      52.143  19.955  18.562  0.00  0.00    +0.182 C 
ATOM     11  C   UNL     1      52.544  18.521  18.381  0.00  0.00    +0.036 C 
ATOM     12  C   UNL     1      51.750  17.624  17.894  0.00  0.00    -0.155 C 
ATOM     13  C   UNL     1      51.835  16.127  17.739  0.00  0.00    +0.143 C 
ATOM     14  C   UNL     1      50.352  15.689  17.845  0.00  0.00    +0.278 C 
ATOM     15  N   UNL     1      49.608  16.788  17.256  0.00  0.00    -0.367 N 
ATOM     16  H   UNL     1      49.777  16.577  16.283  0.00  0.00    +0.411 HD
ATOM     17  C   UNL     1      50.364  18.017  17.339  0.00  0.00    +0.207 C 
ATOM     18  C   UNL     1      47.798  20.267  18.880  0.00  0.00    +0.102 A 
ATOM     19  C   UNL     1      46.416  20.360  18.889  0.00  0.00    +0.053 A 
ATOM     20  O   UNL     1      45.608  21.356  19.317  0.00  0.00    -0.296 OA
ATOM     21  C   UNL     1      44.302  20.757  19.462  0.00  0.00    +0.450 C 
ATOM     22  O   UNL     1      44.319  19.651  18.535  0.00  0.00    -0.298 OA
ATOM     23  C   UNL     1      48.197  16.842  17.255  0.00  0.00    +0.337 C 
ATOM     24  C   UNL     1      45.621  19.311  18.399  0.00  0.00    +0.051 A 
ENDROOT
BRANCH   5   6
ATOM      6  O   UNL     1      50.196  21.152  19.325  0.00  0.00    -0.532 OA
ATOM      7  H   UNL     1      50.033  20.755  20.192  0.00  0.00    +0.395 HD
ENDBRANCH   5   6
BRANCH   8   9
ATOM      9  O   UNL     1      52.483  20.354  19.891  0.00  0.00    -0.539 OA
ATOM     10  H   UNL     1      53.214  20.985  19.937  0.00  0.00    +0.391 HD
ENDBRANCH   8   9
TORSDOF 2
ENDMDL
MODEL 9
REMARK VINA RESULT:      -5.1      3.904      6.366
REMARK  Name = ZINC33832344
REMARK  2 active torsions:
REMARK  status: ('A' for Active; 'I' for Inactive)
REMARK    1  A    between atoms: C9_12  and  O4_25
REMARK    2  A    between atoms: C10_14  and  O3_24
REMARK                            x       y       z     vdW  Elec       q    Type
REMARK                         _______ _______ _______ _____ _____    ______ ____
ROOT
ATOM      1  C   UNL     1      48.956  18.370  18.386  0.00  0.00    +0.062 A 
ATOM      2  C   UNL     1      47.881  18.658  19.228  0.00  0.00    -0.120 A 
ATOM      3  C   UNL     1      47.784  19.884  19.862  0.00  0.00    -0.071 A 
ATOM      4  C   UNL     1      46.579  20.206  20.676  0.00  0.00    +0.069 C 
ATOM      5  C   UNL     1      46.801  21.161  21.836  0.00  0.00    +0.212 C 
ATOM      8  C   UNL     1      45.477  21.524  22.505  0.00  0.00    +0.182 C 
ATOM     11  C   UNL     1      44.357  20.568  22.216  0.00  0.00    +0.036 C 
ATOM     12  C   UNL     1      44.535  19.438  21.615  0.00  0.00    -0.155 C 
ATOM     13  C   UNL     1      43.601  18.381  21.083  0.00  0.00    +0.143 C 
ATOM     14  C   UNL     1      44.394  17.798  19.885  0.00  0.00    +0.278 C 
ATOM     15  N   UNL     1      45.785  17.896  20.292  0.00  0.00    -0.367 N 
ATOM     16  H   UNL     1      45.813  17.101  20.914  0.00  0.00    +0.411 HD
ATOM     17  C   UNL     1      45.955  18.941  21.275  0.00  0.00    +0.207 C 
ATOM     18  C   UNL     1      48.775  20.853  19.721  0.00  0.00    +0.102 A 
ATOM     19  C   UNL     1      49.846  20.570  18.890  0.00  0.00    +0.053 A 
ATOM     20  O   UNL     1      50.927  21.316  18.568  0.00  0.00    -0.296 OA
ATOM     21  C   UNL     1      51.480  20.703  17.384  0.00  0.00    +0.450 C 
ATOM     22  O   UNL     1      51.060  19.326  17.474  0.00  0.00    -0.298 OA
ATOM     23  C   UNL     1      46.857  17.572  19.431  0.00  0.00    +0.337 C 
ATOM     24  C   UNL     1      49.932  19.338  18.221  0.00  0.00    +0.051 A 
ENDROOT
BRANCH   5   6
ATOM      6  O   UNL     1      47.421  22.353  21.349  0.00  0.00    -0.532 OA
ATOM      7  H   UNL     1      48.182  22.642  21.872  0.00  0.00    +0.395 HD
ENDBRANCH   5   6
BRANCH   8   9
ATOM      9  O   UNL     1      45.086  22.825  22.062  0.00  0.00    -0.539 OA
ATOM     10  H   UNL     1      45.437  23.546  22.603  0.00  0.00    +0.391 HD
ENDBRANCH   8   9
TORSDOF 2
ENDMDL
