MODEL 1
REMARK VINA RESULT:      -6.5      0.000      0.000
REMARK  Name = ZINC95486305
REMARK  14 active torsions:
REMARK  status: ('A' for Active; 'I' for Inactive)
REMARK    1  A    between atoms: C1_1  and  C2_2
REMARK    2  A    between atoms: C2_2  and  O2_4
REMARK    3  A    between atoms: O2_4  and  C3_5
REMARK    4  A    between atoms: C3_5  and  C4_6
REMARK    5  A    between atoms: C5_7  and  C6_8
REMARK    6  A    between atoms: C6_8  and  C7_10
REMARK    7  A    between atoms: C7_10  and  C8_11
REMARK    8  A    between atoms: C9_13  and  O7_41
REMARK    9  A    between atoms: C11_16  and  C29_40
REMARK   10  A    between atoms: C12_17  and  C28_39
REMARK   11  A    between atoms: C15_21  and  C27_38
REMARK   12  A    between atoms: C22_30  and  O6_37
REMARK   13  A    between atoms: C24_34  and  C25_35
REMARK   14  A    between atoms: C24_34  and  C26_36
REMARK                            x       y       z     vdW  Elec       q    Type
REMARK                         _______ _______ _______ _____ _____    ______ ____
ROOT
ATOM      9  C   UNL     1      46.759  18.867  20.472  0.00  0.00    +0.025 C 
ATOM     10  C   UNL     1      48.210  19.404  20.361  0.00  0.00    +0.176 C 
ATOM     13  C   UNL     1      48.947  18.473  19.353  0.00  0.00    +0.013 C 
ATOM     14  C   UNL     1      48.080  17.200  19.419  0.00  0.00    -0.040 C 
ATOM     15  C   UNL     1      48.289  16.607  20.836  0.00  0.00    +0.022 C 
ATOM     16  C   UNL     1      48.349  16.112  18.453  0.00  0.00    +0.006 C 
ATOM     17  C   UNL     1      49.351  16.351  17.336  0.00  0.00    +0.087 C 
ATOM     18  C   UNL     1      49.677  14.989  16.761  0.00  0.00    -0.041 C 
ATOM     19  C   UNL     1      48.884  13.949  16.843  0.00  0.00    -0.095 C 
ATOM     20  C   UNL     1      47.569  13.968  17.577  0.00  0.00    +0.069 C 
ATOM     21  C   UNL     1      46.498  13.228  16.784  0.00  0.00    +0.074 C 
ATOM     22  C   UNL     1      46.929  11.758  16.666  0.00  0.00    +0.150 C 
ATOM     25  C   UNL     1      48.219  11.723  15.887  0.00  0.00    +0.339 C 
ATOM     26  O   UNL     1      48.345  10.918  14.979  0.00  0.00    -0.446 OA
ATOM     27  C   UNL     1      49.357  12.657  16.205  0.00  0.00    -0.064 C 
ATOM     28  C   UNL     1      50.337  11.954  17.159  0.00  0.00    +0.067 C 
ATOM     29  C   UNL     1      50.096  12.955  14.887  0.00  0.00    +0.057 C 
ATOM     30  C   UNL     1      47.127  15.400  17.888  0.00  0.00    -0.080 C 
ATOM     31  C   UNL     1      46.678  16.005  16.562  0.00  0.00    +0.055 C 
ATOM     32  C   UNL     1      45.993  15.451  18.873  0.00  0.00    +0.374 C 
ATOM     33  O   UNL     1      45.388  14.429  19.161  0.00  0.00    -0.451 OA
ATOM     34  C   UNL     1      45.599  16.766  19.526  0.00  0.00    +0.050 C 
ATOM     35  C   UNL     1      46.667  17.810  19.348  0.00  0.00    -0.045 C 
ATOM     36  C   UNL     1      46.438  18.615  18.063  0.00  0.00    +0.041 C 
ENDROOT
BRANCH  10  11
ATOM     11  O   UNL     1      48.198  20.745  19.867  0.00  0.00    -0.563 OA
ATOM     12  H   UNL     1      48.069  20.810  18.911  0.00  0.00    +0.377 HD
ENDBRANCH  10  11
BRANCH  22  23
ATOM     23  O   UNL     1      47.116  11.201  17.965  0.00  0.00    -0.534 OA
ATOM     24  H   UNL     1      47.908  11.520  18.420  0.00  0.00    +0.381 HD
ENDBRANCH  22  23
BRANCH   9   8
ATOM      8  C   UNL     1      45.762  19.992  20.183  0.00  0.00    +0.056 C 
BRANCH   8   7
ATOM      7  C   UNL     1      44.733  20.047  21.284  0.00  0.00    +0.394 C 
ATOM     37  O   UNL     1      45.088  20.122  22.442  0.00  0.00    -0.456 OA
BRANCH   7   6
ATOM      5  C   UNL     1      42.890  19.344  19.877  0.00  0.00    +0.067 C 
ATOM      6  C   UNL     1      43.308  20.009  20.956  0.00  0.00    -0.086 C 
BRANCH   5   4
ATOM      4  C   UNL     1      41.422  19.305  19.540  0.00  0.00    +0.256 C 
BRANCH   4   3
ATOM      3  O   UNL     1      41.178  20.098  18.376  0.00  0.00    -0.350 OA
BRANCH   3   2
ATOM      1  C   UNL     1      39.176  21.528  18.569  0.00  0.00    +0.161 C 
ATOM      2  C   UNL     1      40.669  21.325  18.570  0.00  0.00    +0.461 C 
ATOM     38  O   UNL     1      41.407  22.265  18.745  0.00  0.00    -0.510 OA
ENDBRANCH   3   2
ENDBRANCH   4   3
ENDBRANCH   5   4
ENDBRANCH   7   6
ENDBRANCH   8   7
ENDBRANCH   9   8
TORSDOF 8
ENDMDL
MODEL 2
REMARK VINA RESULT:      -6.3      2.576      8.274
REMARK  Name = ZINC95486305
REMARK  14 active torsions:
REMARK  status: ('A' for Active; 'I' for Inactive)
REMARK    1  A    between atoms: C1_1  and  C2_2
REMARK    2  A    between atoms: C2_2  and  O2_4
REMARK    3  A    between atoms: O2_4  and  C3_5
REMARK    4  A    between atoms: C3_5  and  C4_6
REMARK    5  A    between atoms: C5_7  and  C6_8
REMARK    6  A    between atoms: C6_8  and  C7_10
REMARK    7  A    between atoms: C7_10  and  C8_11
REMARK    8  A    between atoms: C9_13  and  O7_41
REMARK    9  A    between atoms: C11_16  and  C29_40
REMARK   10  A    between atoms: C12_17  and  C28_39
REMARK   11  A    between atoms: C15_21  and  C27_38
REMARK   12  A    between atoms: C22_30  and  O6_37
REMARK   13  A    between atoms: C24_34  and  C25_35
REMARK   14  A    between atoms: C24_34  and  C26_36
REMARK                            x       y       z     vdW  Elec       q    Type
REMARK                         _______ _______ _______ _____ _____    ______ ____
ROOT
ATOM      9  C   UNL     1      49.885  15.644  19.454  0.00  0.00    +0.025 C 
ATOM     10  C   UNL     1      49.070  14.463  20.041  0.00  0.00    +0.176 C 
ATOM     13  C   UNL     1      47.590  14.942  20.112  0.00  0.00    +0.013 C 
ATOM     14  C   UNL     1      47.763  16.474  20.116  0.00  0.00    -0.040 C 
ATOM     15  C   UNL     1      48.432  16.831  21.468  0.00  0.00    +0.022 C 
ATOM     16  C   UNL     1      46.554  17.321  19.997  0.00  0.00    +0.006 C 
ATOM     17  C   UNL     1      45.218  16.658  19.713  0.00  0.00    +0.087 C 
ATOM     18  C   UNL     1      44.159  17.700  20.007  0.00  0.00    -0.041 C 
ATOM     19  C   UNL     1      44.372  18.992  19.980  0.00  0.00    -0.095 C 
ATOM     20  C   UNL     1      45.724  19.601  19.709  0.00  0.00    +0.069 C 
ATOM     21  C   UNL     1      45.596  20.805  18.782  0.00  0.00    +0.074 C 
ATOM     22  C   UNL     1      44.757  21.870  19.503  0.00  0.00    +0.150 C 
ATOM     25  C   UNL     1      43.385  21.289  19.734  0.00  0.00    +0.339 C 
ATOM     26  O   UNL     1      42.402  21.959  19.465  0.00  0.00    -0.446 OA
ATOM     27  C   UNL     1      43.200  19.902  20.291  0.00  0.00    -0.064 C 
ATOM     28  C   UNL     1      43.021  19.990  21.816  0.00  0.00    +0.067 C 
ATOM     29  C   UNL     1      41.906  19.327  19.685  0.00  0.00    +0.057 C 
ATOM     30  C   UNL     1      46.693  18.567  19.131  0.00  0.00    -0.080 C 
ATOM     31  C   UNL     1      46.243  18.316  17.696  0.00  0.00    +0.055 C 
ATOM     32  C   UNL     1      48.117  19.048  19.135  0.00  0.00    +0.374 C 
ATOM     33  O   UNL     1      48.363  20.224  19.359  0.00  0.00    -0.451 OA
ATOM     34  C   UNL     1      49.258  18.079  18.873  0.00  0.00    +0.050 C 
ATOM     35  C   UNL     1      48.804  16.650  18.994  0.00  0.00    -0.045 C 
ATOM     36  C   UNL     1      48.310  16.114  17.645  0.00  0.00    +0.041 C 
ENDROOT
BRANCH  10  11
ATOM     11  O   UNL     1      49.172  13.325  19.183  0.00  0.00    -0.563 OA
ATOM     12  H   UNL     1      48.320  12.987  18.875  0.00  0.00    +0.377 HD
ENDBRANCH  10  11
BRANCH  22  23
ATOM     23  O   UNL     1      45.369  22.210  20.746  0.00  0.00    -0.534 OA
ATOM     24  H   UNL     1      46.314  22.407  20.678  0.00  0.00    +0.381 HD
ENDBRANCH  22  23
BRANCH   9   8
ATOM      8  C   UNL     1      50.681  15.175  18.234  0.00  0.00    +0.056 C 
BRANCH   8   7
ATOM      7  C   UNL     1      52.062  15.778  18.272  0.00  0.00    +0.394 C 
ATOM     37  O   UNL     1      52.959  15.203  18.854  0.00  0.00    -0.456 OA
BRANCH   7   6
ATOM      5  C   UNL     1      51.662  17.373  16.493  0.00  0.00    +0.067 C 
ATOM      6  C   UNL     1      52.321  17.055  17.608  0.00  0.00    -0.086 C 
BRANCH   5   4
ATOM      4  C   UNL     1      51.928  18.690  15.810  0.00  0.00    +0.256 C 
BRANCH   4   3
ATOM      3  O   UNL     1      52.495  19.608  16.749  0.00  0.00    -0.350 OA
BRANCH   3   2
ATOM      1  C   UNL     1      51.474  21.126  18.406  0.00  0.00    +0.161 C 
ATOM      2  C   UNL     1      51.807  20.735  16.989  0.00  0.00    +0.461 C 
ATOM     38  O   UNL     1      51.454  21.435  16.070  0.00  0.00    -0.510 OA
ENDBRANCH   3   2
ENDBRANCH   4   3
ENDBRANCH   5   4
ENDBRANCH   7   6
ENDBRANCH   8   7
ENDBRANCH   9   8
TORSDOF 8
ENDMDL
MODEL 3
REMARK VINA RESULT:      -6.3      4.032      8.517
REMARK  Name = ZINC95486305
REMARK  14 active torsions:
REMARK  status: ('A' for Active; 'I' for Inactive)
REMARK    1  A    between atoms: C1_1  and  C2_2
REMARK    2  A    between atoms: C2_2  and  O2_4
REMARK    3  A    between atoms: O2_4  and  C3_5
REMARK    4  A    between atoms: C3_5  and  C4_6
REMARK    5  A    between atoms: C5_7  and  C6_8
REMARK    6  A    between atoms: C6_8  and  C7_10
REMARK    7  A    between atoms: C7_10  and  C8_11
REMARK    8  A    between atoms: C9_13  and  O7_41
REMARK    9  A    between atoms: C11_16  and  C29_40
REMARK   10  A    between atoms: C12_17  and  C28_39
REMARK   11  A    between atoms: C15_21  and  C27_38
REMARK   12  A    between atoms: C22_30  and  O6_37
REMARK   13  A    between atoms: C24_34  and  C25_35
REMARK   14  A    between atoms: C24_34  and  C26_36
REMARK                            x       y       z     vdW  Elec       q    Type
REMARK                         _______ _______ _______ _____ _____    ______ ____
ROOT
ATOM      9  C   UNL     1      46.926  12.935  17.868  0.00  0.00    +0.025 C 
ATOM     10  C   UNL     1      46.047  13.218  19.114  0.00  0.00    +0.176 C 
ATOM     13  C   UNL     1      46.465  14.625  19.636  0.00  0.00    +0.013 C 
ATOM     14  C   UNL     1      47.878  14.769  19.035  0.00  0.00    -0.040 C 
ATOM     15  C   UNL     1      48.764  13.723  19.760  0.00  0.00    +0.022 C 
ATOM     16  C   UNL     1      48.566  16.074  19.155  0.00  0.00    +0.006 C 
ATOM     17  C   UNL     1      47.800  17.260  19.714  0.00  0.00    +0.087 C 
ATOM     18  C   UNL     1      48.836  18.312  20.049  0.00  0.00    -0.041 C 
ATOM     19  C   UNL     1      50.018  18.383  19.488  0.00  0.00    -0.095 C 
ATOM     20  C   UNL     1      50.515  17.383  18.477  0.00  0.00    +0.069 C 
ATOM     21  C   UNL     1      51.247  18.085  17.340  0.00  0.00    +0.074 C 
ATOM     22  C   UNL     1      52.482  18.781  17.930  0.00  0.00    +0.150 C 
ATOM     25  C   UNL     1      51.994  19.822  18.906  0.00  0.00    +0.339 C 
ATOM     26  O   UNL     1      52.469  20.944  18.867  0.00  0.00    -0.446 OA
ATOM     27  C   UNL     1      50.936  19.506  19.932  0.00  0.00    -0.064 C 
ATOM     28  C   UNL     1      51.615  19.109  21.253  0.00  0.00    +0.067 C 
ATOM     29  C   UNL     1      50.125  20.792  20.172  0.00  0.00    +0.057 C 
ATOM     30  C   UNL     1      49.370  16.520  17.941  0.00  0.00    -0.080 C 
ATOM     31  C   UNL     1      48.555  17.420  17.018  0.00  0.00    +0.055 C 
ATOM     32  C   UNL     1      49.862  15.325  17.173  0.00  0.00    +0.374 C 
ATOM     33  O   UNL     1      51.037  15.249  16.849  0.00  0.00    -0.451 OA
ATOM     34  C   UNL     1      48.907  14.200  16.805  0.00  0.00    +0.050 C 
ATOM     35  C   UNL     1      47.629  14.285  17.594  0.00  0.00    -0.045 C 
ATOM     36  C   UNL     1      46.586  15.135  16.860  0.00  0.00    +0.041 C 
ENDROOT
BRANCH  10  11
ATOM     11  O   UNL     1      44.666  13.226  18.746  0.00  0.00    -0.563 OA
ATOM     12  H   UNL     1      44.091  13.663  19.389  0.00  0.00    +0.377 HD
ENDBRANCH  10  11
BRANCH  22  23
ATOM     23  O   UNL     1      53.308  17.825  18.592  0.00  0.00    -0.534 OA
ATOM     24  H   UNL     1      53.336  16.962  18.159  0.00  0.00    +0.381 HD
ENDBRANCH  22  23
BRANCH   9   8
ATOM      8  C   UNL     1      46.038  12.583  16.672  0.00  0.00    +0.056 C 
BRANCH   8   7
ATOM      7  C   UNL     1      46.606  11.381  15.961  0.00  0.00    +0.394 C 
ATOM     37  O   UNL     1      46.120  10.283  16.141  0.00  0.00    -0.456 OA
BRANCH   7   6
ATOM      5  C   UNL     1      48.848  10.812  15.240  0.00  0.00    +0.067 C 
ATOM      6  C   UNL     1      47.743  11.537  15.054  0.00  0.00    -0.086 C 
BRANCH   5   4
ATOM      4  C   UNL     1      50.019  10.972  14.306  0.00  0.00    +0.256 C 
BRANCH   4   3
ATOM      3  O   UNL     1      50.810  12.089  14.719  0.00  0.00    -0.350 OA
BRANCH   3   2
ATOM      1  C   UNL     1      50.429  13.001  12.457  0.00  0.00    +0.161 C 
ATOM      2  C   UNL     1      51.173  12.963  13.767  0.00  0.00    +0.461 C 
ATOM     38  O   UNL     1      52.095  13.719  13.960  0.00  0.00    -0.510 OA
ENDBRANCH   3   2
ENDBRANCH   4   3
ENDBRANCH   5   4
ENDBRANCH   7   6
ENDBRANCH   8   7
ENDBRANCH   9   8
TORSDOF 8
ENDMDL
MODEL 4
REMARK VINA RESULT:      -5.9      2.779      8.953
REMARK  Name = ZINC95486305
REMARK  14 active torsions:
REMARK  status: ('A' for Active; 'I' for Inactive)
REMARK    1  A    between atoms: C1_1  and  C2_2
REMARK    2  A    between atoms: C2_2  and  O2_4
REMARK    3  A    between atoms: O2_4  and  C3_5
REMARK    4  A    between atoms: C3_5  and  C4_6
REMARK    5  A    between atoms: C5_7  and  C6_8
REMARK    6  A    between atoms: C6_8  and  C7_10
REMARK    7  A    between atoms: C7_10  and  C8_11
REMARK    8  A    between atoms: C9_13  and  O7_41
REMARK    9  A    between atoms: C11_16  and  C29_40
REMARK   10  A    between atoms: C12_17  and  C28_39
REMARK   11  A    between atoms: C15_21  and  C27_38
REMARK   12  A    between atoms: C22_30  and  O6_37
REMARK   13  A    between atoms: C24_34  and  C25_35
REMARK   14  A    between atoms: C24_34  and  C26_36
REMARK                            x       y       z     vdW  Elec       q    Type
REMARK                         _______ _______ _______ _____ _____    ______ ____
ROOT
ATOM      9  C   UNL     1      50.470  15.684  17.640  0.00  0.00    +0.025 C 
ATOM     10  C   UNL     1      51.170  16.813  16.841  0.00  0.00    +0.176 C 
ATOM     13  C   UNL     1      50.618  18.156  17.402  0.00  0.00    +0.013 C 
ATOM     14  C   UNL     1      49.286  17.703  18.031  0.00  0.00    -0.040 C 
ATOM     15  C   UNL     1      48.371  17.282  16.852  0.00  0.00    +0.022 C 
ATOM     16  C   UNL     1      48.521  18.676  18.843  0.00  0.00    +0.006 C 
ATOM     17  C   UNL     1      49.148  20.022  19.161  0.00  0.00    +0.087 C 
ATOM     18  C   UNL     1      48.025  20.903  19.665  0.00  0.00    -0.041 C 
ATOM     19  C   UNL     1      46.921  20.448  20.204  0.00  0.00    -0.095 C 
ATOM     20  C   UNL     1      46.606  18.980  20.331  0.00  0.00    +0.069 C 
ATOM     21  C   UNL     1      45.986  18.678  21.690  0.00  0.00    +0.074 C 
ATOM     22  C   UNL     1      44.653  19.435  21.781  0.00  0.00    +0.150 C 
ATOM     25  C   UNL     1      44.960  20.909  21.707  0.00  0.00    +0.339 C 
ATOM     26  O   UNL     1      44.437  21.668  22.505  0.00  0.00    -0.446 OA
ATOM     27  C   UNL     1      45.897  21.467  20.667  0.00  0.00    -0.064 C 
ATOM     28  C   UNL     1      45.080  21.947  19.456  0.00  0.00    +0.067 C 
ATOM     29  C   UNL     1      46.604  22.687  21.286  0.00  0.00    +0.057 C 
ATOM     30  C   UNL     1      47.852  18.124  20.096  0.00  0.00    -0.080 C 
ATOM     31  C   UNL     1      48.729  18.297  21.332  0.00  0.00    +0.055 C 
ATOM     32  C   UNL     1      47.524  16.668  19.912  0.00  0.00    +0.374 C 
ATOM     33  O   UNL     1      46.403  16.258  20.176  0.00  0.00    -0.451 OA
ATOM     34  C   UNL     1      48.574  15.701  19.389  0.00  0.00    +0.050 C 
ATOM     35  C   UNL     1      49.737  16.433  18.777  0.00  0.00    -0.045 C 
ATOM     36  C   UNL     1      50.818  16.719  19.826  0.00  0.00    +0.041 C 
ENDROOT
BRANCH  10  11
ATOM     11  O   UNL     1      52.584  16.747  17.038  0.00  0.00    -0.563 OA
ATOM     12  H   UNL     1      52.998  17.604  17.208  0.00  0.00    +0.377 HD
ENDBRANCH  10  11
BRANCH  22  23
ATOM     23  O   UNL     1      43.802  19.048  20.704  0.00  0.00    -0.534 OA
ATOM     24  H   UNL     1      44.274  18.708  19.932  0.00  0.00    +0.381 HD
ENDBRANCH  22  23
BRANCH   9   8
ATOM      8  C   UNL     1      51.517  14.749  18.251  0.00  0.00    +0.056 C 
BRANCH   8   7
ATOM      7  C   UNL     1      51.343  13.362  17.688  0.00  0.00    +0.394 C 
ATOM     37  O   UNL     1      51.826  12.408  18.264  0.00  0.00    -0.456 OA
BRANCH   7   6
ATOM      5  C   UNL     1      51.219  12.731  15.352  0.00  0.00    +0.067 C 
ATOM      6  C   UNL     1      50.593  13.164  16.448  0.00  0.00    -0.086 C 
BRANCH   5   4
ATOM      4  C   UNL     1      50.446  12.527  14.075  0.00  0.00    +0.256 C 
BRANCH   4   3
ATOM      3  O   UNL     1      51.151  13.131  12.988  0.00  0.00    -0.350 OA
BRANCH   3   2
ATOM      1  C   UNL     1      51.251  12.732  10.555  0.00  0.00    +0.161 C 
ATOM      2  C   UNL     1      50.525  13.168  11.802  0.00  0.00    +0.461 C 
ATOM     38  O   UNL     1      49.382  13.551  11.733  0.00  0.00    -0.510 OA
ENDBRANCH   3   2
ENDBRANCH   4   3
ENDBRANCH   5   4
ENDBRANCH   7   6
ENDBRANCH   8   7
ENDBRANCH   9   8
TORSDOF 8
ENDMDL
MODEL 5
REMARK VINA RESULT:      -5.8      2.512      8.085
REMARK  Name = ZINC95486305
REMARK  14 active torsions:
REMARK  status: ('A' for Active; 'I' for Inactive)
REMARK    1  A    between atoms: C1_1  and  C2_2
REMARK    2  A    between atoms: C2_2  and  O2_4
REMARK    3  A    between atoms: O2_4  and  C3_5
REMARK    4  A    between atoms: C3_5  and  C4_6
REMARK    5  A    between atoms: C5_7  and  C6_8
REMARK    6  A    between atoms: C6_8  and  C7_10
REMARK    7  A    between atoms: C7_10  and  C8_11
REMARK    8  A    between atoms: C9_13  and  O7_41
REMARK    9  A    between atoms: C11_16  and  C29_40
REMARK   10  A    between atoms: C12_17  and  C28_39
REMARK   11  A    between atoms: C15_21  and  C27_38
REMARK   12  A    between atoms: C22_30  and  O6_37
REMARK   13  A    between atoms: C24_34  and  C25_35
REMARK   14  A    between atoms: C24_34  and  C26_36
REMARK                            x       y       z     vdW  Elec       q    Type
REMARK                         _______ _______ _______ _____ _____    ______ ____
ROOT
ATOM      9  C   UNL     1      50.439  15.774  17.737  0.00  0.00    +0.025 C 
ATOM     10  C   UNL     1      51.179  16.892  16.959  0.00  0.00    +0.176 C 
ATOM     13  C   UNL     1      50.642  18.244  17.515  0.00  0.00    +0.013 C 
ATOM     14  C   UNL     1      49.288  17.815  18.114  0.00  0.00    -0.040 C 
ATOM     15  C   UNL     1      48.391  17.418  16.914  0.00  0.00    +0.022 C 
ATOM     16  C   UNL     1      48.527  18.799  18.914  0.00  0.00    +0.006 C 
ATOM     17  C   UNL     1      49.174  20.131  19.252  0.00  0.00    +0.087 C 
ATOM     18  C   UNL     1      48.059  21.033  19.737  0.00  0.00    -0.041 C 
ATOM     19  C   UNL     1      46.935  20.598  20.250  0.00  0.00    -0.095 C 
ATOM     20  C   UNL     1      46.588  19.136  20.363  0.00  0.00    +0.069 C 
ATOM     21  C   UNL     1      45.933  18.841  21.708  0.00  0.00    +0.074 C 
ATOM     22  C   UNL     1      44.614  19.624  21.774  0.00  0.00    +0.150 C 
ATOM     25  C   UNL     1      44.953  21.092  21.714  0.00  0.00    +0.339 C 
ATOM     26  O   UNL     1      44.428  21.858  22.505  0.00  0.00    -0.446 OA
ATOM     27  C   UNL     1      45.923  21.636  20.696  0.00  0.00    -0.064 C 
ATOM     28  C   UNL     1      45.141  22.137  19.471  0.00  0.00    +0.067 C 
ATOM     29  C   UNL     1      46.641  22.838  21.336  0.00  0.00    +0.057 C 
ATOM     30  C   UNL     1      47.821  18.256  20.150  0.00  0.00    -0.080 C 
ATOM     31  C   UNL     1      48.674  18.405  21.405  0.00  0.00    +0.055 C 
ATOM     32  C   UNL     1      47.466  16.808  19.952  0.00  0.00    +0.374 C 
ATOM     33  O   UNL     1      46.332  16.420  20.190  0.00  0.00    -0.451 OA
ATOM     34  C   UNL     1      48.507  15.822  19.447  0.00  0.00    +0.050 C 
ATOM     35  C   UNL     1      49.698  16.532  18.863  0.00  0.00    -0.045 C 
ATOM     36  C   UNL     1      50.763  16.792  19.935  0.00  0.00    +0.041 C 
ENDROOT
BRANCH  10  11
ATOM     11  O   UNL     1      52.587  16.796  17.185  0.00  0.00    -0.563 OA
ATOM     12  H   UNL     1      53.110  16.714  16.377  0.00  0.00    +0.377 HD
ENDBRANCH  10  11
BRANCH  22  23
ATOM     23  O   UNL     1      43.778  19.260  20.678  0.00  0.00    -0.534 OA
ATOM     24  H   UNL     1      43.131  18.573  20.888  0.00  0.00    +0.381 HD
ENDBRANCH  22  23
BRANCH   9   8
ATOM      8  C   UNL     1      51.454  14.815  18.365  0.00  0.00    +0.056 C 
BRANCH   8   7
ATOM      7  C   UNL     1      51.248  13.430  17.809  0.00  0.00    +0.394 C 
ATOM     37  O   UNL     1      52.207  12.746  17.515  0.00  0.00    -0.456 OA
BRANCH   7   6
ATOM      5  C   UNL     1      49.310  12.206  18.594  0.00  0.00    +0.067 C 
ATOM      6  C   UNL     1      49.894  12.910  17.622  0.00  0.00    -0.086 C 
BRANCH   5   4
ATOM      4  C   UNL     1      47.915  11.671  18.401  0.00  0.00    +0.256 C 
BRANCH   4   3
ATOM      3  O   UNL     1      46.965  12.693  18.713  0.00  0.00    -0.350 OA
BRANCH   3   2
ATOM      1  C   UNL     1      46.656  14.136  16.734  0.00  0.00    +0.161 C 
ATOM      2  C   UNL     1      46.164  13.105  17.717  0.00  0.00    +0.461 C 
ATOM     38  O   UNL     1      45.051  12.649  17.609  0.00  0.00    -0.510 OA
ENDBRANCH   3   2
ENDBRANCH   4   3
ENDBRANCH   5   4
ENDBRANCH   7   6
ENDBRANCH   8   7
ENDBRANCH   9   8
TORSDOF 8
ENDMDL
MODEL 6
REMARK VINA RESULT:      -5.4      2.839      8.165
REMARK  Name = ZINC95486305
REMARK  14 active torsions:
REMARK  status: ('A' for Active; 'I' for Inactive)
REMARK    1  A    between atoms: C1_1  and  C2_2
REMARK    2  A    between atoms: C2_2  and  O2_4
REMARK    3  A    between atoms: O2_4  and  C3_5
REMARK    4  A    between atoms: C3_5  and  C4_6
REMARK    5  A    between atoms: C5_7  and  C6_8
REMARK    6  A    between atoms: C6_8  and  C7_10
REMARK    7  A    between atoms: C7_10  and  C8_11
REMARK    8  A    between atoms: C9_13  and  O7_41
REMARK    9  A    between atoms: C11_16  and  C29_40
REMARK   10  A    between atoms: C12_17  and  C28_39
REMARK   11  A    between atoms: C15_21  and  C27_38
REMARK   12  A    between atoms: C22_30  and  O6_37
REMARK   13  A    between atoms: C24_34  and  C25_35
REMARK   14  A    between atoms: C24_34  and  C26_36
REMARK                            x       y       z     vdW  Elec       q    Type
REMARK                         _______ _______ _______ _____ _____    ______ ____
ROOT
ATOM      9  C   UNL     1      51.715  17.469  18.450  0.00  0.00    +0.025 C 
ATOM     10  C   UNL     1      51.798  18.660  17.462  0.00  0.00    +0.176 C 
ATOM     13  C   UNL     1      50.550  19.549  17.739  0.00  0.00    +0.013 C 
ATOM     14  C   UNL     1      49.599  18.542  18.415  0.00  0.00    -0.040 C 
ATOM     15  C   UNL     1      49.205  17.517  17.321  0.00  0.00    +0.022 C 
ATOM     16  C   UNL     1      48.339  19.048  19.005  0.00  0.00    +0.006 C 
ATOM     17  C   UNL     1      48.107  20.547  19.068  0.00  0.00    +0.087 C 
ATOM     18  C   UNL     1      46.634  20.735  19.367  0.00  0.00    -0.041 C 
ATOM     19  C   UNL     1      45.886  19.838  19.959  0.00  0.00    -0.095 C 
ATOM     20  C   UNL     1      46.390  18.477  20.363  0.00  0.00    +0.069 C 
ATOM     21  C   UNL     1      45.863  18.095  21.741  0.00  0.00    +0.074 C 
ATOM     22  C   UNL     1      44.332  18.002  21.654  0.00  0.00    +0.150 C 
ATOM     25  C   UNL     1      43.813  19.372  21.301  0.00  0.00    +0.339 C 
ATOM     26  O   UNL     1      42.871  19.831  21.925  0.00  0.00    -0.446 OA
ATOM     27  C   UNL     1      44.428  20.187  20.193  0.00  0.00    -0.064 C 
ATOM     28  C   UNL     1      43.639  19.951  18.894  0.00  0.00    +0.067 C 
ATOM     29  C   UNL     1      44.293  21.672  20.577  0.00  0.00    +0.057 C 
ATOM     30  C   UNL     1      47.918  18.417  20.326  0.00  0.00    -0.080 C 
ATOM     31  C   UNL     1      48.405  19.226  21.524  0.00  0.00    +0.055 C 
ATOM     32  C   UNL     1      48.442  17.012  20.423  0.00  0.00    +0.374 C 
ATOM     33  O   UNL     1      47.690  16.101  20.737  0.00  0.00    -0.451 OA
ATOM     34  C   UNL     1      49.901  16.711  20.121  0.00  0.00    +0.050 C 
ATOM     35  C   UNL     1      50.561  17.857  19.403  0.00  0.00    -0.045 C 
ATOM     36  C   UNL     1      51.182  18.843  20.399  0.00  0.00    +0.041 C 
ENDROOT
BRANCH  10  11
ATOM     11  O   UNL     1      52.992  19.409  17.699  0.00  0.00    -0.563 OA
ATOM     12  H   UNL     1      53.768  18.864  17.884  0.00  0.00    +0.377 HD
ENDBRANCH  10  11
BRANCH  22  23
ATOM     23  O   UNL     1      43.960  17.055  20.655  0.00  0.00    -0.534 OA
ATOM     24  H   UNL     1      44.631  16.381  20.481  0.00  0.00    +0.381 HD
ENDBRANCH  22  23
BRANCH   9   8
ATOM      8  C   UNL     1      53.013  17.365  19.254  0.00  0.00    +0.056 C 
BRANCH   8   7
ATOM      7  C   UNL     1      53.546  15.957  19.169  0.00  0.00    +0.394 C 
ATOM     37  O   UNL     1      54.707  15.730  19.444  0.00  0.00    -0.456 OA
BRANCH   7   6
ATOM      5  C   UNL     1      52.313  13.924  19.631  0.00  0.00    +0.067 C 
ATOM      6  C   UNL     1      52.666  14.865  18.754  0.00  0.00    -0.086 C 
BRANCH   5   4
ATOM      4  C   UNL     1      51.405  12.799  19.204  0.00  0.00    +0.256 C 
BRANCH   4   3
ATOM      3  O   UNL     1      50.427  13.297  18.288  0.00  0.00    -0.350 OA
BRANCH   3   2
ATOM      1  C   UNL     1      48.106  14.027  17.871  0.00  0.00    +0.161 C 
ATOM      2  C   UNL     1      49.167  13.397  18.738  0.00  0.00    +0.461 C 
ATOM     38  O   UNL     1      48.882  12.983  19.836  0.00  0.00    -0.510 OA
ENDBRANCH   3   2
ENDBRANCH   4   3
ENDBRANCH   5   4
ENDBRANCH   7   6
ENDBRANCH   8   7
ENDBRANCH   9   8
TORSDOF 8
ENDMDL
MODEL 7
REMARK VINA RESULT:      -5.3      3.204      9.518
REMARK  Name = ZINC95486305
REMARK  14 active torsions:
REMARK  status: ('A' for Active; 'I' for Inactive)
REMARK    1  A    between atoms: C1_1  and  C2_2
REMARK    2  A    between atoms: C2_2  and  O2_4
REMARK    3  A    between atoms: O2_4  and  C3_5
REMARK    4  A    between atoms: C3_5  and  C4_6
REMARK    5  A    between atoms: C5_7  and  C6_8
REMARK    6  A    between atoms: C6_8  and  C7_10
REMARK    7  A    between atoms: C7_10  and  C8_11
REMARK    8  A    between atoms: C9_13  and  O7_41
REMARK    9  A    between atoms: C11_16  and  C29_40
REMARK   10  A    between atoms: C12_17  and  C28_39
REMARK   11  A    between atoms: C15_21  and  C27_38
REMARK   12  A    between atoms: C22_30  and  O6_37
REMARK   13  A    between atoms: C24_34  and  C25_35
REMARK   14  A    between atoms: C24_34  and  C26_36
REMARK                            x       y       z     vdW  Elec       q    Type
REMARK                         _______ _______ _______ _____ _____    ______ ____
ROOT
ATOM      9  C   UNL     1      49.236  14.161  18.733  0.00  0.00    +0.025 C 
ATOM     10  C   UNL     1      48.309  13.225  19.551  0.00  0.00    +0.176 C 
ATOM     13  C   UNL     1      47.035  14.054  19.890  0.00  0.00    +0.013 C 
ATOM     14  C   UNL     1      47.561  15.496  19.755  0.00  0.00    -0.040 C 
ATOM     15  C   UNL     1      48.569  15.699  20.916  0.00  0.00    +0.022 C 
ATOM     16  C   UNL     1      46.591  16.612  19.827  0.00  0.00    +0.006 C 
ATOM     17  C   UNL     1      45.107  16.293  19.866  0.00  0.00    +0.087 C 
ATOM     18  C   UNL     1      44.412  17.567  20.299  0.00  0.00    -0.041 C 
ATOM     19  C   UNL     1      44.914  18.767  20.142  0.00  0.00    -0.095 C 
ATOM     20  C   UNL     1      46.281  19.021  19.561  0.00  0.00    +0.069 C 
ATOM     21  C   UNL     1      46.247  20.205  18.601  0.00  0.00    +0.074 C 
ATOM     22  C   UNL     1      45.858  21.454  19.404  0.00  0.00    +0.150 C 
ATOM     25  C   UNL     1      44.469  21.232  19.947  0.00  0.00    +0.339 C 
ATOM     26  O   UNL     1      43.638  22.118  19.840  0.00  0.00    -0.446 OA
ATOM     27  C   UNL     1      44.084  19.941  20.623  0.00  0.00    -0.064 C 
ATOM     28  C   UNL     1      44.261  20.094  22.143  0.00  0.00    +0.067 C 
ATOM     29  C   UNL     1      42.593  19.692  20.333  0.00  0.00    +0.057 C 
ATOM     30  C   UNL     1      46.832  17.772  18.870  0.00  0.00    -0.080 C 
ATOM     31  C   UNL     1      46.040  17.616  17.576  0.00  0.00    +0.055 C 
ATOM     32  C   UNL     1      48.296  17.889  18.552  0.00  0.00    +0.374 C 
ATOM     33  O   UNL     1      48.856  18.972  18.641  0.00  0.00    -0.451 OA
ATOM     34  C   UNL     1      49.093  16.665  18.129  0.00  0.00    +0.050 C 
ATOM     35  C   UNL     1      48.350  15.393  18.436  0.00  0.00    -0.045 C 
ATOM     36  C   UNL     1      47.468  14.974  17.254  0.00  0.00    +0.041 C 
ENDROOT
BRANCH  10  11
ATOM     11  O   UNL     1      47.954  12.083  18.769  0.00  0.00    -0.563 OA
ATOM     12  H   UNL     1      48.525  11.316  18.911  0.00  0.00    +0.377 HD
ENDBRANCH  10  11
BRANCH  22  23
ATOM     23  O   UNL     1      46.784  21.654  20.471  0.00  0.00    -0.534 OA
ATOM     24  H   UNL     1      47.710  21.654  20.193  0.00  0.00    +0.381 HD
ENDBRANCH  22  23
BRANCH   9   8
ATOM      8  C   UNL     1      49.619  13.491  17.411  0.00  0.00    +0.056 C 
BRANCH   8   7
ATOM      7  C   UNL     1      51.102  13.634  17.186  0.00  0.00    +0.394 C 
ATOM     37  O   UNL     1      51.555  13.571  16.062  0.00  0.00    -0.456 OA
BRANCH   7   6
ATOM      5  C   UNL     1      52.754  12.842  18.772  0.00  0.00    +0.067 C 
ATOM      6  C   UNL     1      51.998  13.845  18.324  0.00  0.00    -0.086 C 
BRANCH   5   4
ATOM      4  C   UNL     1      53.677  13.060  19.943  0.00  0.00    +0.256 C 
BRANCH   4   3
ATOM      3  O   UNL     1      54.571  14.137  19.652  0.00  0.00    -0.350 OA
BRANCH   3   2
ATOM      1  C   UNL     1      56.327  12.402  19.650  0.00  0.00    +0.161 C 
ATOM      2  C   UNL     1      55.876  13.838  19.562  0.00  0.00    +0.461 C 
ATOM     38  O   UNL     1      56.689  14.718  19.411  0.00  0.00    -0.510 OA
ENDBRANCH   3   2
ENDBRANCH   4   3
ENDBRANCH   5   4
ENDBRANCH   7   6
ENDBRANCH   8   7
ENDBRANCH   9   8
TORSDOF 8
ENDMDL
MODEL 8
REMARK VINA RESULT:      -5.1      2.275      9.234
REMARK  Name = ZINC95486305
REMARK  14 active torsions:
REMARK  status: ('A' for Active; 'I' for Inactive)
REMARK    1  A    between atoms: C1_1  and  C2_2
REMARK    2  A    between atoms: C2_2  and  O2_4
REMARK    3  A    between atoms: O2_4  and  C3_5
REMARK    4  A    between atoms: C3_5  and  C4_6
REMARK    5  A    between atoms: C5_7  and  C6_8
REMARK    6  A    between atoms: C6_8  and  C7_10
REMARK    7  A    between atoms: C7_10  and  C8_11
REMARK    8  A    between atoms: C9_13  and  O7_41
REMARK    9  A    between atoms: C11_16  and  C29_40
REMARK   10  A    between atoms: C12_17  and  C28_39
REMARK   11  A    between atoms: C15_21  and  C27_38
REMARK   12  A    between atoms: C22_30  and  O6_37
REMARK   13  A    between atoms: C24_34  and  C25_35
REMARK   14  A    between atoms: C24_34  and  C26_36
REMARK                            x       y       z     vdW  Elec       q    Type
REMARK                         _______ _______ _______ _____ _____    ______ ____
ROOT
ATOM      9  C   UNL     1      49.117  13.496  18.420  0.00  0.00    +0.025 C 
ATOM     10  C   UNL     1      48.294  12.654  19.430  0.00  0.00    +0.176 C 
ATOM     13  C   UNL     1      47.133  13.568  19.921  0.00  0.00    +0.013 C 
ATOM     14  C   UNL     1      47.698  14.971  19.622  0.00  0.00    -0.040 C 
ATOM     15  C   UNL     1      48.890  15.174  20.592  0.00  0.00    +0.022 C 
ATOM     16  C   UNL     1      46.806  16.141  19.786  0.00  0.00    +0.006 C 
ATOM     17  C   UNL     1      45.335  15.908  20.082  0.00  0.00    +0.087 C 
ATOM     18  C   UNL     1      44.781  17.238  20.548  0.00  0.00    -0.041 C 
ATOM     19  C   UNL     1      45.306  18.398  20.244  0.00  0.00    -0.095 C 
ATOM     20  C   UNL     1      46.570  18.548  19.436  0.00  0.00    +0.069 C 
ATOM     21  C   UNL     1      46.435  19.683  18.429  0.00  0.00    +0.074 C 
ATOM     22  C   UNL     1      46.241  20.990  19.212  0.00  0.00    +0.150 C 
ATOM     25  C   UNL     1      44.952  20.872  19.984  0.00  0.00    +0.339 C 
ATOM     26  O   UNL     1      44.157  21.797  19.961  0.00  0.00    -0.446 OA
ATOM     27  C   UNL     1      44.623  19.639  20.785  0.00  0.00    -0.064 C 
ATOM     28  C   UNL     1      45.054  19.856  22.245  0.00  0.00    +0.067 C 
ATOM     29  C   UNL     1      43.094  19.460  20.754  0.00  0.00    +0.057 C 
ATOM     30  C   UNL     1      46.941  17.238  18.738  0.00  0.00    -0.080 C 
ATOM     31  C   UNL     1      45.940  17.064  17.600  0.00  0.00    +0.055 C 
ATOM     32  C   UNL     1      48.337  17.258  18.181  0.00  0.00    +0.374 C 
ATOM     33  O   UNL     1      48.953  18.311  18.117  0.00  0.00    -0.451 OA
ATOM     34  C   UNL     1      48.995  15.972  17.706  0.00  0.00    +0.050 C 
ATOM     35  C   UNL     1      48.253  14.760  18.201  0.00  0.00    -0.045 C 
ATOM     36  C   UNL     1      47.170  14.334  17.203  0.00  0.00    +0.041 C 
ENDROOT
BRANCH  10  11
ATOM     11  O   UNL     1      47.762  11.497  18.781  0.00  0.00    -0.563 OA
ATOM     12  H   UNL     1      48.413  10.998  18.271  0.00  0.00    +0.377 HD
ENDBRANCH  10  11
BRANCH  22  23
ATOM     23  O   UNL     1      47.338  21.189  20.101  0.00  0.00    -0.534 OA
ATOM     24  H   UNL     1      48.192  20.910  19.743  0.00  0.00    +0.381 HD
ENDBRANCH  22  23
BRANCH   9   8
ATOM      8  C   UNL     1      49.245  12.743  17.094  0.00  0.00    +0.056 C 
BRANCH   8   7
ATOM      7  C   UNL     1      50.556  13.098  16.440  0.00  0.00    +0.394 C 
ATOM     37  O   UNL     1      51.553  13.242  17.117  0.00  0.00    -0.456 OA
BRANCH   7   6
ATOM      5  C   UNL     1      51.810  13.243  14.371  0.00  0.00    +0.067 C 
ATOM      6  C   UNL     1      50.627  13.269  14.989  0.00  0.00    -0.086 C 
BRANCH   5   4
ATOM      4  C   UNL     1      51.882  13.419  12.877  0.00  0.00    +0.256 C 
BRANCH   4   3
ATOM      3  O   UNL     1      51.226  12.323  12.235  0.00  0.00    -0.350 OA
BRANCH   3   2
ATOM      1  C   UNL     1      51.174  13.648  10.153  0.00  0.00    +0.161 C 
ATOM      2  C   UNL     1      51.191  12.335  10.893  0.00  0.00    +0.461 C 
ATOM     38  O   UNL     1      51.172  11.295  10.279  0.00  0.00    -0.510 OA
ENDBRANCH   3   2
ENDBRANCH   4   3
ENDBRANCH   5   4
ENDBRANCH   7   6
ENDBRANCH   8   7
ENDBRANCH   9   8
TORSDOF 8
ENDMDL
MODEL 9
REMARK VINA RESULT:      -5.1      4.423      6.056
REMARK  Name = ZINC95486305
REMARK  14 active torsions:
REMARK  status: ('A' for Active; 'I' for Inactive)
REMARK    1  A    between atoms: C1_1  and  C2_2
REMARK    2  A    between atoms: C2_2  and  O2_4
REMARK    3  A    between atoms: O2_4  and  C3_5
REMARK    4  A    between atoms: C3_5  and  C4_6
REMARK    5  A    between atoms: C5_7  and  C6_8
REMARK    6  A    between atoms: C6_8  and  C7_10
REMARK    7  A    between atoms: C7_10  and  C8_11
REMARK    8  A    between atoms: C9_13  and  O7_41
REMARK    9  A    between atoms: C11_16  and  C29_40
REMARK   10  A    between atoms: C12_17  and  C28_39
REMARK   11  A    between atoms: C15_21  and  C27_38
REMARK   12  A    between atoms: C22_30  and  O6_37
REMARK   13  A    between atoms: C24_34  and  C25_35
REMARK   14  A    between atoms: C24_34  and  C26_36
REMARK                            x       y       z     vdW  Elec       q    Type
REMARK                         _______ _______ _______ _____ _____    ______ ____
ROOT
ATOM      9  C   UNL     1      49.268  18.445  18.260  0.00  0.00    +0.025 C 
ATOM     10  C   UNL     1      49.221  17.559  16.989  0.00  0.00    +0.176 C 
ATOM     13  C   UNL     1      50.210  16.381  17.236  0.00  0.00    +0.013 C 
ATOM     14  C   UNL     1      51.131  16.976  18.319  0.00  0.00    -0.040 C 
ATOM     15  C   UNL     1      51.928  18.115  17.632  0.00  0.00    +0.022 C 
ATOM     16  C   UNL     1      52.122  16.088  18.968  0.00  0.00    +0.006 C 
ATOM     17  C   UNL     1      52.086  14.601  18.665  0.00  0.00    +0.087 C 
ATOM     18  C   UNL     1      53.400  14.035  19.162  0.00  0.00    -0.041 C 
ATOM     19  C   UNL     1      54.128  14.589  20.100  0.00  0.00    -0.095 C 
ATOM     20  C   UNL     1      53.774  15.897  20.759  0.00  0.00    +0.069 C 
ATOM     21  C   UNL     1      54.026  15.829  22.260  0.00  0.00    +0.074 C 
ATOM     22  C   UNL     1      55.529  15.606  22.479  0.00  0.00    +0.150 C 
ATOM     25  C   UNL     1      55.885  14.274  21.869  0.00  0.00    +0.339 C 
ATOM     26  O   UNL     1      56.571  13.491  22.505  0.00  0.00    -0.446 OA
ATOM     27  C   UNL     1      55.416  13.889  20.489  0.00  0.00    -0.064 C 
ATOM     28  C   UNL     1      56.510  14.240  19.467  0.00  0.00    +0.067 C 
ATOM     29  C   UNL     1      55.215  12.362  20.477  0.00  0.00    +0.057 C 
ATOM     30  C   UNL     1      52.326  16.292  20.464  0.00  0.00    -0.080 C 
ATOM     31  C   UNL     1      51.451  15.355  21.290  0.00  0.00    +0.055 C 
ATOM     32  C   UNL     1      52.030  17.718  20.840  0.00  0.00    +0.374 C 
ATOM     33  O   UNL     1      52.828  18.347  21.518  0.00  0.00    -0.451 OA
ATOM     34  C   UNL     1      50.749  18.388  20.373  0.00  0.00    +0.050 C 
ATOM     35  C   UNL     1      50.093  17.608  19.265  0.00  0.00    -0.045 C 
ATOM     36  C   UNL     1      49.107  16.578  19.829  0.00  0.00    +0.041 C 
ENDROOT
BRANCH  10  11
ATOM     11  O   UNL     1      47.899  17.052  16.795  0.00  0.00    -0.563 OA
ATOM     12  H   UNL     1      47.307  17.201  17.545  0.00  0.00    +0.377 HD
ENDBRANCH  10  11
BRANCH  22  23
ATOM     23  O   UNL     1      56.270  16.653  21.857  0.00  0.00    -0.534 OA
ATOM     24  H   UNL     1      55.765  17.162  21.208  0.00  0.00    +0.381 HD
ENDBRANCH  22  23
BRANCH   9   8
ATOM      8  C   UNL     1      47.855  18.640  18.814  0.00  0.00    +0.056 C 
BRANCH   8   7
ATOM      7  C   UNL     1      47.639  20.095  19.140  0.00  0.00    +0.394 C 
ATOM     37  O   UNL     1      48.572  20.871  19.100  0.00  0.00    -0.456 OA
BRANCH   7   6
ATOM      5  C   UNL     1      45.287  19.715  19.580  0.00  0.00    +0.067 C 
ATOM      6  C   UNL     1      46.306  20.573  19.507  0.00  0.00    -0.086 C 
BRANCH   5   4
ATOM      4  C   UNL     1      43.914  20.208  19.958  0.00  0.00    +0.256 C 
BRANCH   4   3
ATOM      3  O   UNL     1      43.150  20.447  18.774  0.00  0.00    -0.350 OA
BRANCH   3   2
ATOM      1  C   UNL     1      41.082  21.791  18.656  0.00  0.00    +0.161 C 
ATOM      2  C   UNL     1      41.815  20.498  18.910  0.00  0.00    +0.461 C 
ATOM     38  O   UNL     1      41.203  19.510  19.235  0.00  0.00    -0.510 OA
ENDBRANCH   3   2
ENDBRANCH   4   3
ENDBRANCH   5   4
ENDBRANCH   7   6
ENDBRANCH   8   7
ENDBRANCH   9   8
TORSDOF 8
ENDMDL
