MODEL 1
REMARK VINA RESULT:      -5.2      0.000      0.000
REMARK  Name = ZINC95486365
REMARK  16 active torsions:
REMARK  status: ('A' for Active; 'I' for Inactive)
REMARK    1  A    between atoms: C1_1  and  C2_2
REMARK    2  A    between atoms: C2_2  and  C3_3
REMARK    3  A    between atoms: C2_2  and  C4_4
REMARK    4  A    between atoms: C5_5  and  C6_6
REMARK    5  A    between atoms: C6_6  and  C7_8
REMARK    6  A    between atoms: C6_6  and  O2_19
REMARK    7  A    between atoms: C7_8  and  C8_9
REMARK    8  A    between atoms: C8_9  and  C16_18
REMARK    9  A    between atoms: C9_10  and  C10_11
REMARK   10  A    between atoms: C10_11  and  C11_12
REMARK   11  A    between atoms: C11_12  and  C12_13
REMARK   12  A    between atoms: C12_13  and  C13_14
REMARK   13  A    between atoms: C12_13  and  C14_15
REMARK   14  A    between atoms: C12_13  and  O1_17
REMARK   15  A    between atoms: O2_19  and  C17_20
REMARK   16  A    between atoms: C17_20  and  C18_22
REMARK                            x       y       z     vdW  Elec       q    Type
REMARK                         _______ _______ _______ _____ _____    ______ ____
ROOT
ATOM     10  C   UNL     1      45.832  20.773  19.007  0.00  0.00    +0.100 C 
ENDROOT
BRANCH  10  11
ATOM     11  C   UNL     1      47.213  20.834  19.609  0.00  0.00    -0.137 C 
ATOM     12  C   UNL     1      47.386  21.193  21.062  0.00  0.00    +0.073 C 
ATOM     13  C   UNL     1      48.262  20.572  18.869  0.00  0.00    -0.035 C 
BRANCH  13  14
ATOM     14  C   UNL     1      49.646  20.723  19.445  0.00  0.00    +0.058 C 
BRANCH  14  15
ATOM     15  C   UNL     1      50.536  19.585  18.941  0.00  0.00    +0.006 C 
BRANCH  15  16
ATOM     16  C   UNL     1      51.805  20.169  18.316  0.00  0.00    +0.157 C 
ATOM     21  C   UNL     1      52.506  21.071  19.334  0.00  0.00    +0.064 C 
BRANCH  16  17
ATOM     17  O   UNL     1      52.681  19.106  17.937  0.00  0.00    -0.555 OA
ATOM     18  H   UNL     1      53.340  18.881  18.607  0.00  0.00    +0.375 HD
ENDBRANCH  16  17
BRANCH  16  19
ATOM     19  C   UNL     1      51.439  20.977  17.098  0.00  0.00    -0.073 C 
ATOM     20  C   UNL     1      51.807  20.571  15.907  0.00  0.00    +0.021 C 
ENDBRANCH  16  19
ENDBRANCH  15  16
ENDBRANCH  14  15
ENDBRANCH  13  14
ENDBRANCH  10  11
BRANCH  10   5
ATOM      5  C   UNL     1      45.286  19.349  19.126  0.00  0.00    +0.217 C 
BRANCH   5   4
ATOM      3  C   UNL     1      43.041  20.293  18.950  0.00  0.00    -0.023 C 
ATOM      4  C   UNL     1      43.827  19.400  19.500  0.00  0.00    -0.062 C 
BRANCH   3   2
ATOM      1  C   UNL     1      40.728  20.081  18.082  0.00  0.00    +0.026 C 
ATOM      2  C   UNL     1      41.582  20.345  19.324  0.00  0.00    +0.005 C 
ATOM     22  C   UNL     1      41.288  19.278  20.381  0.00  0.00    +0.024 C 
ENDBRANCH   3   2
ENDBRANCH   5   4
BRANCH   5   6
ATOM      6  O   UNL     1      45.434  18.676  17.874  0.00  0.00    -0.340 OA
BRANCH   6   7
ATOM      7  C   UNL     1      46.112  17.518  17.881  0.00  0.00    +0.457 C 
ATOM      8  C   UNL     1      47.192  17.270  16.859  0.00  0.00    +0.151 C 
ATOM      9  O   UNL     1      45.856  16.673  18.707  0.00  0.00    -0.508 OA
ENDBRANCH   6   7
ENDBRANCH   5   6
ENDBRANCH  10   5
TORSDOF 11
ENDMDL
MODEL 2
REMARK VINA RESULT:      -5.1      2.028      3.282
REMARK  Name = ZINC95486365
REMARK  16 active torsions:
REMARK  status: ('A' for Active; 'I' for Inactive)
REMARK    1  A    between atoms: C1_1  and  C2_2
REMARK    2  A    between atoms: C2_2  and  C3_3
REMARK    3  A    between atoms: C2_2  and  C4_4
REMARK    4  A    between atoms: C5_5  and  C6_6
REMARK    5  A    between atoms: C6_6  and  C7_8
REMARK    6  A    between atoms: C6_6  and  O2_19
REMARK    7  A    between atoms: C7_8  and  C8_9
REMARK    8  A    between atoms: C8_9  and  C16_18
REMARK    9  A    between atoms: C9_10  and  C10_11
REMARK   10  A    between atoms: C10_11  and  C11_12
REMARK   11  A    between atoms: C11_12  and  C12_13
REMARK   12  A    between atoms: C12_13  and  C13_14
REMARK   13  A    between atoms: C12_13  and  C14_15
REMARK   14  A    between atoms: C12_13  and  O1_17
REMARK   15  A    between atoms: O2_19  and  C17_20
REMARK   16  A    between atoms: C17_20  and  C18_22
REMARK                            x       y       z     vdW  Elec       q    Type
REMARK                         _______ _______ _______ _____ _____    ______ ____
ROOT
ATOM     10  C   UNL     1      45.150  20.144  20.194  0.00  0.00    +0.100 C 
ENDROOT
BRANCH  10  11
ATOM     11  C   UNL     1      46.345  19.823  19.332  0.00  0.00    -0.137 C 
ATOM     12  C   UNL     1      46.186  18.928  18.129  0.00  0.00    +0.073 C 
ATOM     13  C   UNL     1      47.519  20.323  19.627  0.00  0.00    -0.035 C 
BRANCH  13  14
ATOM     14  C   UNL     1      48.730  19.928  18.821  0.00  0.00    +0.058 C 
BRANCH  14  15
ATOM     15  C   UNL     1      49.790  21.027  18.921  0.00  0.00    +0.006 C 
BRANCH  15  16
ATOM     16  C   UNL     1      51.108  20.519  18.333  0.00  0.00    +0.157 C 
ATOM     21  C   UNL     1      52.266  20.939  19.240  0.00  0.00    +0.064 C 
BRANCH  16  17
ATOM     17  O   UNL     1      51.069  19.094  18.236  0.00  0.00    -0.555 OA
ATOM     18  H   UNL     1      50.695  18.657  19.013  0.00  0.00    +0.375 HD
ENDBRANCH  16  17
BRANCH  16  19
ATOM     19  C   UNL     1      51.305  21.111  16.960  0.00  0.00    -0.073 C 
ATOM     20  C   UNL     1      52.009  20.463  16.064  0.00  0.00    +0.021 C 
ENDBRANCH  16  19
ENDBRANCH  15  16
ENDBRANCH  14  15
ENDBRANCH  13  14
ENDBRANCH  10  11
BRANCH  10   5
ATOM      5  C   UNL     1      44.231  21.115  19.450  0.00  0.00    +0.217 C 
BRANCH   5   4
ATOM      3  C   UNL     1      41.804  21.137  19.182  0.00  0.00    -0.023 C 
ATOM      4  C   UNL     1      42.913  20.441  19.166  0.00  0.00    -0.062 C 
BRANCH   3   2
ATOM      1  C   UNL     1      39.431  21.523  18.574  0.00  0.00    +0.026 C 
ATOM      2  C   UNL     1      40.486  20.463  18.898  0.00  0.00    +0.005 C 
ATOM     22  C   UNL     1      40.643  19.518  17.706  0.00  0.00    +0.024 C 
ENDBRANCH   3   2
ENDBRANCH   5   4
BRANCH   5   6
ATOM      6  O   UNL     1      44.009  22.274  20.256  0.00  0.00    -0.340 OA
BRANCH   6   7
ATOM      7  C   UNL     1      44.818  23.325  20.048  0.00  0.00    +0.457 C 
ATOM      8  C   UNL     1      45.900  23.654  21.044  0.00  0.00    +0.151 C 
ATOM      9  O   UNL     1      44.677  24.008  19.060  0.00  0.00    -0.508 OA
ENDBRANCH   6   7
ENDBRANCH   5   6
ENDBRANCH  10   5
TORSDOF 11
ENDMDL
MODEL 3
REMARK VINA RESULT:      -5.1      1.136      1.670
REMARK  Name = ZINC95486365
REMARK  16 active torsions:
REMARK  status: ('A' for Active; 'I' for Inactive)
REMARK    1  A    between atoms: C1_1  and  C2_2
REMARK    2  A    between atoms: C2_2  and  C3_3
REMARK    3  A    between atoms: C2_2  and  C4_4
REMARK    4  A    between atoms: C5_5  and  C6_6
REMARK    5  A    between atoms: C6_6  and  C7_8
REMARK    6  A    between atoms: C6_6  and  O2_19
REMARK    7  A    between atoms: C7_8  and  C8_9
REMARK    8  A    between atoms: C8_9  and  C16_18
REMARK    9  A    between atoms: C9_10  and  C10_11
REMARK   10  A    between atoms: C10_11  and  C11_12
REMARK   11  A    between atoms: C11_12  and  C12_13
REMARK   12  A    between atoms: C12_13  and  C13_14
REMARK   13  A    between atoms: C12_13  and  C14_15
REMARK   14  A    between atoms: C12_13  and  O1_17
REMARK   15  A    between atoms: O2_19  and  C17_20
REMARK   16  A    between atoms: C17_20  and  C18_22
REMARK                            x       y       z     vdW  Elec       q    Type
REMARK                         _______ _______ _______ _____ _____    ______ ____
ROOT
ATOM     10  C   UNL     1      45.985  21.110  18.727  0.00  0.00    +0.100 C 
ENDROOT
BRANCH  10  11
ATOM     11  C   UNL     1      47.319  20.750  19.330  0.00  0.00    -0.137 C 
ATOM     12  C   UNL     1      47.538  20.894  20.814  0.00  0.00    +0.073 C 
ATOM     13  C   UNL     1      48.286  20.311  18.563  0.00  0.00    -0.035 C 
BRANCH  13  14
ATOM     14  C   UNL     1      49.648  20.040  19.150  0.00  0.00    +0.058 C 
BRANCH  14  15
ATOM     15  C   UNL     1      50.606  21.166  18.758  0.00  0.00    +0.006 C 
BRANCH  15  16
ATOM     16  C   UNL     1      51.704  20.609  17.850  0.00  0.00    +0.157 C 
ATOM     21  C   UNL     1      51.554  21.200  16.446  0.00  0.00    +0.064 C 
BRANCH  16  17
ATOM     17  O   UNL     1      52.984  20.958  18.380  0.00  0.00    -0.555 OA
ATOM     18  H   UNL     1      53.628  20.238  18.361  0.00  0.00    +0.375 HD
ENDBRANCH  16  17
BRANCH  16  19
ATOM     19  C   UNL     1      51.582  19.108  17.778  0.00  0.00    -0.073 C 
ATOM     20  C   UNL     1      51.741  18.492  16.632  0.00  0.00    +0.021 C 
ENDBRANCH  16  19
ENDBRANCH  15  16
ENDBRANCH  14  15
ENDBRANCH  13  14
ENDBRANCH  10  11
BRANCH  10   5
ATOM      5  C   UNL     1      44.943  20.067  19.135  0.00  0.00    +0.217 C 
BRANCH   5   4
ATOM      3  C   UNL     1      42.506  19.906  19.108  0.00  0.00    -0.023 C 
ATOM      4  C   UNL     1      43.566  20.675  19.061  0.00  0.00    -0.062 C 
BRANCH   3   2
ATOM      1  C   UNL     1      41.249  22.006  18.715  0.00  0.00    +0.026 C 
ATOM      2  C   UNL     1      41.130  20.515  19.034  0.00  0.00    +0.005 C 
ATOM     22  C   UNL     1      40.323  19.820  17.935  0.00  0.00    +0.024 C 
ENDBRANCH   3   2
ENDBRANCH   5   4
BRANCH   5   6
ATOM      6  O   UNL     1      45.018  18.948  18.249  0.00  0.00    -0.340 OA
BRANCH   6   7
ATOM      7  C   UNL     1      45.495  17.800  18.756  0.00  0.00    +0.457 C 
ATOM      8  C   UNL     1      44.868  17.201  19.988  0.00  0.00    +0.151 C 
ATOM      9  O   UNL     1      46.430  17.247  18.224  0.00  0.00    -0.508 OA
ENDBRANCH   6   7
ENDBRANCH   5   6
ENDBRANCH  10   5
TORSDOF 11
ENDMDL
MODEL 4
REMARK VINA RESULT:      -5.0      1.707      7.307
REMARK  Name = ZINC95486365
REMARK  16 active torsions:
REMARK  status: ('A' for Active; 'I' for Inactive)
REMARK    1  A    between atoms: C1_1  and  C2_2
REMARK    2  A    between atoms: C2_2  and  C3_3
REMARK    3  A    between atoms: C2_2  and  C4_4
REMARK    4  A    between atoms: C5_5  and  C6_6
REMARK    5  A    between atoms: C6_6  and  C7_8
REMARK    6  A    between atoms: C6_6  and  O2_19
REMARK    7  A    between atoms: C7_8  and  C8_9
REMARK    8  A    between atoms: C8_9  and  C16_18
REMARK    9  A    between atoms: C9_10  and  C10_11
REMARK   10  A    between atoms: C10_11  and  C11_12
REMARK   11  A    between atoms: C11_12  and  C12_13
REMARK   12  A    between atoms: C12_13  and  C13_14
REMARK   13  A    between atoms: C12_13  and  C14_15
REMARK   14  A    between atoms: C12_13  and  O1_17
REMARK   15  A    between atoms: O2_19  and  C17_20
REMARK   16  A    between atoms: C17_20  and  C18_22
REMARK                            x       y       z     vdW  Elec       q    Type
REMARK                         _______ _______ _______ _____ _____    ______ ____
ROOT
ATOM     10  C   UNL     1      48.146  19.376  20.300  0.00  0.00    +0.100 C 
ENDROOT
BRANCH  10  11
ATOM     11  C   UNL     1      46.812  20.075  20.232  0.00  0.00    -0.137 C 
ATOM     12  C   UNL     1      46.014  20.297  21.491  0.00  0.00    +0.073 C 
ATOM     13  C   UNL     1      46.349  20.491  19.080  0.00  0.00    -0.035 C 
BRANCH  13  14
ATOM     14  C   UNL     1      44.976  21.106  18.999  0.00  0.00    +0.058 C 
BRANCH  14  15
ATOM     15  C   UNL     1      43.957  20.031  18.613  0.00  0.00    +0.006 C 
BRANCH  15  16
ATOM     16  C   UNL     1      42.622  20.323  19.301  0.00  0.00    +0.157 C 
ATOM     21  C   UNL     1      42.306  19.204  20.296  0.00  0.00    +0.064 C 
BRANCH  16  17
ATOM     17  O   UNL     1      42.706  21.569  19.995  0.00  0.00    -0.555 OA
ATOM     18  H   UNL     1      42.342  22.318  19.505  0.00  0.00    +0.375 HD
ENDBRANCH  16  17
BRANCH  16  19
ATOM     19  C   UNL     1      41.530  20.397  18.265  0.00  0.00    -0.073 C 
ATOM     20  C   UNL     1      40.365  20.910  18.578  0.00  0.00    +0.021 C 
ENDBRANCH  16  19
ENDBRANCH  15  16
ENDBRANCH  14  15
ENDBRANCH  13  14
ENDBRANCH  10  11
BRANCH  10   5
ATOM      5  C   UNL     1      48.547  18.904  18.901  0.00  0.00    +0.217 C 
BRANCH   5   4
ATOM      3  C   UNL     1      50.125  20.581  18.087  0.00  0.00    -0.023 C 
ATOM      4  C   UNL     1      49.941  19.384  18.589  0.00  0.00    -0.062 C 
BRANCH   3   2
ATOM      1  C   UNL     1      52.538  20.076  18.351  0.00  0.00    +0.026 C 
ATOM      2  C   UNL     1      51.519  21.061  17.775  0.00  0.00    +0.005 C 
ATOM     22  C   UNL     1      51.699  21.154  16.259  0.00  0.00    +0.024 C 
ENDBRANCH   3   2
ENDBRANCH   5   4
BRANCH   5   6
ATOM      6  O   UNL     1      48.513  17.476  18.852  0.00  0.00    -0.340 OA
BRANCH   6   7
ATOM      7  C   UNL     1      48.033  16.916  17.731  0.00  0.00    +0.457 C 
ATOM      8  C   UNL     1      46.688  17.334  17.194  0.00  0.00    +0.151 C 
ATOM      9  O   UNL     1      48.681  16.076  17.150  0.00  0.00    -0.508 OA
ENDBRANCH   6   7
ENDBRANCH   5   6
ENDBRANCH  10   5
TORSDOF 11
ENDMDL
MODEL 5
REMARK VINA RESULT:      -4.9      2.040      3.348
REMARK  Name = ZINC95486365
REMARK  16 active torsions:
REMARK  status: ('A' for Active; 'I' for Inactive)
REMARK    1  A    between atoms: C1_1  and  C2_2
REMARK    2  A    between atoms: C2_2  and  C3_3
REMARK    3  A    between atoms: C2_2  and  C4_4
REMARK    4  A    between atoms: C5_5  and  C6_6
REMARK    5  A    between atoms: C6_6  and  C7_8
REMARK    6  A    between atoms: C6_6  and  O2_19
REMARK    7  A    between atoms: C7_8  and  C8_9
REMARK    8  A    between atoms: C8_9  and  C16_18
REMARK    9  A    between atoms: C9_10  and  C10_11
REMARK   10  A    between atoms: C10_11  and  C11_12
REMARK   11  A    between atoms: C11_12  and  C12_13
REMARK   12  A    between atoms: C12_13  and  C13_14
REMARK   13  A    between atoms: C12_13  and  C14_15
REMARK   14  A    between atoms: C12_13  and  O1_17
REMARK   15  A    between atoms: O2_19  and  C17_20
REMARK   16  A    between atoms: C17_20  and  C18_22
REMARK                            x       y       z     vdW  Elec       q    Type
REMARK                         _______ _______ _______ _____ _____    ______ ____
ROOT
ATOM     10  C   UNL     1      46.256  19.985  18.570  0.00  0.00    +0.100 C 
ENDROOT
BRANCH  10  11
ATOM     11  C   UNL     1      47.706  19.689  18.856  0.00  0.00    -0.137 C 
ATOM     12  C   UNL     1      48.526  20.660  19.666  0.00  0.00    +0.073 C 
ATOM     13  C   UNL     1      48.252  18.589  18.403  0.00  0.00    -0.035 C 
BRANCH  13  14
ATOM     14  C   UNL     1      49.724  18.338  18.608  0.00  0.00    +0.058 C 
BRANCH  14  15
ATOM     15  C   UNL     1      50.415  18.210  17.249  0.00  0.00    +0.006 C 
BRANCH  15  16
ATOM     16  C   UNL     1      51.693  19.050  17.246  0.00  0.00    +0.157 C 
ATOM     21  C   UNL     1      52.552  18.677  18.457  0.00  0.00    +0.064 C 
BRANCH  16  17
ATOM     17  O   UNL     1      52.426  18.798  16.046  0.00  0.00    -0.555 OA
ATOM     18  H   UNL     1      53.304  18.420  16.192  0.00  0.00    +0.375 HD
ENDBRANCH  16  17
BRANCH  16  19
ATOM     19  C   UNL     1      51.333  20.512  17.318  0.00  0.00    -0.073 C 
ATOM     20  C   UNL     1      51.480  21.275  16.262  0.00  0.00    +0.021 C 
ENDBRANCH  16  19
ENDBRANCH  15  16
ENDBRANCH  14  15
ENDBRANCH  13  14
ENDBRANCH  10  11
BRANCH  10   5
ATOM      5  C   UNL     1      45.440  19.826  19.855  0.00  0.00    +0.217 C 
BRANCH   5   4
ATOM      3  C   UNL     1      45.126  22.230  19.559  0.00  0.00    -0.023 C 
ATOM      4  C   UNL     1      44.989  21.182  20.334  0.00  0.00    -0.062 C 
BRANCH   3   2
ATOM      1  C   UNL     1      45.741  24.182  20.959  0.00  0.00    +0.026 C 
ATOM      2  C   UNL     1      44.675  23.586  20.038  0.00  0.00    +0.005 C 
ATOM     22  C   UNL     1      44.464  24.508  18.836  0.00  0.00    +0.024 C 
ENDBRANCH   3   2
ENDBRANCH   5   4
BRANCH   5   6
ATOM      6  O   UNL     1      44.297  19.008  19.595  0.00  0.00    -0.340 OA
BRANCH   6   7
ATOM      7  C   UNL     1      43.634  18.531  20.660  0.00  0.00    +0.457 C 
ATOM      8  C   UNL     1      42.191  18.906  20.881  0.00  0.00    +0.151 C 
ATOM      9  O   UNL     1      44.195  17.800  21.443  0.00  0.00    -0.508 OA
ENDBRANCH   6   7
ENDBRANCH   5   6
ENDBRANCH  10   5
TORSDOF 11
ENDMDL
MODEL 6
REMARK VINA RESULT:      -4.8      1.621      2.377
REMARK  Name = ZINC95486365
REMARK  16 active torsions:
REMARK  status: ('A' for Active; 'I' for Inactive)
REMARK    1  A    between atoms: C1_1  and  C2_2
REMARK    2  A    between atoms: C2_2  and  C3_3
REMARK    3  A    between atoms: C2_2  and  C4_4
REMARK    4  A    between atoms: C5_5  and  C6_6
REMARK    5  A    between atoms: C6_6  and  C7_8
REMARK    6  A    between atoms: C6_6  and  O2_19
REMARK    7  A    between atoms: C7_8  and  C8_9
REMARK    8  A    between atoms: C8_9  and  C16_18
REMARK    9  A    between atoms: C9_10  and  C10_11
REMARK   10  A    between atoms: C10_11  and  C11_12
REMARK   11  A    between atoms: C11_12  and  C12_13
REMARK   12  A    between atoms: C12_13  and  C13_14
REMARK   13  A    between atoms: C12_13  and  C14_15
REMARK   14  A    between atoms: C12_13  and  O1_17
REMARK   15  A    between atoms: O2_19  and  C17_20
REMARK   16  A    between atoms: C17_20  and  C18_22
REMARK                            x       y       z     vdW  Elec       q    Type
REMARK                         _______ _______ _______ _____ _____    ______ ____
ROOT
ATOM     10  C   UNL     1      46.175  18.366  18.124  0.00  0.00    +0.100 C 
ENDROOT
BRANCH  10  11
ATOM     11  C   UNL     1      47.670  18.478  18.281  0.00  0.00    -0.137 C 
ATOM     12  C   UNL     1      48.559  17.341  17.847  0.00  0.00    +0.073 C 
ATOM     13  C   UNL     1      48.196  19.563  18.793  0.00  0.00    -0.035 C 
BRANCH  13  14
ATOM     14  C   UNL     1      49.681  19.637  19.037  0.00  0.00    +0.058 C 
BRANCH  14  15
ATOM     15  C   UNL     1      50.231  20.936  18.444  0.00  0.00    +0.006 C 
BRANCH  15  16
ATOM     16  C   UNL     1      51.513  20.639  17.665  0.00  0.00    +0.157 C 
ATOM     21  C   UNL     1      51.454  21.331  16.301  0.00  0.00    +0.064 C 
BRANCH  16  17
ATOM     17  O   UNL     1      52.640  21.124  18.398  0.00  0.00    -0.555 OA
ATOM     18  H   UNL     1      53.493  20.836  18.046  0.00  0.00    +0.375 HD
ENDBRANCH  16  17
BRANCH  16  19
ATOM     19  C   UNL     1      51.646  19.151  17.466  0.00  0.00    -0.073 C 
ATOM     20  C   UNL     1      51.742  18.658  16.256  0.00  0.00    +0.021 C 
ENDBRANCH  16  19
ENDBRANCH  15  16
ENDBRANCH  14  15
ENDBRANCH  13  14
ENDBRANCH  10  11
BRANCH  10   5
ATOM      5  C   UNL     1      45.542  18.042  19.478  0.00  0.00    +0.217 C 
BRANCH   5   4
ATOM      3  C   UNL     1      43.251  18.601  20.112  0.00  0.00    -0.023 C 
ATOM      4  C   UNL     1      44.441  19.029  19.768  0.00  0.00    -0.062 C 
BRANCH   3   2
ATOM      1  C   UNL     1      41.606  20.146  19.085  0.00  0.00    +0.026 C 
ATOM      2  C   UNL     1      42.150  19.589  20.402  0.00  0.00    +0.005 C 
ATOM     22  C   UNL     1      41.024  18.888  21.164  0.00  0.00    +0.024 C 
ENDBRANCH   3   2
ENDBRANCH   5   4
BRANCH   5   6
ATOM      6  O   UNL     1      45.000  16.719  19.446  0.00  0.00    -0.340 OA
BRANCH   6   7
ATOM      7  C   UNL     1      45.742  15.743  19.992  0.00  0.00    +0.457 C 
ATOM      8  C   UNL     1      45.443  14.301  19.673  0.00  0.00    +0.151 C 
ATOM      9  O   UNL     1      46.650  16.021  20.741  0.00  0.00    -0.508 OA
ENDBRANCH   6   7
ENDBRANCH   5   6
ENDBRANCH  10   5
TORSDOF 11
ENDMDL
MODEL 7
REMARK VINA RESULT:      -4.8      1.714      2.672
REMARK  Name = ZINC95486365
REMARK  16 active torsions:
REMARK  status: ('A' for Active; 'I' for Inactive)
REMARK    1  A    between atoms: C1_1  and  C2_2
REMARK    2  A    between atoms: C2_2  and  C3_3
REMARK    3  A    between atoms: C2_2  and  C4_4
REMARK    4  A    between atoms: C5_5  and  C6_6
REMARK    5  A    between atoms: C6_6  and  C7_8
REMARK    6  A    between atoms: C6_6  and  O2_19
REMARK    7  A    between atoms: C7_8  and  C8_9
REMARK    8  A    between atoms: C8_9  and  C16_18
REMARK    9  A    between atoms: C9_10  and  C10_11
REMARK   10  A    between atoms: C10_11  and  C11_12
REMARK   11  A    between atoms: C11_12  and  C12_13
REMARK   12  A    between atoms: C12_13  and  C13_14
REMARK   13  A    between atoms: C12_13  and  C14_15
REMARK   14  A    between atoms: C12_13  and  O1_17
REMARK   15  A    between atoms: O2_19  and  C17_20
REMARK   16  A    between atoms: C17_20  and  C18_22
REMARK                            x       y       z     vdW  Elec       q    Type
REMARK                         _______ _______ _______ _____ _____    ______ ____
ROOT
ATOM     10  C   UNL     1      45.528  19.111  18.200  0.00  0.00    +0.100 C 
ENDROOT
BRANCH  10  11
ATOM     11  C   UNL     1      46.957  19.184  18.677  0.00  0.00    -0.137 C 
ATOM     12  C   UNL     1      47.767  17.921  18.821  0.00  0.00    +0.073 C 
ATOM     13  C   UNL     1      47.492  20.344  18.964  0.00  0.00    -0.035 C 
BRANCH  13  14
ATOM     14  C   UNL     1      48.888  20.409  19.529  0.00  0.00    +0.058 C 
BRANCH  14  15
ATOM     15  C   UNL     1      49.832  21.016  18.488  0.00  0.00    +0.006 C 
BRANCH  15  16
ATOM     16  C   UNL     1      51.273  20.617  18.812  0.00  0.00    +0.157 C 
ATOM     21  C   UNL     1      51.402  19.092  18.769  0.00  0.00    +0.064 C 
BRANCH  16  17
ATOM     17  O   UNL     1      52.156  21.198  17.851  0.00  0.00    -0.555 OA
ATOM     18  H   UNL     1      51.880  22.070  17.538  0.00  0.00    +0.375 HD
ENDBRANCH  16  17
BRANCH  16  19
ATOM     19  C   UNL     1      51.633  21.112  20.189  0.00  0.00    -0.073 C 
ATOM     20  C   UNL     1      52.639  21.937  20.346  0.00  0.00    +0.021 C 
ENDBRANCH  16  19
ENDBRANCH  15  16
ENDBRANCH  14  15
ENDBRANCH  13  14
ENDBRANCH  10  11
BRANCH  10   5
ATOM      5  C   UNL     1      44.583  19.278  19.392  0.00  0.00    +0.217 C 
BRANCH   5   4
ATOM      3  C   UNL     1      42.203  19.797  19.559  0.00  0.00    -0.023 C 
ATOM      4  C   UNL     1      43.344  20.013  18.952  0.00  0.00    -0.062 C 
BRANCH   3   2
ATOM      1  C   UNL     1      41.333  21.965  18.727  0.00  0.00    +0.026 C 
ATOM      2  C   UNL     1      40.964  20.532  19.118  0.00  0.00    +0.005 C 
ATOM     22  C   UNL     1      40.347  19.817  17.914  0.00  0.00    +0.024 C 
ENDBRANCH   3   2
ENDBRANCH   5   4
BRANCH   5   6
ATOM      6  O   UNL     1      44.220  17.991  19.896  0.00  0.00    -0.340 OA
BRANCH   6   7
ATOM      7  C   UNL     1      44.357  17.793  21.217  0.00  0.00    +0.457 C 
ATOM      8  C   UNL     1      45.613  18.239  21.921  0.00  0.00    +0.151 C 
ATOM      9  O   UNL     1      43.473  17.256  21.842  0.00  0.00    -0.508 OA
ENDBRANCH   6   7
ENDBRANCH   5   6
ENDBRANCH  10   5
TORSDOF 11
ENDMDL
MODEL 8
REMARK VINA RESULT:      -4.8     21.786     24.307
REMARK  Name = ZINC95486365
REMARK  16 active torsions:
REMARK  status: ('A' for Active; 'I' for Inactive)
REMARK    1  A    between atoms: C1_1  and  C2_2
REMARK    2  A    between atoms: C2_2  and  C3_3
REMARK    3  A    between atoms: C2_2  and  C4_4
REMARK    4  A    between atoms: C5_5  and  C6_6
REMARK    5  A    between atoms: C6_6  and  C7_8
REMARK    6  A    between atoms: C6_6  and  O2_19
REMARK    7  A    between atoms: C7_8  and  C8_9
REMARK    8  A    between atoms: C8_9  and  C16_18
REMARK    9  A    between atoms: C9_10  and  C10_11
REMARK   10  A    between atoms: C10_11  and  C11_12
REMARK   11  A    between atoms: C11_12  and  C12_13
REMARK   12  A    between atoms: C12_13  and  C13_14
REMARK   13  A    between atoms: C12_13  and  C14_15
REMARK   14  A    between atoms: C12_13  and  O1_17
REMARK   15  A    between atoms: O2_19  and  C17_20
REMARK   16  A    between atoms: C17_20  and  C18_22
REMARK                            x       y       z     vdW  Elec       q    Type
REMARK                         _______ _______ _______ _____ _____    ______ ____
ROOT
ATOM     10  C   UNL     1      41.469  33.478   2.641  0.00  0.00    +0.100 C 
ENDROOT
BRANCH  10  11
ATOM     11  C   UNL     1      40.478  33.678   1.522  0.00  0.00    -0.137 C 
ATOM     12  C   UNL     1      40.967  33.890   0.113  0.00  0.00    +0.073 C 
ATOM     13  C   UNL     1      39.193  33.664   1.776  0.00  0.00    -0.035 C 
BRANCH  13  14
ATOM     14  C   UNL     1      38.205  33.956   0.675  0.00  0.00    +0.058 C 
BRANCH  14  15
ATOM     15  C   UNL     1      36.856  33.323   1.020  0.00  0.00    +0.006 C 
BRANCH  15  16
ATOM     16  C   UNL     1      35.895  33.497  -0.158  0.00  0.00    +0.157 C 
ATOM     21  C   UNL     1      35.301  32.139  -0.537  0.00  0.00    +0.064 C 
BRANCH  16  17
ATOM     17  O   UNL     1      34.844  34.391   0.212  0.00  0.00    -0.555 OA
ATOM     18  H   UNL     1      34.355  34.756  -0.537  0.00  0.00    +0.375 HD
ENDBRANCH  16  17
BRANCH  16  19
ATOM     19  C   UNL     1      36.644  34.063  -1.337  0.00  0.00    -0.073 C 
ATOM     20  C   UNL     1      36.037  34.870  -2.173  0.00  0.00    +0.021 C 
ENDBRANCH  16  19
ENDBRANCH  15  16
ENDBRANCH  14  15
ENDBRANCH  13  14
ENDBRANCH  10  11
BRANCH  10   5
ATOM      5  C   UNL     1      42.828  33.091   2.056  0.00  0.00    +0.217 C 
BRANCH   5   4
ATOM      3  C   UNL     1      44.823  34.477   1.800  0.00  0.00    -0.023 C 
ATOM      4  C   UNL     1      43.889  34.015   2.595  0.00  0.00    -0.062 C 
BRANCH   3   2
ATOM      1  C   UNL     1      46.085  35.129   3.831  0.00  0.00    +0.026 C 
ATOM      2  C   UNL     1      45.884  35.401   2.339  0.00  0.00    +0.005 C 
ATOM     22  C   UNL     1      47.198  35.159   1.594  0.00  0.00    +0.024 C 
ENDBRANCH   3   2
ENDBRANCH   5   4
BRANCH   5   6
ATOM      6  O   UNL     1      43.138  31.745   2.421  0.00  0.00    -0.340 OA
BRANCH   6   7
ATOM      7  C   UNL     1      42.522  30.770   1.735  0.00  0.00    +0.457 C 
ATOM      8  C   UNL     1      42.753  30.629   0.252  0.00  0.00    +0.151 C 
ATOM      9  O   UNL     1      41.781  30.004   2.306  0.00  0.00    -0.508 OA
ENDBRANCH   6   7
ENDBRANCH   5   6
ENDBRANCH  10   5
TORSDOF 11
ENDMDL
MODEL 9
REMARK VINA RESULT:      -4.8      2.508      3.584
REMARK  Name = ZINC95486365
REMARK  16 active torsions:
REMARK  status: ('A' for Active; 'I' for Inactive)
REMARK    1  A    between atoms: C1_1  and  C2_2
REMARK    2  A    between atoms: C2_2  and  C3_3
REMARK    3  A    between atoms: C2_2  and  C4_4
REMARK    4  A    between atoms: C5_5  and  C6_6
REMARK    5  A    between atoms: C6_6  and  C7_8
REMARK    6  A    between atoms: C6_6  and  O2_19
REMARK    7  A    between atoms: C7_8  and  C8_9
REMARK    8  A    between atoms: C8_9  and  C16_18
REMARK    9  A    between atoms: C9_10  and  C10_11
REMARK   10  A    between atoms: C10_11  and  C11_12
REMARK   11  A    between atoms: C11_12  and  C12_13
REMARK   12  A    between atoms: C12_13  and  C13_14
REMARK   13  A    between atoms: C12_13  and  C14_15
REMARK   14  A    between atoms: C12_13  and  O1_17
REMARK   15  A    between atoms: O2_19  and  C17_20
REMARK   16  A    between atoms: C17_20  and  C18_22
REMARK                            x       y       z     vdW  Elec       q    Type
REMARK                         _______ _______ _______ _____ _____    ______ ____
ROOT
ATOM     10  C   UNL     1      45.641  20.596  20.862  0.00  0.00    +0.100 C 
ENDROOT
BRANCH  10  11
ATOM     11  C   UNL     1      47.140  20.756  20.819  0.00  0.00    -0.137 C 
ATOM     12  C   UNL     1      47.817  21.750  21.727  0.00  0.00    +0.073 C 
ATOM     13  C   UNL     1      47.852  20.029  19.995  0.00  0.00    -0.035 C 
BRANCH  13  14
ATOM     14  C   UNL     1      49.338  20.254  19.885  0.00  0.00    +0.058 C 
BRANCH  14  15
ATOM     15  C   UNL     1      49.675  20.768  18.484  0.00  0.00    +0.006 C 
BRANCH  15  16
ATOM     16  C   UNL     1      51.194  20.841  18.318  0.00  0.00    +0.157 C 
ATOM     21  C   UNL     1      51.783  19.430  18.385  0.00  0.00    +0.064 C 
BRANCH  16  17
ATOM     17  O   UNL     1      51.508  21.430  17.055  0.00  0.00    -0.555 OA
ATOM     18  H   UNL     1      52.433  21.332  16.793  0.00  0.00    +0.375 HD
ENDBRANCH  16  17
BRANCH  16  19
ATOM     19  C   UNL     1      51.779  21.682  19.424  0.00  0.00    -0.073 C 
ATOM     20  C   UNL     1      52.976  21.414  19.886  0.00  0.00    +0.021 C 
ENDBRANCH  16  19
ENDBRANCH  15  16
ENDBRANCH  14  15
ENDBRANCH  13  14
ENDBRANCH  10  11
BRANCH  10   5
ATOM      5  C   UNL     1      44.997  21.556  19.859  0.00  0.00    +0.217 C 
BRANCH   5   4
ATOM      3  C   UNL     1      42.638  21.279  19.294  0.00  0.00    -0.023 C 
ATOM      4  C   UNL     1      43.869  20.856  19.146  0.00  0.00    -0.062 C 
BRANCH   3   2
ATOM      1  C   UNL     1      41.102  19.334  19.371  0.00  0.00    +0.026 C 
ATOM      2  C   UNL     1      41.510  20.579  18.581  0.00  0.00    +0.005 C 
ATOM     22  C   UNL     1      40.313  21.525  18.465  0.00  0.00    +0.024 C 
ENDBRANCH   3   2
ENDBRANCH   5   4
BRANCH   5   6
ATOM      6  O   UNL     1      44.487  22.697  20.553  0.00  0.00    -0.340 OA
BRANCH   6   7
ATOM      7  C   UNL     1      44.964  23.897  20.186  0.00  0.00    +0.457 C 
ATOM      8  C   UNL     1      44.515  24.524  18.891  0.00  0.00    +0.151 C 
ATOM      9  O   UNL     1      45.755  24.475  20.895  0.00  0.00    -0.508 OA
ENDBRANCH   6   7
ENDBRANCH   5   6
ENDBRANCH  10   5
TORSDOF 11
ENDMDL
