MODEL 1
REMARK VINA RESULT:      -6.6      0.000      0.000
REMARK  Name = ZINC95486236
REMARK  7 active torsions:
REMARK  status: ('A' for Active; 'I' for Inactive)
REMARK    1  A    between atoms: C1_1  and  C2_2
REMARK    2  A    between atoms: C2_2  and  C20_28
REMARK    3  A    between atoms: C3_3  and  O7_27
REMARK    4  A    between atoms: C10_11  and  O1_12
REMARK    5  A    between atoms: C12_15  and  O5_25
REMARK    6  A    between atoms: C13_16  and  C14_18
REMARK    7  A    between atoms: C17_21  and  O4_24
REMARK                            x       y       z     vdW  Elec       q    Type
REMARK                         _______ _______ _______ _____ _____    ______ ____
ROOT
ATOM      1  C   UNL     1      51.016  19.657  17.339  0.00  0.00    +0.045 C 
ATOM      2  C   UNL     1      50.603  18.406  18.117  0.00  0.00    +0.120 C 
ATOM      3  C   UNL     1      51.232  17.168  17.473  0.00  0.00    +0.094 C 
ATOM      4  C   UNL     1      51.072  18.524  19.573  0.00  0.00    +0.156 C 
ATOM      7  C   UNL     1      50.518  19.830  20.149  0.00  0.00    +0.080 C 
ATOM      8  C   UNL     1      49.048  19.943  19.834  0.00  0.00    -0.217 A 
ATOM      9  C   UNL     1      48.461  19.176  18.836  0.00  0.00    +0.220 A 
ATOM     10  C   UNL     1      47.104  19.303  18.561  0.00  0.00    -0.032 A 
ATOM     11  C   UNL     1      46.320  20.192  19.279  0.00  0.00    +0.199 A 
ATOM     12  C   UNL     1      46.914  20.964  20.292  0.00  0.00    -0.285 A 
ATOM     13  C   UNL     1      46.069  21.900  21.050  0.00  0.00    +0.404 A 
ATOM     14  C   UNL     1      44.694  21.958  20.700  0.00  0.00    -0.045 A 
ATOM     17  C   UNL     1      44.227  21.163  19.700  0.00  0.00    +0.133 A 
ATOM     26  O   UNL     1      46.530  22.597  21.940  0.00  0.00    -0.453 OA
ATOM     27  O   UNL     1      45.005  20.314  19.012  0.00  0.00    -0.190 OA
ATOM     28  C   UNL     1      48.281  20.835  20.563  0.00  0.00    +0.242 A 
ATOM     31  O   UNL     1      49.181  18.282  18.108  0.00  0.00    -0.289 OA
ENDROOT
BRANCH  17  18
ATOM     18  C   UNL     1      42.796  21.238  19.354  0.00  0.00    -0.063 A 
ATOM     19  C   UNL     1      41.950  20.161  19.631  0.00  0.00    +0.068 A 
ATOM     20  C   UNL     1      40.613  20.236  19.307  0.00  0.00    -0.014 A 
ATOM     21  C   UNL     1      40.105  21.380  18.704  0.00  0.00    +0.127 A 
ATOM     24  C   UNL     1      40.943  22.455  18.427  0.00  0.00    -0.012 A 
ATOM     25  C   UNL     1      42.279  22.390  18.753  0.00  0.00    +0.089 A 
BRANCH  21  22
ATOM     22  O   UNL     1      38.787  21.450  18.385  0.00  0.00    -0.498 OA
ATOM     23  H   UNL     1      38.310  20.616  18.498  0.00  0.00    +0.396 HD
ENDBRANCH  21  22
ENDBRANCH  17  18
BRANCH   4   5
ATOM      5  O   UNL     1      52.499  18.542  19.620  0.00  0.00    -0.550 OA
ATOM      6  H   UNL     1      52.872  19.384  19.916  0.00  0.00    +0.387 HD
ENDBRANCH   4   5
BRANCH  14  15
ATOM     15  O   UNL     1      43.853  22.801  21.359  0.00  0.00    -0.450 OA
ATOM     16  H   UNL     1      43.401  23.435  20.785  0.00  0.00    +0.407 HD
ENDBRANCH  14  15
BRANCH  28  29
ATOM     29  O   UNL     1      48.854  21.584  21.541  0.00  0.00    -0.471 OA
ATOM     30  H   UNL     1      49.356  21.068  22.187  0.00  0.00    +0.403 HD
ENDBRANCH  28  29
TORSDOF 5
ENDMDL
MODEL 2
REMARK VINA RESULT:      -6.5      4.431      8.845
REMARK  Name = ZINC95486236
REMARK  7 active torsions:
REMARK  status: ('A' for Active; 'I' for Inactive)
REMARK    1  A    between atoms: C1_1  and  C2_2
REMARK    2  A    between atoms: C2_2  and  C20_28
REMARK    3  A    between atoms: C3_3  and  O7_27
REMARK    4  A    between atoms: C10_11  and  O1_12
REMARK    5  A    between atoms: C12_15  and  O5_25
REMARK    6  A    between atoms: C13_16  and  C14_18
REMARK    7  A    between atoms: C17_21  and  O4_24
REMARK                            x       y       z     vdW  Elec       q    Type
REMARK                         _______ _______ _______ _____ _____    ______ ____
ROOT
ATOM      1  C   UNL     1      43.130  20.122  18.756  0.00  0.00    +0.045 C 
ATOM      2  C   UNL     1      44.493  20.450  19.366  0.00  0.00    +0.120 C 
ATOM      3  C   UNL     1      44.733  21.960  19.313  0.00  0.00    +0.094 C 
ATOM      4  C   UNL     1      44.535  19.972  20.823  0.00  0.00    +0.156 C 
ATOM      7  C   UNL     1      44.179  18.483  20.849  0.00  0.00    +0.080 C 
ATOM      8  C   UNL     1      44.984  17.750  19.807  0.00  0.00    -0.217 A 
ATOM      9  C   UNL     1      45.602  18.424  18.763  0.00  0.00    +0.220 A 
ATOM     10  C   UNL     1      46.335  17.723  17.811  0.00  0.00    -0.032 A 
ATOM     11  C   UNL     1      46.460  16.345  17.894  0.00  0.00    +0.199 A 
ATOM     12  C   UNL     1      45.838  15.664  18.953  0.00  0.00    -0.285 A 
ATOM     13  C   UNL     1      45.984  14.202  19.032  0.00  0.00    +0.404 A 
ATOM     14  C   UNL     1      46.753  13.573  18.018  0.00  0.00    -0.045 A 
ATOM     17  C   UNL     1      47.310  14.334  17.036  0.00  0.00    +0.133 A 
ATOM     26  O   UNL     1      45.465  13.557  19.929  0.00  0.00    -0.453 OA
ATOM     27  O   UNL     1      47.171  15.666  16.971  0.00  0.00    -0.190 OA
ATOM     28  C   UNL     1      45.099  16.373  19.907  0.00  0.00    +0.242 A 
ATOM     31  O   UNL     1      45.520  19.775  18.640  0.00  0.00    -0.289 OA
ENDROOT
BRANCH  17  18
ATOM     18  C   UNL     1      48.106  13.661  15.994  0.00  0.00    -0.063 A 
ATOM     19  C   UNL     1      47.481  13.153  14.852  0.00  0.00    +0.068 A 
ATOM     20  C   UNL     1      48.229  12.526  13.880  0.00  0.00    -0.014 A 
ATOM     21  C   UNL     1      49.604  12.398  14.034  0.00  0.00    +0.127 A 
ATOM     24  C   UNL     1      50.231  12.902  15.168  0.00  0.00    -0.012 A 
ATOM     25  C   UNL     1      49.490  13.535  16.141  0.00  0.00    +0.089 A 
BRANCH  21  22
ATOM     22  O   UNL     1      50.339  11.778  13.074  0.00  0.00    -0.498 OA
ATOM     23  H   UNL     1      50.387  10.817  13.175  0.00  0.00    +0.396 HD
ENDBRANCH  21  22
ENDBRANCH  17  18
BRANCH   4   5
ATOM      5  O   UNL     1      43.589  20.709  21.599  0.00  0.00    -0.550 OA
ATOM      6  H   UNL     1      43.692  21.669  21.537  0.00  0.00    +0.387 HD
ENDBRANCH   4   5
BRANCH  14  15
ATOM     15  O   UNL     1      46.931  12.224  18.027  0.00  0.00    -0.450 OA
ATOM     16  H   UNL     1      47.810  11.945  18.315  0.00  0.00    +0.407 HD
ENDBRANCH  14  15
BRANCH  28  29
ATOM     29  O   UNL     1      44.497  15.713  20.930  0.00  0.00    -0.471 OA
ATOM     30  H   UNL     1      45.107  15.204  21.482  0.00  0.00    +0.403 HD
ENDBRANCH  28  29
TORSDOF 5
ENDMDL
MODEL 3
REMARK VINA RESULT:      -6.4      4.360      5.866
REMARK  Name = ZINC95486236
REMARK  7 active torsions:
REMARK  status: ('A' for Active; 'I' for Inactive)
REMARK    1  A    between atoms: C1_1  and  C2_2
REMARK    2  A    between atoms: C2_2  and  C20_28
REMARK    3  A    between atoms: C3_3  and  O7_27
REMARK    4  A    between atoms: C10_11  and  O1_12
REMARK    5  A    between atoms: C12_15  and  O5_25
REMARK    6  A    between atoms: C13_16  and  C14_18
REMARK    7  A    between atoms: C17_21  and  O4_24
REMARK                            x       y       z     vdW  Elec       q    Type
REMARK                         _______ _______ _______ _____ _____    ______ ____
ROOT
ATOM      1  C   UNL     1      48.810  12.992  16.988  0.00  0.00    +0.045 C 
ATOM      2  C   UNL     1      47.569  13.149  16.108  0.00  0.00    +0.120 C 
ATOM      3  C   UNL     1      47.907  12.765  14.666  0.00  0.00    +0.094 C 
ATOM      4  C   UNL     1      46.446  12.244  16.633  0.00  0.00    +0.156 C 
ATOM      7  C   UNL     1      46.213  12.578  18.109  0.00  0.00    +0.080 C 
ATOM      8  C   UNL     1      46.101  14.071  18.282  0.00  0.00    -0.217 A 
ATOM      9  C   UNL     1      46.559  14.949  17.308  0.00  0.00    +0.220 A 
ATOM     10  C   UNL     1      46.449  16.322  17.494  0.00  0.00    -0.032 A 
ATOM     11  C   UNL     1      45.880  16.833  18.650  0.00  0.00    +0.199 A 
ATOM     12  C   UNL     1      45.413  15.945  19.633  0.00  0.00    -0.285 A 
ATOM     13  C   UNL     1      44.806  16.500  20.853  0.00  0.00    +0.404 A 
ATOM     14  C   UNL     1      44.734  17.914  20.953  0.00  0.00    -0.045 A 
ATOM     17  C   UNL     1      45.220  18.679  19.938  0.00  0.00    +0.133 A 
ATOM     26  O   UNL     1      44.384  15.777  21.741  0.00  0.00    -0.453 OA
ATOM     27  O   UNL     1      45.773  18.165  18.830  0.00  0.00    -0.190 OA
ATOM     28  C   UNL     1      45.528  14.563  19.443  0.00  0.00    +0.242 A 
ATOM     31  O   UNL     1      47.116  14.502  16.152  0.00  0.00    -0.289 OA
ENDROOT
BRANCH  17  18
ATOM     18  C   UNL     1      45.134  20.146  20.061  0.00  0.00    -0.063 A 
ATOM     19  C   UNL     1      46.185  20.865  20.636  0.00  0.00    +0.068 A 
ATOM     20  C   UNL     1      46.100  22.235  20.749  0.00  0.00    -0.014 A 
ATOM     21  C   UNL     1      44.971  22.903  20.291  0.00  0.00    +0.127 A 
ATOM     24  C   UNL     1      43.923  22.193  19.718  0.00  0.00    -0.012 A 
ATOM     25  C   UNL     1      44.002  20.823  19.597  0.00  0.00    +0.089 A 
BRANCH  21  22
ATOM     22  O   UNL     1      44.891  24.254  20.405  0.00  0.00    -0.498 OA
ATOM     23  H   UNL     1      44.316  24.555  21.123  0.00  0.00    +0.396 HD
ENDBRANCH  21  22
ENDBRANCH  17  18
BRANCH   4   5
ATOM      5  O   UNL     1      46.829  10.875  16.502  0.00  0.00    -0.550 OA
ATOM      6  H   UNL     1      47.786  10.732  16.505  0.00  0.00    +0.387 HD
ENDBRANCH   4   5
BRANCH  14  15
ATOM     15  O   UNL     1      44.185  18.499  22.052  0.00  0.00    -0.450 OA
ATOM     16  H   UNL     1      44.659  18.315  22.874  0.00  0.00    +0.407 HD
ENDBRANCH  14  15
BRANCH  28  29
ATOM     29  O   UNL     1      45.078  13.705  20.395  0.00  0.00    -0.471 OA
ATOM     30  H   UNL     1      45.576  13.742  21.223  0.00  0.00    +0.403 HD
ENDBRANCH  28  29
TORSDOF 5
ENDMDL
MODEL 4
REMARK VINA RESULT:      -6.1      4.380      7.907
REMARK  Name = ZINC95486236
REMARK  7 active torsions:
REMARK  status: ('A' for Active; 'I' for Inactive)
REMARK    1  A    between atoms: C1_1  and  C2_2
REMARK    2  A    between atoms: C2_2  and  C20_28
REMARK    3  A    between atoms: C3_3  and  O7_27
REMARK    4  A    between atoms: C10_11  and  O1_12
REMARK    5  A    between atoms: C12_15  and  O5_25
REMARK    6  A    between atoms: C13_16  and  C14_18
REMARK    7  A    between atoms: C17_21  and  O4_24
REMARK                            x       y       z     vdW  Elec       q    Type
REMARK                         _______ _______ _______ _____ _____    ______ ____
ROOT
ATOM      1  C   UNL     1      42.851  21.696  19.491  0.00  0.00    +0.045 C 
ATOM      2  C   UNL     1      44.348  21.939  19.685  0.00  0.00    +0.120 C 
ATOM      3  C   UNL     1      44.719  23.325  19.152  0.00  0.00    +0.094 C 
ATOM      4  C   UNL     1      44.698  21.850  21.176  0.00  0.00    +0.156 C 
ATOM      7  C   UNL     1      44.210  20.497  21.702  0.00  0.00    +0.080 C 
ATOM      8  C   UNL     1      44.657  19.398  20.770  0.00  0.00    -0.217 A 
ATOM      9  C   UNL     1      45.065  19.672  19.471  0.00  0.00    +0.220 A 
ATOM     10  C   UNL     1      45.467  18.641  18.630  0.00  0.00    -0.032 A 
ATOM     11  C   UNL     1      45.469  17.328  19.077  0.00  0.00    +0.199 A 
ATOM     12  C   UNL     1      45.061  17.053  20.392  0.00  0.00    -0.285 A 
ATOM     13  C   UNL     1      45.072  15.656  20.855  0.00  0.00    +0.404 A 
ATOM     14  C   UNL     1      45.501  14.671  19.927  0.00  0.00    -0.045 A 
ATOM     17  C   UNL     1      45.874  15.053  18.675  0.00  0.00    +0.133 A 
ATOM     26  O   UNL     1      44.727  15.356  21.987  0.00  0.00    -0.453 OA
ATOM     27  O   UNL     1      45.859  16.328  18.261  0.00  0.00    -0.190 OA
ATOM     28  C   UNL     1      44.654  18.094  21.235  0.00  0.00    +0.242 A 
ATOM     31  O   UNL     1      45.092  20.941  18.986  0.00  0.00    -0.289 OA
ENDROOT
BRANCH  17  18
ATOM     18  C   UNL     1      46.318  14.014  17.728  0.00  0.00    -0.063 A 
ATOM     19  C   UNL     1      47.460  14.219  16.947  0.00  0.00    +0.068 A 
ATOM     20  C   UNL     1      47.871  13.245  16.064  0.00  0.00    -0.014 A 
ATOM     21  C   UNL     1      47.153  12.061  15.947  0.00  0.00    +0.127 A 
ATOM     24  C   UNL     1      46.016  11.854  16.721  0.00  0.00    -0.012 A 
ATOM     25  C   UNL     1      45.602  12.820  17.611  0.00  0.00    +0.089 A 
BRANCH  21  22
ATOM     22  O   UNL     1      47.560  11.104  15.074  0.00  0.00    -0.498 OA
ATOM     23  H   UNL     1      47.582  11.397  14.152  0.00  0.00    +0.396 HD
ENDBRANCH  21  22
ENDBRANCH  17  18
BRANCH   4   5
ATOM      5  O   UNL     1      44.050  22.906  21.887  0.00  0.00    -0.550 OA
ATOM      6  H   UNL     1      44.116  23.769  21.454  0.00  0.00    +0.387 HD
ENDBRANCH   4   5
BRANCH  14  15
ATOM     15  O   UNL     1      45.538  13.359  20.285  0.00  0.00    -0.450 OA
ATOM     16  H   UNL     1      46.246  13.140  20.907  0.00  0.00    +0.407 HD
ENDBRANCH  14  15
BRANCH  28  29
ATOM     29  O   UNL     1      44.257  17.826  22.505  0.00  0.00    -0.471 OA
ATOM     30  H   UNL     1      43.826  18.571  22.947  0.00  0.00    +0.403 HD
ENDBRANCH  28  29
TORSDOF 5
ENDMDL
MODEL 5
REMARK VINA RESULT:      -6.1      5.304      8.478
REMARK  Name = ZINC95486236
REMARK  7 active torsions:
REMARK  status: ('A' for Active; 'I' for Inactive)
REMARK    1  A    between atoms: C1_1  and  C2_2
REMARK    2  A    between atoms: C2_2  and  C20_28
REMARK    3  A    between atoms: C3_3  and  O7_27
REMARK    4  A    between atoms: C10_11  and  O1_12
REMARK    5  A    between atoms: C12_15  and  O5_25
REMARK    6  A    between atoms: C13_16  and  C14_18
REMARK    7  A    between atoms: C17_21  and  O4_24
REMARK                            x       y       z     vdW  Elec       q    Type
REMARK                         _______ _______ _______ _____ _____    ______ ____
ROOT
ATOM      1  C   UNL     1      50.707  10.857  16.649  0.00  0.00    +0.045 C 
ATOM      2  C   UNL     1      50.838  11.556  15.295  0.00  0.00    +0.120 C 
ATOM      3  C   UNL     1      51.773  10.753  14.388  0.00  0.00    +0.094 C 
ATOM      4  C   UNL     1      49.456  11.672  14.638  0.00  0.00    +0.156 C 
ATOM      7  C   UNL     1      48.517  12.378  15.620  0.00  0.00    +0.080 C 
ATOM      8  C   UNL     1      49.185  13.617  16.160  0.00  0.00    -0.217 A 
ATOM      9  C   UNL     1      50.559  13.796  16.071  0.00  0.00    +0.220 A 
ATOM     10  C   UNL     1      51.151  14.945  16.582  0.00  0.00    -0.032 A 
ATOM     11  C   UNL     1      50.380  15.927  17.184  0.00  0.00    +0.199 A 
ATOM     12  C   UNL     1      48.989  15.747  17.270  0.00  0.00    -0.285 A 
ATOM     13  C   UNL     1      48.181  16.799  17.908  0.00  0.00    +0.404 A 
ATOM     14  C   UNL     1      48.873  17.938  18.398  0.00  0.00    -0.045 A 
ATOM     17  C   UNL     1      50.226  18.006  18.261  0.00  0.00    +0.133 A 
ATOM     26  O   UNL     1      46.969  16.697  18.012  0.00  0.00    -0.453 OA
ATOM     27  O   UNL     1      50.954  17.041  17.680  0.00  0.00    -0.190 OA
ATOM     28  C   UNL     1      48.398  14.588  16.757  0.00  0.00    +0.242 A 
ATOM     31  O   UNL     1      51.361  12.871  15.481  0.00  0.00    -0.289 OA
ENDROOT
BRANCH  17  18
ATOM     18  C   UNL     1      50.924  19.198  18.775  0.00  0.00    -0.063 A 
ATOM     19  C   UNL     1      51.524  19.170  20.037  0.00  0.00    +0.068 A 
ATOM     20  C   UNL     1      52.176  20.286  20.512  0.00  0.00    -0.014 A 
ATOM     21  C   UNL     1      52.238  21.439  19.740  0.00  0.00    +0.127 A 
ATOM     24  C   UNL     1      51.644  21.472  18.484  0.00  0.00    -0.012 A 
ATOM     25  C   UNL     1      50.994  20.358  17.999  0.00  0.00    +0.089 A 
BRANCH  21  22
ATOM     22  O   UNL     1      52.881  22.538  20.213  0.00  0.00    -0.498 OA
ATOM     23  H   UNL     1      53.625  22.825  19.664  0.00  0.00    +0.396 HD
ENDBRANCH  21  22
ENDBRANCH  17  18
BRANCH   4   5
ATOM      5  O   UNL     1      48.953  10.368  14.341  0.00  0.00    -0.550 OA
ATOM      6  H   UNL     1      49.624   9.672  14.370  0.00  0.00    +0.387 HD
ENDBRANCH   4   5
BRANCH  14  15
ATOM     15  O   UNL     1      48.191  18.951  18.998  0.00  0.00    -0.450 OA
ATOM     16  H   UNL     1      48.331  19.816  18.590  0.00  0.00    +0.407 HD
ENDBRANCH  14  15
BRANCH  28  29
ATOM     29  O   UNL     1      47.053  14.414  16.843  0.00  0.00    -0.471 OA
ATOM     30  H   UNL     1      46.779  13.487  16.871  0.00  0.00    +0.403 HD
ENDBRANCH  28  29
TORSDOF 5
ENDMDL
MODEL 6
REMARK VINA RESULT:      -5.8      4.574      6.041
REMARK  Name = ZINC95486236
REMARK  7 active torsions:
REMARK  status: ('A' for Active; 'I' for Inactive)
REMARK    1  A    between atoms: C1_1  and  C2_2
REMARK    2  A    between atoms: C2_2  and  C20_28
REMARK    3  A    between atoms: C3_3  and  O7_27
REMARK    4  A    between atoms: C10_11  and  O1_12
REMARK    5  A    between atoms: C12_15  and  O5_25
REMARK    6  A    between atoms: C13_16  and  C14_18
REMARK    7  A    between atoms: C17_21  and  O4_24
REMARK                            x       y       z     vdW  Elec       q    Type
REMARK                         _______ _______ _______ _____ _____    ______ ____
ROOT
ATOM      1  C   UNL     1      49.437  12.975  15.940  0.00  0.00    +0.045 C 
ATOM      2  C   UNL     1      48.073  12.842  15.261  0.00  0.00    +0.120 C 
ATOM      3  C   UNL     1      48.263  12.476  13.788  0.00  0.00    +0.094 C 
ATOM      4  C   UNL     1      47.251  11.752  15.962  0.00  0.00    +0.156 C 
ATOM      7  C   UNL     1      47.178  12.092  17.453  0.00  0.00    +0.080 C 
ATOM      8  C   UNL     1      46.788  13.538  17.626  0.00  0.00    -0.217 A 
ATOM      9  C   UNL     1      46.905  14.449  16.585  0.00  0.00    +0.220 A 
ATOM     10  C   UNL     1      46.544  15.778  16.773  0.00  0.00    -0.032 A 
ATOM     11  C   UNL     1      46.061  16.210  17.998  0.00  0.00    +0.199 A 
ATOM     12  C   UNL     1      45.939  15.287  19.049  0.00  0.00    -0.285 A 
ATOM     13  C   UNL     1      45.420  15.758  20.343  0.00  0.00    +0.404 A 
ATOM     14  C   UNL     1      45.074  17.132  20.439  0.00  0.00    -0.045 A 
ATOM     17  C   UNL     1      45.235  17.937  19.354  0.00  0.00    +0.133 A 
ATOM     26  O   UNL     1      45.293  15.002  21.293  0.00  0.00    -0.453 OA
ATOM     27  O   UNL     1      45.711  17.500  18.179  0.00  0.00    -0.190 OA
ATOM     28  C   UNL     1      46.306  13.951  18.857  0.00  0.00    +0.242 A 
ATOM     31  O   UNL     1      47.363  14.077  15.361  0.00  0.00    -0.289 OA
ENDROOT
BRANCH  17  18
ATOM     18  C   UNL     1      44.868  19.360  19.475  0.00  0.00    -0.063 A 
ATOM     19  C   UNL     1      43.564  19.775  19.192  0.00  0.00    +0.068 A 
ATOM     20  C   UNL     1      43.226  21.105  19.308  0.00  0.00    -0.014 A 
ATOM     21  C   UNL     1      44.179  22.035  19.704  0.00  0.00    +0.127 A 
ATOM     24  C   UNL     1      45.478  21.627  19.987  0.00  0.00    -0.012 A 
ATOM     25  C   UNL     1      45.823  20.298  19.879  0.00  0.00    +0.089 A 
BRANCH  21  22
ATOM     22  O   UNL     1      43.843  23.346  19.815  0.00  0.00    -0.498 OA
ATOM     23  H   UNL     1      43.023  23.501  20.304  0.00  0.00    +0.396 HD
ENDBRANCH  21  22
ENDBRANCH  17  18
BRANCH   4   5
ATOM      5  O   UNL     1      47.884  10.484  15.786  0.00  0.00    -0.550 OA
ATOM      6  H   UNL     1      47.739   9.867  16.517  0.00  0.00    +0.387 HD
ENDBRANCH   4   5
BRANCH  14  15
ATOM     15  O   UNL     1      44.587  17.638  21.605  0.00  0.00    -0.450 OA
ATOM     16  H   UNL     1      45.048  18.430  21.914  0.00  0.00    +0.407 HD
ENDBRANCH  14  15
BRANCH  28  29
ATOM     29  O   UNL     1      46.190  13.059  19.875  0.00  0.00    -0.471 OA
ATOM     30  H   UNL     1      46.060  13.469  20.742  0.00  0.00    +0.403 HD
ENDBRANCH  28  29
TORSDOF 5
ENDMDL
MODEL 7
REMARK VINA RESULT:      -5.8      3.824      5.201
REMARK  Name = ZINC95486236
REMARK  7 active torsions:
REMARK  status: ('A' for Active; 'I' for Inactive)
REMARK    1  A    between atoms: C1_1  and  C2_2
REMARK    2  A    between atoms: C2_2  and  C20_28
REMARK    3  A    between atoms: C3_3  and  O7_27
REMARK    4  A    between atoms: C10_11  and  O1_12
REMARK    5  A    between atoms: C12_15  and  O5_25
REMARK    6  A    between atoms: C13_16  and  C14_18
REMARK    7  A    between atoms: C17_21  and  O4_24
REMARK                            x       y       z     vdW  Elec       q    Type
REMARK                         _______ _______ _______ _____ _____    ______ ____
ROOT
ATOM      1  C   UNL     1      48.474  12.935  14.841  0.00  0.00    +0.045 C 
ATOM      2  C   UNL     1      48.768  12.337  16.219  0.00  0.00    +0.120 C 
ATOM      3  C   UNL     1      48.782  10.810  16.126  0.00  0.00    +0.094 C 
ATOM      4  C   UNL     1      50.129  12.837  16.719  0.00  0.00    +0.156 C 
ATOM      7  C   UNL     1      50.118  14.368  16.690  0.00  0.00    +0.080 C 
ATOM      8  C   UNL     1      48.858  14.879  17.341  0.00  0.00    -0.217 A 
ATOM      9  C   UNL     1      47.755  14.057  17.528  0.00  0.00    +0.220 A 
ATOM     10  C   UNL     1      46.603  14.555  18.126  0.00  0.00    -0.032 A 
ATOM     11  C   UNL     1      46.541  15.875  18.545  0.00  0.00    +0.199 A 
ATOM     12  C   UNL     1      47.659  16.705  18.359  0.00  0.00    -0.285 A 
ATOM     13  C   UNL     1      47.581  18.103  18.812  0.00  0.00    +0.404 A 
ATOM     14  C   UNL     1      46.366  18.520  19.415  0.00  0.00    -0.045 A 
ATOM     17  C   UNL     1      45.345  17.629  19.543  0.00  0.00    +0.133 A 
ATOM     26  O   UNL     1      48.521  18.870  18.676  0.00  0.00    -0.453 OA
ATOM     27  O   UNL     1      45.424  16.358  19.125  0.00  0.00    -0.190 OA
ATOM     28  C   UNL     1      48.816  16.201  17.754  0.00  0.00    +0.242 A 
ATOM     31  O   UNL     1      47.766  12.753  17.147  0.00  0.00    -0.289 OA
ENDROOT
BRANCH  17  18
ATOM     18  C   UNL     1      44.092  18.083  20.173  0.00  0.00    -0.063 A 
ATOM     19  C   UNL     1      43.753  17.645  21.456  0.00  0.00    +0.068 A 
ATOM     20  C   UNL     1      42.581  18.072  22.040  0.00  0.00    -0.014 A 
ATOM     21  C   UNL     1      41.736  18.937  21.357  0.00  0.00    +0.127 A 
ATOM     24  C   UNL     1      42.069  19.377  20.080  0.00  0.00    -0.012 A 
ATOM     25  C   UNL     1      43.241  18.958  19.491  0.00  0.00    +0.089 A 
BRANCH  21  22
ATOM     22  O   UNL     1      40.581  19.356  21.936  0.00  0.00    -0.498 OA
ATOM     23  H   UNL     1      40.698  19.733  22.819  0.00  0.00    +0.396 HD
ENDBRANCH  21  22
ENDBRANCH  17  18
BRANCH   4   5
ATOM      5  O   UNL     1      51.165  12.345  15.867  0.00  0.00    -0.550 OA
ATOM      6  H   UNL     1      51.832  13.008  15.637  0.00  0.00    +0.387 HD
ENDBRANCH   4   5
BRANCH  14  15
ATOM     15  O   UNL     1      46.222  19.799  19.859  0.00  0.00    -0.450 OA
ATOM     16  H   UNL     1      45.599  20.328  19.341  0.00  0.00    +0.407 HD
ENDBRANCH  14  15
BRANCH  28  29
ATOM     29  O   UNL     1      49.895  17.005  17.572  0.00  0.00    -0.471 OA
ATOM     30  H   UNL     1      50.156  17.108  16.646  0.00  0.00    +0.403 HD
ENDBRANCH  28  29
TORSDOF 5
ENDMDL
MODEL 8
REMARK VINA RESULT:      -5.8      4.564      7.969
REMARK  Name = ZINC95486236
REMARK  7 active torsions:
REMARK  status: ('A' for Active; 'I' for Inactive)
REMARK    1  A    between atoms: C1_1  and  C2_2
REMARK    2  A    between atoms: C2_2  and  C20_28
REMARK    3  A    between atoms: C3_3  and  O7_27
REMARK    4  A    between atoms: C10_11  and  O1_12
REMARK    5  A    between atoms: C12_15  and  O5_25
REMARK    6  A    between atoms: C13_16  and  C14_18
REMARK    7  A    between atoms: C17_21  and  O4_24
REMARK                            x       y       z     vdW  Elec       q    Type
REMARK                         _______ _______ _______ _____ _____    ______ ____
ROOT
ATOM      1  C   UNL     1      48.039  11.136  17.529  0.00  0.00    +0.045 C 
ATOM      2  C   UNL     1      47.689  11.882  16.241  0.00  0.00    +0.120 C 
ATOM      3  C   UNL     1      48.046  11.017  15.031  0.00  0.00    +0.094 C 
ATOM      4  C   UNL     1      46.189  12.204  16.222  0.00  0.00    +0.156 C 
ATOM      7  C   UNL     1      45.847  12.970  17.502  0.00  0.00    +0.080 C 
ATOM      8  C   UNL     1      46.840  14.086  17.707  0.00  0.00    -0.217 A 
ATOM      9  C   UNL     1      48.064  14.097  17.050  0.00  0.00    +0.220 A 
ATOM     10  C   UNL     1      48.964  15.135  17.261  0.00  0.00    -0.032 A 
ATOM     11  C   UNL     1      48.653  16.172  18.125  0.00  0.00    +0.199 A 
ATOM     12  C   UNL     1      47.413  16.164  18.786  0.00  0.00    -0.285 A 
ATOM     13  C   UNL     1      47.093  17.274  19.697  0.00  0.00    +0.404 A 
ATOM     14  C   UNL     1      48.073  18.291  19.846  0.00  0.00    -0.045 A 
ATOM     17  C   UNL     1      49.242  18.196  19.156  0.00  0.00    +0.133 A 
ATOM     26  O   UNL     1      46.032  17.319  20.299  0.00  0.00    -0.453 OA
ATOM     27  O   UNL     1      49.526  17.179  18.329  0.00  0.00    -0.190 OA
ATOM     28  C   UNL     1      46.511  15.116  18.573  0.00  0.00    +0.242 A 
ATOM     31  O   UNL     1      48.415  13.110  16.184  0.00  0.00    -0.289 OA
ENDROOT
BRANCH  17  18
ATOM     18  C   UNL     1      50.245  19.263  19.324  0.00  0.00    -0.063 A 
ATOM     19  C   UNL     1      51.113  19.244  20.419  0.00  0.00    +0.068 A 
ATOM     20  C   UNL     1      52.049  20.242  20.571  0.00  0.00    -0.014 A 
ATOM     21  C   UNL     1      52.131  21.269  19.639  0.00  0.00    +0.127 A 
ATOM     24  C   UNL     1      51.270  21.293  18.547  0.00  0.00    -0.012 A 
ATOM     25  C   UNL     1      50.335  20.295  18.385  0.00  0.00    +0.089 A 
BRANCH  21  22
ATOM     22  O   UNL     1      53.055  22.253  19.793  0.00  0.00    -0.498 OA
ATOM     23  H   UNL     1      52.913  22.806  20.574  0.00  0.00    +0.396 HD
ENDBRANCH  21  22
ENDBRANCH  17  18
BRANCH   4   5
ATOM      5  O   UNL     1      45.437  10.991  16.170  0.00  0.00    -0.550 OA
ATOM      6  H   UNL     1      45.676  10.350  16.855  0.00  0.00    +0.387 HD
ENDBRANCH   4   5
BRANCH  14  15
ATOM     15  O   UNL     1      47.846  19.349  20.672  0.00  0.00    -0.450 OA
ATOM     16  H   UNL     1      47.506  20.134  20.221  0.00  0.00    +0.407 HD
ENDBRANCH  14  15
BRANCH  28  29
ATOM     29  O   UNL     1      45.314  15.107  19.215  0.00  0.00    -0.471 OA
ATOM     30  H   UNL     1      45.385  15.141  20.179  0.00  0.00    +0.403 HD
ENDBRANCH  28  29
TORSDOF 5
ENDMDL
MODEL 9
REMARK VINA RESULT:      -5.6      3.070      4.991
REMARK  Name = ZINC95486236
REMARK  7 active torsions:
REMARK  status: ('A' for Active; 'I' for Inactive)
REMARK    1  A    between atoms: C1_1  and  C2_2
REMARK    2  A    between atoms: C2_2  and  C20_28
REMARK    3  A    between atoms: C3_3  and  O7_27
REMARK    4  A    between atoms: C10_11  and  O1_12
REMARK    5  A    between atoms: C12_15  and  O5_25
REMARK    6  A    between atoms: C13_16  and  C14_18
REMARK    7  A    between atoms: C17_21  and  O4_24
REMARK                            x       y       z     vdW  Elec       q    Type
REMARK                         _______ _______ _______ _____ _____    ______ ____
ROOT
ATOM      1  C   UNL     1      50.449  14.232  18.521  0.00  0.00    +0.045 C 
ATOM      2  C   UNL     1      49.987  14.688  17.136  0.00  0.00    +0.120 C 
ATOM      3  C   UNL     1      51.111  14.474  16.121  0.00  0.00    +0.094 C 
ATOM      4  C   UNL     1      48.750  13.884  16.714  0.00  0.00    +0.156 C 
ATOM      7  C   UNL     1      47.688  14.029  17.807  0.00  0.00    +0.080 C 
ATOM      8  C   UNL     1      47.534  15.482  18.177  0.00  0.00    -0.217 A 
ATOM      9  C   UNL     1      48.507  16.419  17.853  0.00  0.00    +0.220 A 
ATOM     10  C   UNL     1      48.344  17.752  18.211  0.00  0.00    -0.032 A 
ATOM     11  C   UNL     1      47.209  18.165  18.891  0.00  0.00    +0.199 A 
ATOM     12  C   UNL     1      46.223  17.218  19.215  0.00  0.00    -0.285 A 
ATOM     13  C   UNL     1      45.021  17.670  19.933  0.00  0.00    +0.404 A 
ATOM     14  C   UNL     1      44.940  19.051  20.253  0.00  0.00    -0.045 A 
ATOM     17  C   UNL     1      45.957  19.879  19.891  0.00  0.00    +0.133 A 
ATOM     26  O   UNL     1      44.132  16.892  20.241  0.00  0.00    -0.453 OA
ATOM     27  O   UNL     1      47.050  19.458  19.238  0.00  0.00    -0.190 OA
ATOM     28  C   UNL     1      46.393  15.876  18.856  0.00  0.00    +0.242 A 
ATOM     31  O   UNL     1      49.633  16.071  17.178  0.00  0.00    -0.289 OA
ENDROOT
BRANCH  17  18
ATOM     18  C   UNL     1      45.853  21.310  20.231  0.00  0.00    -0.063 A 
ATOM     19  C   UNL     1      44.983  22.139  19.518  0.00  0.00    +0.068 A 
ATOM     20  C   UNL     1      44.889  23.474  19.841  0.00  0.00    -0.014 A 
ATOM     21  C   UNL     1      45.657  23.999  20.873  0.00  0.00    +0.127 A 
ATOM     24  C   UNL     1      46.524  23.178  21.586  0.00  0.00    -0.012 A 
ATOM     25  C   UNL     1      46.620  21.840  21.273  0.00  0.00    +0.089 A 
BRANCH  21  22
ATOM     22  O   UNL     1      45.562  25.317  21.188  0.00  0.00    -0.498 OA
ATOM     23  H   UNL     1      44.743  25.553  21.645  0.00  0.00    +0.396 HD
ENDBRANCH  21  22
ENDBRANCH  17  18
BRANCH   4   5
ATOM      5  O   UNL     1      49.100  12.508  16.559  0.00  0.00    -0.550 OA
ATOM      6  H   UNL     1      49.174  12.025  17.394  0.00  0.00    +0.387 HD
ENDBRANCH   4   5
BRANCH  14  15
ATOM     15  O   UNL     1      43.857  19.541  20.916  0.00  0.00    -0.450 OA
ATOM     16  H   UNL     1      43.870  20.500  21.036  0.00  0.00    +0.407 HD
ENDBRANCH  14  15
BRANCH  28  29
ATOM     29  O   UNL     1      45.440  14.961  19.171  0.00  0.00    -0.471 OA
ATOM     30  H   UNL     1      45.072  15.067  20.059  0.00  0.00    +0.403 HD
ENDBRANCH  28  29
TORSDOF 5
ENDMDL
