MODEL 1
REMARK VINA RESULT:      -6.0      0.000      0.000
REMARK  Name = ZINC15156307
REMARK  7 active torsions:
REMARK  status: ('A' for Active; 'I' for Inactive)
REMARK    1  A    between atoms: C1_1  and  C2_2
REMARK    2  A    between atoms: C5_6  and  C20_24
REMARK    3  A    between atoms: C7_9  and  C8_10
REMARK    4  A    between atoms: C7_9  and  C9_11
REMARK    5  A    between atoms: C9_11  and  C10_12
REMARK    6  A    between atoms: C10_12  and  C11_13
REMARK    7  A    between atoms: C18_21  and  C19_22
REMARK                            x       y       z     vdW  Elec       q    Type
REMARK                         _______ _______ _______ _____ _____    ______ ____
ROOT
ATOM      1  C   UNL     1      45.157  23.111  21.742  0.00  0.00    +0.007 C 
ATOM      2  C   UNL     1      45.726  22.268  20.597  0.00  0.00    -0.019 C 
ATOM      3  C   UNL     1      44.889  22.455  19.344  0.00  0.00    -0.007 C 
ATOM      4  C   UNL     1      43.508  21.816  19.485  0.00  0.00    +0.049 C 
ATOM      5  C   UNL     1      43.657  20.324  19.758  0.00  0.00    +0.013 C 
ATOM      6  C   UNL     1      44.255  19.654  18.519  0.00  0.00    +0.022 C 
ATOM      7  C   UNL     1      44.501  20.093  21.000  0.00  0.00    -0.004 C 
ATOM      8  C   UNL     1      44.616  18.591  21.262  0.00  0.00    +0.007 C 
ATOM      9  C   UNL     1      43.232  18.072  21.671  0.00  0.00    +0.042 C 
ATOM     10  C   UNL     1      42.148  18.689  20.842  0.00  0.00    -0.053 C 
ATOM     11  C   UNL     1      42.313  19.678  19.987  0.00  0.00    -0.133 C 
ATOM     15  C   UNL     1      45.831  20.808  21.036  0.00  0.00    -0.031 C 
ATOM     23  C   UNL     1      46.330  20.821  22.503  0.00  0.00    +0.007 C 
ENDROOT
BRANCH  11  12
ATOM     12  C   UNL     1      41.151  20.159  19.233  0.00  0.00    +0.485 C 
ATOM     13  O   UNL     1      41.078  19.954  17.903  0.00  0.00    -0.749 OA
ATOM     14  O   UNL     1      40.253  20.744  19.807  0.00  0.00    -0.643 OA
ENDBRANCH  11  12
BRANCH  15  16
ATOM     16  C   UNL     1      46.900  20.091  20.207  0.00  0.00    +0.028 C 
BRANCH  16  17
ATOM     17  C   UNL     1      48.186  20.920  20.209  0.00  0.00    +0.089 C 
BRANCH  17  18
ATOM     18  C   UNL     1      49.165  20.329  19.228  0.00  0.00    -0.167 A 
ATOM     19  C   UNL     1      50.236  21.002  18.595  0.00  0.00    -0.061 A 
ATOM     20  C   UNL     1      50.849  20.104  17.805  0.00  0.00    +0.151 A 
ATOM     21  O   UNL     1      50.210  18.928  17.925  0.00  0.00    -0.181 OA
ATOM     22  C   UNL     1      49.191  19.058  18.790  0.00  0.00    +0.147 A 
ENDBRANCH  17  18
ENDBRANCH  16  17
ENDBRANCH  15  16
TORSDOF 4
ENDMDL
MODEL 2
REMARK VINA RESULT:      -5.9      1.885      3.262
REMARK  Name = ZINC15156307
REMARK  7 active torsions:
REMARK  status: ('A' for Active; 'I' for Inactive)
REMARK    1  A    between atoms: C1_1  and  C2_2
REMARK    2  A    between atoms: C5_6  and  C20_24
REMARK    3  A    between atoms: C7_9  and  C8_10
REMARK    4  A    between atoms: C7_9  and  C9_11
REMARK    5  A    between atoms: C9_11  and  C10_12
REMARK    6  A    between atoms: C10_12  and  C11_13
REMARK    7  A    between atoms: C18_21  and  C19_22
REMARK                            x       y       z     vdW  Elec       q    Type
REMARK                         _______ _______ _______ _____ _____    ______ ____
ROOT
ATOM      1  C   UNL     1      48.626  20.324  22.505  0.00  0.00    +0.007 C 
ATOM      2  C   UNL     1      48.536  21.073  21.173  0.00  0.00    -0.019 C 
ATOM      3  C   UNL     1      47.257  21.890  21.116  0.00  0.00    -0.007 C 
ATOM      4  C   UNL     1      46.022  20.997  21.003  0.00  0.00    +0.049 C 
ATOM      5  C   UNL     1      46.116  20.144  19.744  0.00  0.00    +0.013 C 
ATOM      6  C   UNL     1      46.031  21.060  18.521  0.00  0.00    +0.022 C 
ATOM      7  C   UNL     1      47.392  19.319  19.756  0.00  0.00    -0.004 C 
ATOM      8  C   UNL     1      47.451  18.459  18.493  0.00  0.00    +0.007 C 
ATOM      9  C   UNL     1      46.344  17.402  18.587  0.00  0.00    +0.042 C 
ATOM     10  C   UNL     1      45.077  17.981  19.137  0.00  0.00    -0.053 C 
ATOM     11  C   UNL     1      44.952  19.190  19.648  0.00  0.00    -0.133 C 
ATOM     15  C   UNL     1      48.668  20.084  20.016  0.00  0.00    -0.031 C 
ATOM     23  C   UNL     1      49.763  19.067  20.426  0.00  0.00    +0.007 C 
ENDROOT
BRANCH  11  12
ATOM     12  C   UNL     1      43.634  19.619  20.129  0.00  0.00    +0.485 C 
ATOM     13  O   UNL     1      42.896  20.478  19.398  0.00  0.00    -0.749 OA
ATOM     14  O   UNL     1      43.208  19.199  21.187  0.00  0.00    -0.643 OA
ENDBRANCH  11  12
BRANCH  15  16
ATOM     16  C   UNL     1      49.178  20.809  18.768  0.00  0.00    +0.028 C 
BRANCH  16  17
ATOM     17  C   UNL     1      50.708  20.833  18.782  0.00  0.00    +0.089 C 
BRANCH  17  18
ATOM     18  C   UNL     1      51.230  20.355  17.452  0.00  0.00    -0.167 A 
ATOM     19  C   UNL     1      51.327  19.013  17.017  0.00  0.00    -0.061 A 
ATOM     20  C   UNL     1      51.842  19.041  15.775  0.00  0.00    +0.151 A 
ATOM     21  O   UNL     1      52.061  20.323  15.436  0.00  0.00    -0.181 OA
ATOM     22  C   UNL     1      51.687  21.124  16.447  0.00  0.00    +0.147 A 
ENDBRANCH  17  18
ENDBRANCH  16  17
ENDBRANCH  15  16
TORSDOF 4
ENDMDL
MODEL 3
REMARK VINA RESULT:      -5.6      1.741      6.522
REMARK  Name = ZINC15156307
REMARK  7 active torsions:
REMARK  status: ('A' for Active; 'I' for Inactive)
REMARK    1  A    between atoms: C1_1  and  C2_2
REMARK    2  A    between atoms: C5_6  and  C20_24
REMARK    3  A    between atoms: C7_9  and  C8_10
REMARK    4  A    between atoms: C7_9  and  C9_11
REMARK    5  A    between atoms: C9_11  and  C10_12
REMARK    6  A    between atoms: C10_12  and  C11_13
REMARK    7  A    between atoms: C18_21  and  C19_22
REMARK                            x       y       z     vdW  Elec       q    Type
REMARK                         _______ _______ _______ _____ _____    ______ ____
ROOT
ATOM      1  C   UNL     1      44.867  18.517  22.217  0.00  0.00    +0.007 C 
ATOM      2  C   UNL     1      44.477  18.725  20.751  0.00  0.00    -0.019 C 
ATOM      3  C   UNL     1      44.695  17.445  19.965  0.00  0.00    -0.007 C 
ATOM      4  C   UNL     1      46.181  17.128  19.802  0.00  0.00    +0.049 C 
ATOM      5  C   UNL     1      46.876  18.273  19.077  0.00  0.00    +0.013 C 
ATOM      6  C   UNL     1      46.348  18.341  17.643  0.00  0.00    +0.022 C 
ATOM      7  C   UNL     1      46.670  19.579  19.827  0.00  0.00    -0.004 C 
ATOM      8  C   UNL     1      47.394  20.706  19.090  0.00  0.00    +0.007 C 
ATOM      9  C   UNL     1      48.903  20.460  19.211  0.00  0.00    +0.042 C 
ATOM     10  C   UNL     1      49.238  19.011  19.043  0.00  0.00    -0.053 C 
ATOM     11  C   UNL     1      48.361  18.029  18.976  0.00  0.00    -0.133 C 
ATOM     15  C   UNL     1      45.241  19.918  20.179  0.00  0.00    -0.031 C 
ATOM     23  C   UNL     1      45.263  21.002  21.286  0.00  0.00    +0.007 C 
ENDROOT
BRANCH  11  12
ATOM     12  C   UNL     1      48.850  16.659  18.790  0.00  0.00    +0.485 C 
ATOM     13  O   UNL     1      48.757  16.068  17.582  0.00  0.00    -0.749 OA
ATOM     14  O   UNL     1      49.338  16.056  19.725  0.00  0.00    -0.643 OA
ENDBRANCH  11  12
BRANCH  15  16
ATOM     16  C   UNL     1      44.473  20.507  18.993  0.00  0.00    +0.028 C 
BRANCH  16  17
ATOM     17  C   UNL     1      43.426  21.499  19.506  0.00  0.00    +0.089 C 
BRANCH  17  18
ATOM     18  C   UNL     1      42.083  21.161  18.913  0.00  0.00    -0.167 A 
ATOM     19  C   UNL     1      41.655  19.891  18.463  0.00  0.00    -0.061 A 
ATOM     20  C   UNL     1      40.396  20.039  18.013  0.00  0.00    +0.151 A 
ATOM     21  O   UNL     1      40.041  21.326  18.166  0.00  0.00    -0.181 OA
ATOM     22  C   UNL     1      41.058  22.009  18.715  0.00  0.00    +0.147 A 
ENDBRANCH  17  18
ENDBRANCH  16  17
ENDBRANCH  15  16
TORSDOF 4
ENDMDL
MODEL 4
REMARK VINA RESULT:      -5.5      1.472      6.646
REMARK  Name = ZINC15156307
REMARK  7 active torsions:
REMARK  status: ('A' for Active; 'I' for Inactive)
REMARK    1  A    between atoms: C1_1  and  C2_2
REMARK    2  A    between atoms: C5_6  and  C20_24
REMARK    3  A    between atoms: C7_9  and  C8_10
REMARK    4  A    between atoms: C7_9  and  C9_11
REMARK    5  A    between atoms: C9_11  and  C10_12
REMARK    6  A    between atoms: C10_12  and  C11_13
REMARK    7  A    between atoms: C18_21  and  C19_22
REMARK                            x       y       z     vdW  Elec       q    Type
REMARK                         _______ _______ _______ _____ _____    ______ ____
ROOT
ATOM      1  C   UNL     1      45.506  16.588  19.730  0.00  0.00    +0.007 C 
ATOM      2  C   UNL     1      44.987  17.938  19.228  0.00  0.00    -0.019 C 
ATOM      3  C   UNL     1      45.810  18.407  18.042  0.00  0.00    -0.007 C 
ATOM      4  C   UNL     1      47.226  18.805  18.458  0.00  0.00    +0.049 C 
ATOM      5  C   UNL     1      47.164  19.927  19.488  0.00  0.00    +0.013 C 
ATOM      6  C   UNL     1      46.605  21.182  18.815  0.00  0.00    +0.022 C 
ATOM      7  C   UNL     1      46.336  19.501  20.688  0.00  0.00    -0.004 C 
ATOM      8  C   UNL     1      46.308  20.636  21.713  0.00  0.00    +0.007 C 
ATOM      9  C   UNL     1      47.720  20.788  22.291  0.00  0.00    +0.042 C 
ATOM     10  C   UNL     1      48.766  20.657  21.227  0.00  0.00    -0.053 C 
ATOM     11  C   UNL     1      48.544  20.284  19.983  0.00  0.00    -0.133 C 
ATOM     15  C   UNL     1      44.967  18.942  20.380  0.00  0.00    -0.031 C 
ATOM     23  C   UNL     1      44.468  18.174  21.629  0.00  0.00    +0.007 C 
ENDROOT
BRANCH  11  12
ATOM     12  C   UNL     1      49.675  20.223  19.052  0.00  0.00    +0.485 C 
ATOM     13  O   UNL     1      50.443  19.116  18.995  0.00  0.00    -0.749 OA
ATOM     14  O   UNL     1      49.921  21.170  18.332  0.00  0.00    -0.643 OA
ENDBRANCH  11  12
BRANCH  15  16
ATOM     16  C   UNL     1      43.941  20.042  20.093  0.00  0.00    +0.028 C 
BRANCH  16  17
ATOM     17  C   UNL     1      42.552  19.416  19.946  0.00  0.00    +0.089 C 
BRANCH  17  18
ATOM     18  C   UNL     1      41.612  20.422  19.334  0.00  0.00    -0.167 A 
ATOM     19  C   UNL     1      40.214  20.282  19.175  0.00  0.00    -0.061 A 
ATOM     20  C   UNL     1      39.772  21.409  18.588  0.00  0.00    +0.151 A 
ATOM     21  O   UNL     1      40.824  22.219  18.384  0.00  0.00    -0.181 OA
ATOM     22  C   UNL     1      41.941  21.628  18.838  0.00  0.00    +0.147 A 
ENDBRANCH  17  18
ENDBRANCH  16  17
ENDBRANCH  15  16
TORSDOF 4
ENDMDL
MODEL 5
REMARK VINA RESULT:      -5.3      1.963      7.436
REMARK  Name = ZINC15156307
REMARK  7 active torsions:
REMARK  status: ('A' for Active; 'I' for Inactive)
REMARK    1  A    between atoms: C1_1  and  C2_2
REMARK    2  A    between atoms: C5_6  and  C20_24
REMARK    3  A    between atoms: C7_9  and  C8_10
REMARK    4  A    between atoms: C7_9  and  C9_11
REMARK    5  A    between atoms: C9_11  and  C10_12
REMARK    6  A    between atoms: C10_12  and  C11_13
REMARK    7  A    between atoms: C18_21  and  C19_22
REMARK                            x       y       z     vdW  Elec       q    Type
REMARK                         _______ _______ _______ _____ _____    ______ ____
ROOT
ATOM      1  C   UNL     1      48.944  18.899  22.345  0.00  0.00    +0.007 C 
ATOM      2  C   UNL     1      48.162  18.742  21.038  0.00  0.00    -0.019 C 
ATOM      3  C   UNL     1      48.489  17.409  20.389  0.00  0.00    -0.007 C 
ATOM      4  C   UNL     1      49.918  17.379  19.849  0.00  0.00    +0.049 C 
ATOM      5  C   UNL     1      50.102  18.486  18.817  0.00  0.00    +0.013 C 
ATOM      6  C   UNL     1      49.234  18.172  17.598  0.00  0.00    +0.022 C 
ATOM      7  C   UNL     1      49.772  19.838  19.425  0.00  0.00    -0.004 C 
ATOM      8  C   UNL     1      49.985  20.931  18.377  0.00  0.00    +0.007 C 
ATOM      9  C   UNL     1      51.488  21.027  18.091  0.00  0.00    +0.042 C 
ATOM     10  C   UNL     1      52.121  19.672  18.017  0.00  0.00    -0.053 C 
ATOM     11  C   UNL     1      51.528  18.537  18.327  0.00  0.00    -0.133 C 
ATOM     15  C   UNL     1      48.437  19.937  20.126  0.00  0.00    -0.031 C 
ATOM     23  C   UNL     1      48.464  21.191  21.036  0.00  0.00    +0.007 C 
ENDROOT
BRANCH  11  12
ATOM     12  C   UNL     1      52.280  17.286  18.182  0.00  0.00    +0.485 C 
ATOM     13  O   UNL     1      53.180  16.928  19.119  0.00  0.00    -0.749 OA
ATOM     14  O   UNL     1      52.092  16.572  17.217  0.00  0.00    -0.643 OA
ENDBRANCH  11  12
BRANCH  15  16
ATOM     16  C   UNL     1      47.277  20.122  19.145  0.00  0.00    +0.028 C 
BRANCH  16  17
ATOM     17  C   UNL     1      46.443  21.334  19.566  0.00  0.00    +0.089 C 
BRANCH  17  18
ATOM     18  C   UNL     1      44.982  21.038  19.347  0.00  0.00    -0.167 A 
ATOM     19  C   UNL     1      44.436  19.876  18.755  0.00  0.00    -0.061 A 
ATOM     20  C   UNL     1      43.100  20.026  18.760  0.00  0.00    +0.151 A 
ATOM     21  O   UNL     1      42.809  21.212  19.320  0.00  0.00    -0.181 OA
ATOM     22  C   UNL     1      43.945  21.828  19.682  0.00  0.00    +0.147 A 
ENDBRANCH  17  18
ENDBRANCH  16  17
ENDBRANCH  15  16
TORSDOF 4
ENDMDL
MODEL 6
REMARK VINA RESULT:      -5.3      2.207      3.710
REMARK  Name = ZINC15156307
REMARK  7 active torsions:
REMARK  status: ('A' for Active; 'I' for Inactive)
REMARK    1  A    between atoms: C1_1  and  C2_2
REMARK    2  A    between atoms: C5_6  and  C20_24
REMARK    3  A    between atoms: C7_9  and  C8_10
REMARK    4  A    between atoms: C7_9  and  C9_11
REMARK    5  A    between atoms: C9_11  and  C10_12
REMARK    6  A    between atoms: C10_12  and  C11_13
REMARK    7  A    between atoms: C18_21  and  C19_22
REMARK                            x       y       z     vdW  Elec       q    Type
REMARK                         _______ _______ _______ _____ _____    ______ ____
ROOT
ATOM      1  C   UNL     1      49.449  18.922  22.194  0.00  0.00    +0.007 C 
ATOM      2  C   UNL     1      49.390  19.391  20.738  0.00  0.00    -0.019 C 
ATOM      3  C   UNL     1      48.992  20.854  20.675  0.00  0.00    -0.007 C 
ATOM      4  C   UNL     1      47.533  21.060  21.080  0.00  0.00    +0.049 C 
ATOM      5  C   UNL     1      46.623  20.263  20.152  0.00  0.00    +0.013 C 
ATOM      6  C   UNL     1      46.710  20.860  18.746  0.00  0.00    +0.022 C 
ATOM      7  C   UNL     1      46.999  18.791  20.176  0.00  0.00    -0.004 C 
ATOM      8  C   UNL     1      46.059  18.013  19.255  0.00  0.00    +0.007 C 
ATOM      9  C   UNL     1      44.659  18.033  19.879  0.00  0.00    +0.042 C 
ATOM     10  C   UNL     1      44.332  19.377  20.453  0.00  0.00    -0.053 C 
ATOM     11  C   UNL     1      45.180  20.378  20.579  0.00  0.00    -0.133 C 
ATOM     15  C   UNL     1      48.458  18.480  19.940  0.00  0.00    -0.031 C 
ATOM     23  C   UNL     1      48.726  17.034  20.430  0.00  0.00    +0.007 C 
ENDROOT
BRANCH  11  12
ATOM     12  C   UNL     1      44.700  21.642  21.145  0.00  0.00    +0.485 C 
ATOM     13  O   UNL     1      44.371  22.664  20.330  0.00  0.00    -0.749 OA
ATOM     14  O   UNL     1      44.599  21.769  22.349  0.00  0.00    -0.643 OA
ENDBRANCH  11  12
BRANCH  15  16
ATOM     16  C   UNL     1      48.831  18.525  18.456  0.00  0.00    +0.028 C 
BRANCH  16  17
ATOM     17  C   UNL     1      50.326  18.240  18.298  0.00  0.00    +0.089 C 
BRANCH  17  18
ATOM     18  C   UNL     1      50.923  19.224  17.325  0.00  0.00    -0.167 A 
ATOM     19  C   UNL     1      51.068  20.617  17.516  0.00  0.00    -0.061 A 
ATOM     20  C   UNL     1      51.647  21.106  16.405  0.00  0.00    +0.151 A 
ATOM     21  O   UNL     1      51.859  20.087  15.555  0.00  0.00    -0.181 OA
ATOM     22  C   UNL     1      51.427  18.944  16.110  0.00  0.00    +0.147 A 
ENDBRANCH  17  18
ENDBRANCH  16  17
ENDBRANCH  15  16
TORSDOF 4
ENDMDL
MODEL 7
REMARK VINA RESULT:      -5.3      2.536      6.979
REMARK  Name = ZINC15156307
REMARK  7 active torsions:
REMARK  status: ('A' for Active; 'I' for Inactive)
REMARK    1  A    between atoms: C1_1  and  C2_2
REMARK    2  A    between atoms: C5_6  and  C20_24
REMARK    3  A    between atoms: C7_9  and  C8_10
REMARK    4  A    between atoms: C7_9  and  C9_11
REMARK    5  A    between atoms: C9_11  and  C10_12
REMARK    6  A    between atoms: C10_12  and  C11_13
REMARK    7  A    between atoms: C18_21  and  C19_22
REMARK                            x       y       z     vdW  Elec       q    Type
REMARK                         _______ _______ _______ _____ _____    ______ ____
ROOT
ATOM      1  C   UNL     1      46.182  21.080  18.640  0.00  0.00    +0.007 C 
ATOM      2  C   UNL     1      46.828  20.349  19.820  0.00  0.00    -0.019 C 
ATOM      3  C   UNL     1      48.130  21.028  20.208  0.00  0.00    -0.007 C 
ATOM      4  C   UNL     1      49.210  20.826  19.146  0.00  0.00    +0.049 C 
ATOM      5  C   UNL     1      49.471  19.337  18.954  0.00  0.00    +0.013 C 
ATOM      6  C   UNL     1      50.094  18.777  20.234  0.00  0.00    +0.022 C 
ATOM      7  C   UNL     1      48.187  18.617  18.577  0.00  0.00    -0.004 C 
ATOM      8  C   UNL     1      48.482  17.130  18.371  0.00  0.00    +0.007 C 
ATOM      9  C   UNL     1      49.351  16.988  17.116  0.00  0.00    +0.042 C 
ATOM     10  C   UNL     1      50.396  18.058  17.047  0.00  0.00    -0.053 C 
ATOM     11  C   UNL     1      50.473  19.100  17.851  0.00  0.00    -0.133 C 
ATOM     15  C   UNL     1      47.002  18.870  19.478  0.00  0.00    -0.031 C 
ATOM     23  C   UNL     1      45.721  18.438  18.720  0.00  0.00    +0.007 C 
ENDROOT
BRANCH  11  12
ATOM     12  C   UNL     1      51.573  20.052  17.667  0.00  0.00    +0.485 C 
ATOM     13  O   UNL     1      51.470  21.031  16.746  0.00  0.00    -0.749 OA
ATOM     14  O   UNL     1      52.577  19.960  18.345  0.00  0.00    -0.643 OA
ENDBRANCH  11  12
BRANCH  15  16
ATOM     16  C   UNL     1      47.059  18.042  20.764  0.00  0.00    +0.028 C 
BRANCH  16  17
ATOM     17  C   UNL     1      46.279  18.759  21.867  0.00  0.00    +0.089 C 
BRANCH  17  18
ATOM     18  C   UNL     1      44.966  18.054  22.092  0.00  0.00    -0.167 A 
ATOM     19  C   UNL     1      44.773  16.664  22.262  0.00  0.00    -0.061 A 
ATOM     20  C   UNL     1      43.454  16.470  22.434  0.00  0.00    +0.151 A 
ATOM     21  O   UNL     1      42.840  17.665  22.378  0.00  0.00    -0.181 OA
ATOM     22  C   UNL     1      43.752  18.628  22.176  0.00  0.00    +0.147 A 
ENDBRANCH  17  18
ENDBRANCH  16  17
ENDBRANCH  15  16
TORSDOF 4
ENDMDL
MODEL 8
REMARK VINA RESULT:      -5.3      2.191      7.330
REMARK  Name = ZINC15156307
REMARK  7 active torsions:
REMARK  status: ('A' for Active; 'I' for Inactive)
REMARK    1  A    between atoms: C1_1  and  C2_2
REMARK    2  A    between atoms: C5_6  and  C20_24
REMARK    3  A    between atoms: C7_9  and  C8_10
REMARK    4  A    between atoms: C7_9  and  C9_11
REMARK    5  A    between atoms: C9_11  and  C10_12
REMARK    6  A    between atoms: C10_12  and  C11_13
REMARK    7  A    between atoms: C18_21  and  C19_22
REMARK                            x       y       z     vdW  Elec       q    Type
REMARK                         _______ _______ _______ _____ _____    ______ ____
ROOT
ATOM      1  C   UNL     1      49.778  16.460  20.061  0.00  0.00    +0.007 C 
ATOM      2  C   UNL     1      48.826  17.658  20.005  0.00  0.00    -0.019 C 
ATOM      3  C   UNL     1      48.629  18.103  18.566  0.00  0.00    -0.007 C 
ATOM      4  C   UNL     1      49.895  18.741  17.994  0.00  0.00    +0.049 C 
ATOM      5  C   UNL     1      50.285  19.951  18.833  0.00  0.00    +0.013 C 
ATOM      6  C   UNL     1      49.214  21.031  18.669  0.00  0.00    +0.022 C 
ATOM      7  C   UNL     1      50.480  19.550  20.286  0.00  0.00    -0.004 C 
ATOM      8  C   UNL     1      50.891  20.778  21.100  0.00  0.00    +0.007 C 
ATOM      9  C   UNL     1      52.298  21.193  20.654  0.00  0.00    +0.042 C 
ATOM     10  C   UNL     1      52.456  21.092  19.169  0.00  0.00    -0.053 C 
ATOM     11  C   UNL     1      51.580  20.554  18.344  0.00  0.00    -0.133 C 
ATOM     15  C   UNL     1      49.346  18.773  20.911  0.00  0.00    -0.031 C 
ATOM     23  C   UNL     1      49.883  18.087  22.193  0.00  0.00    +0.007 C 
ENDROOT
BRANCH  11  12
ATOM     12  C   UNL     1      51.873  20.549  16.908  0.00  0.00    +0.485 C 
ATOM     13  O   UNL     1      51.419  21.547  16.124  0.00  0.00    -0.749 OA
ATOM     14  O   UNL     1      52.526  19.646  16.423  0.00  0.00    -0.643 OA
ENDBRANCH  11  12
BRANCH  15  16
ATOM     16  C   UNL     1      48.188  19.677  21.341  0.00  0.00    +0.028 C 
BRANCH  16  17
ATOM     17  C   UNL     1      46.896  18.857  21.397  0.00  0.00    +0.089 C 
BRANCH  17  18
ATOM     18  C   UNL     1      45.773  19.649  20.780  0.00  0.00    -0.167 A 
ATOM     19  C   UNL     1      45.702  20.114  19.446  0.00  0.00    -0.061 A 
ATOM     20  C   UNL     1      44.535  20.770  19.322  0.00  0.00    +0.151 A 
ATOM     21  O   UNL     1      43.897  20.727  20.505  0.00  0.00    -0.181 OA
ATOM     22  C   UNL     1      44.642  20.045  21.390  0.00  0.00    +0.147 A 
ENDBRANCH  17  18
ENDBRANCH  16  17
ENDBRANCH  15  16
TORSDOF 4
ENDMDL
MODEL 9
REMARK VINA RESULT:      -4.9      4.385      6.191
REMARK  Name = ZINC15156307
REMARK  7 active torsions:
REMARK  status: ('A' for Active; 'I' for Inactive)
REMARK    1  A    between atoms: C1_1  and  C2_2
REMARK    2  A    between atoms: C5_6  and  C20_24
REMARK    3  A    between atoms: C7_9  and  C8_10
REMARK    4  A    between atoms: C7_9  and  C9_11
REMARK    5  A    between atoms: C9_11  and  C10_12
REMARK    6  A    between atoms: C10_12  and  C11_13
REMARK    7  A    between atoms: C18_21  and  C19_22
REMARK                            x       y       z     vdW  Elec       q    Type
REMARK                         _______ _______ _______ _____ _____    ______ ____
ROOT
ATOM      1  C   UNL     1      45.851  18.123  18.633  0.00  0.00    +0.007 C 
ATOM      2  C   UNL     1      47.245  17.960  18.020  0.00  0.00    -0.019 C 
ATOM      3  C   UNL     1      47.149  17.244  16.685  0.00  0.00    -0.007 C 
ATOM      4  C   UNL     1      46.761  15.776  16.858  0.00  0.00    +0.049 C 
ATOM      5  C   UNL     1      47.798  15.068  17.722  0.00  0.00    +0.013 C 
ATOM      6  C   UNL     1      49.123  15.018  16.959  0.00  0.00    +0.022 C 
ATOM      7  C   UNL     1      47.934  15.763  19.066  0.00  0.00    -0.004 C 
ATOM      8  C   UNL     1      48.963  15.021  19.919  0.00  0.00    +0.007 C 
ATOM      9  C   UNL     1      48.378  13.652  20.284  0.00  0.00    +0.042 C 
ATOM     10  C   UNL     1      47.661  13.033  19.124  0.00  0.00    -0.053 C 
ATOM     11  C   UNL     1      47.399  13.636  17.982  0.00  0.00    -0.133 C 
ATOM     15  C   UNL     1      48.165  17.255  19.015  0.00  0.00    -0.031 C 
ATOM     23  C   UNL     1      47.839  17.840  20.412  0.00  0.00    +0.007 C 
ENDROOT
BRANCH  11  12
ATOM     12  C   UNL     1      46.704  12.885  16.932  0.00  0.00    +0.485 C 
ATOM     13  O   UNL     1      47.375  12.484  15.833  0.00  0.00    -0.749 OA
ATOM     14  O   UNL     1      45.523  12.624  17.051  0.00  0.00    -0.643 OA
ENDBRANCH  11  12
BRANCH  15  16
ATOM     16  C   UNL     1      49.624  17.607  18.713  0.00  0.00    +0.028 C 
BRANCH  16  17
ATOM     17  C   UNL     1      49.782  19.129  18.668  0.00  0.00    +0.089 C 
BRANCH  17  18
ATOM     18  C   UNL     1      50.728  19.502  17.557  0.00  0.00    -0.167 A 
ATOM     19  C   UNL     1      51.305  20.773  17.331  0.00  0.00    -0.061 A 
ATOM     20  C   UNL     1      52.082  20.662  16.239  0.00  0.00    +0.151 A 
ATOM     21  O   UNL     1      52.006  19.396  15.793  0.00  0.00    -0.181 OA
ATOM     22  C   UNL     1      51.191  18.688  16.591  0.00  0.00    +0.147 A 
ENDBRANCH  17  18
ENDBRANCH  16  17
ENDBRANCH  15  16
TORSDOF 4
ENDMDL
