MODEL 1
REMARK VINA RESULT:      -4.6      0.000      0.000
REMARK  Name = ZINC95486105
REMARK  4 active torsions:
REMARK  status: ('A' for Active; 'I' for Inactive)
REMARK    1  A    between atoms: C2_2  and  C3_3
REMARK    2  A    between atoms: C4_4  and  C5_5
REMARK    3  A    between atoms: C6_6  and  C7_7
REMARK    4  A    between atoms: C10_10  and  C11_13
REMARK                            x       y       z     vdW  Elec       q    Type
REMARK                         _______ _______ _______ _____ _____    ______ ____
ROOT
ATOM      7  C   UNL     1      45.096  21.191  19.361  0.00  0.00    -0.015 C 
ATOM      8  C   UNL     1      44.230  20.321  18.760  0.00  0.00    +0.080 C 
ATOM      9  C   UNL     1      42.853  20.384  18.731  0.00  0.00    +0.061 C 
ATOM     10  C   UNL     1      42.062  21.481  18.903  0.00  0.00    -0.002 C 
ATOM     13  S   UNL     1      42.785  23.071  19.189  0.00  0.00    -0.009 S 
ATOM     14  S   UNL     1      44.482  22.589  20.255  0.00  0.00    -0.004 S 
ENDROOT
BRANCH   7   6
ATOM      5  C   UNL     1      47.665  20.786  19.197  0.00  0.00    -0.005 C 
ATOM      6  C   UNL     1      46.507  20.968  19.271  0.00  0.00    -0.086 C 
BRANCH   5   4
ATOM      3  C   UNL     1      50.179  20.387  19.035  0.00  0.00    -0.062 C 
ATOM      4  C   UNL     1      49.022  20.571  19.109  0.00  0.00    -0.083 C 
BRANCH   3   2
ATOM      1  C   UNL     1      52.219  20.327  17.775  0.00  0.00    +0.095 C 
ATOM      2  C   UNL     1      51.591  20.163  18.944  0.00  0.00    +0.070 C 
ENDBRANCH   3   2
ENDBRANCH   5   4
ENDBRANCH   7   6
BRANCH  10  11
ATOM     11  C   UNL     1      40.638  21.347  18.853  0.00  0.00    -0.160 C 
ATOM     12  C   UNL     1      39.470  21.237  18.811  0.00  0.00    +0.119 C 
ENDBRANCH  10  11
TORSDOF 4
ENDMDL
MODEL 2
REMARK VINA RESULT:      -4.5      1.833      2.038
REMARK  Name = ZINC95486105
REMARK  4 active torsions:
REMARK  status: ('A' for Active; 'I' for Inactive)
REMARK    1  A    between atoms: C2_2  and  C3_3
REMARK    2  A    between atoms: C4_4  and  C5_5
REMARK    3  A    between atoms: C6_6  and  C7_7
REMARK    4  A    between atoms: C10_10  and  C11_13
REMARK                            x       y       z     vdW  Elec       q    Type
REMARK                         _______ _______ _______ _____ _____    ______ ____
ROOT
ATOM      7  C   UNL     1      45.856  20.428  19.014  0.00  0.00    -0.015 C 
ATOM      8  C   UNL     1      45.053  21.521  19.183  0.00  0.00    +0.080 C 
ATOM      9  C   UNL     1      43.676  21.569  19.153  0.00  0.00    +0.061 C 
ATOM     10  C   UNL     1      42.797  20.549  19.369  0.00  0.00    -0.002 C 
ATOM     13  S   UNL     1      43.387  18.927  19.758  0.00  0.00    -0.009 S 
ATOM     14  S   UNL     1      45.148  18.839  18.691  0.00  0.00    -0.004 S 
ENDROOT
BRANCH   7   6
ATOM      5  C   UNL     1      48.445  20.686  19.161  0.00  0.00    -0.005 C 
ATOM      6  C   UNL     1      47.278  20.569  19.094  0.00  0.00    -0.086 C 
BRANCH   5   4
ATOM      3  C   UNL     1      50.979  20.940  19.303  0.00  0.00    -0.062 C 
ATOM      4  C   UNL     1      49.813  20.824  19.237  0.00  0.00    -0.083 C 
BRANCH   3   2
ATOM      1  C   UNL     1      52.937  21.992  20.204  0.00  0.00    +0.095 C 
ATOM      2  C   UNL     1      52.402  21.082  19.383  0.00  0.00    +0.070 C 
ENDBRANCH   3   2
ENDBRANCH   5   4
ENDBRANCH   7   6
BRANCH  10  11
ATOM     11  C   UNL     1      41.389  20.791  19.280  0.00  0.00    -0.160 C 
ATOM     12  C   UNL     1      40.235  20.989  19.207  0.00  0.00    +0.119 C 
ENDBRANCH  10  11
TORSDOF 4
ENDMDL
MODEL 3
REMARK VINA RESULT:      -4.3      1.857      1.995
REMARK  Name = ZINC95486105
REMARK  4 active torsions:
REMARK  status: ('A' for Active; 'I' for Inactive)
REMARK    1  A    between atoms: C2_2  and  C3_3
REMARK    2  A    between atoms: C4_4  and  C5_5
REMARK    3  A    between atoms: C6_6  and  C7_7
REMARK    4  A    between atoms: C10_10  and  C11_13
REMARK                            x       y       z     vdW  Elec       q    Type
REMARK                         _______ _______ _______ _____ _____    ______ ____
ROOT
ATOM      7  C   UNL     1      45.560  20.359  19.810  0.00  0.00    -0.015 C 
ATOM      8  C   UNL     1      45.113  19.175  20.326  0.00  0.00    +0.080 C 
ATOM      9  C   UNL     1      43.839  18.868  20.754  0.00  0.00    +0.061 C 
ATOM     10  C   UNL     1      42.668  19.471  20.399  0.00  0.00    -0.002 C 
ATOM     13  S   UNL     1      42.666  20.810  19.242  0.00  0.00    -0.009 S 
ATOM     14  S   UNL     1      44.462  21.736  19.649  0.00  0.00    -0.004 S 
ENDROOT
BRANCH   7   6
ATOM      5  C   UNL     1      48.047  20.594  19.067  0.00  0.00    -0.005 C 
ATOM      6  C   UNL     1      46.926  20.487  19.403  0.00  0.00    -0.086 C 
BRANCH   5   4
ATOM      3  C   UNL     1      50.480  20.822  18.337  0.00  0.00    -0.062 C 
ATOM      4  C   UNL     1      49.361  20.717  18.674  0.00  0.00    -0.083 C 
BRANCH   3   2
ATOM      1  C   UNL     1      52.189  20.706  16.657  0.00  0.00    +0.095 C 
ATOM      2  C   UNL     1      51.846  20.950  17.927  0.00  0.00    +0.070 C 
ENDBRANCH   3   2
ENDBRANCH   5   4
ENDBRANCH   7   6
BRANCH  10  11
ATOM     11  C   UNL     1      41.434  19.018  20.965  0.00  0.00    -0.160 C 
ATOM     12  C   UNL     1      40.421  18.647  21.429  0.00  0.00    +0.119 C 
ENDBRANCH  10  11
TORSDOF 4
ENDMDL
MODEL 4
REMARK VINA RESULT:      -4.2      2.547      8.090
REMARK  Name = ZINC95486105
REMARK  4 active torsions:
REMARK  status: ('A' for Active; 'I' for Inactive)
REMARK    1  A    between atoms: C2_2  and  C3_3
REMARK    2  A    between atoms: C4_4  and  C5_5
REMARK    3  A    between atoms: C6_6  and  C7_7
REMARK    4  A    between atoms: C10_10  and  C11_13
REMARK                            x       y       z     vdW  Elec       q    Type
REMARK                         _______ _______ _______ _____ _____    ______ ____
ROOT
ATOM      7  C   UNL     1      46.986  19.685  18.940  0.00  0.00    -0.015 C 
ATOM      8  C   UNL     1      47.785  20.793  18.946  0.00  0.00    +0.080 C 
ATOM      9  C   UNL     1      49.161  20.842  19.019  0.00  0.00    +0.061 C 
ATOM     10  C   UNL     1      50.052  19.864  18.687  0.00  0.00    -0.002 C 
ATOM     13  S   UNL     1      49.484  18.310  18.061  0.00  0.00    -0.009 S 
ATOM     14  S   UNL     1      47.696  18.069  19.058  0.00  0.00    -0.004 S 
ENDROOT
BRANCH   7   6
ATOM      5  C   UNL     1      44.400  19.953  18.761  0.00  0.00    -0.005 C 
ATOM      6  C   UNL     1      45.566  19.831  18.842  0.00  0.00    -0.086 C 
BRANCH   5   4
ATOM      3  C   UNL     1      41.869  20.217  18.587  0.00  0.00    -0.062 C 
ATOM      4  C   UNL     1      43.033  20.095  18.668  0.00  0.00    -0.083 C 
BRANCH   3   2
ATOM      1  C   UNL     1      39.902  21.586  18.484  0.00  0.00    +0.095 C 
ATOM      2  C   UNL     1      40.448  20.365  18.489  0.00  0.00    +0.070 C 
ENDBRANCH   3   2
ENDBRANCH   5   4
ENDBRANCH   7   6
BRANCH  10  11
ATOM     11  C   UNL     1      51.456  20.096  18.847  0.00  0.00    -0.160 C 
ATOM     12  C   UNL     1      52.607  20.286  18.977  0.00  0.00    +0.119 C 
ENDBRANCH  10  11
TORSDOF 4
ENDMDL
MODEL 5
REMARK VINA RESULT:      -4.0      3.343      8.120
REMARK  Name = ZINC95486105
REMARK  4 active torsions:
REMARK  status: ('A' for Active; 'I' for Inactive)
REMARK    1  A    between atoms: C2_2  and  C3_3
REMARK    2  A    between atoms: C4_4  and  C5_5
REMARK    3  A    between atoms: C6_6  and  C7_7
REMARK    4  A    between atoms: C10_10  and  C11_13
REMARK                            x       y       z     vdW  Elec       q    Type
REMARK                         _______ _______ _______ _____ _____    ______ ____
ROOT
ATOM      7  C   UNL     1      46.542  18.841  18.252  0.00  0.00    -0.015 C 
ATOM      8  C   UNL     1      46.759  17.810  17.382  0.00  0.00    +0.080 C 
ATOM      9  C   UNL     1      47.960  17.208  17.069  0.00  0.00    +0.061 C 
ATOM     10  C   UNL     1      49.104  17.186  17.811  0.00  0.00    -0.002 C 
ATOM     13  S   UNL     1      49.162  17.980  19.391  0.00  0.00    -0.009 S 
ATOM     14  S   UNL     1      47.896  19.583  19.116  0.00  0.00    -0.004 S 
ENDROOT
BRANCH   7   6
ATOM      5  C   UNL     1      44.121  19.727  18.633  0.00  0.00    -0.005 C 
ATOM      6  C   UNL     1      45.213  19.328  18.462  0.00  0.00    -0.086 C 
BRANCH   5   4
ATOM      3  C   UNL     1      41.752  20.595  19.004  0.00  0.00    -0.062 C 
ATOM      4  C   UNL     1      42.842  20.196  18.833  0.00  0.00    -0.083 C 
BRANCH   3   2
ATOM      1  C   UNL     1      39.566  21.151  18.187  0.00  0.00    +0.095 C 
ATOM      2  C   UNL     1      40.421  21.082  19.213  0.00  0.00    +0.070 C 
ENDBRANCH   3   2
ENDBRANCH   5   4
ENDBRANCH   7   6
BRANCH  10  11
ATOM     11  C   UNL     1      50.265  16.516  17.309  0.00  0.00    -0.160 C 
ATOM     12  C   UNL     1      51.217  15.967  16.897  0.00  0.00    +0.119 C 
ENDBRANCH  10  11
TORSDOF 4
ENDMDL
MODEL 6
REMARK VINA RESULT:      -3.9     21.447     21.901
REMARK  Name = ZINC95486105
REMARK  4 active torsions:
REMARK  status: ('A' for Active; 'I' for Inactive)
REMARK    1  A    between atoms: C2_2  and  C3_3
REMARK    2  A    between atoms: C4_4  and  C5_5
REMARK    3  A    between atoms: C6_6  and  C7_7
REMARK    4  A    between atoms: C10_10  and  C11_13
REMARK                            x       y       z     vdW  Elec       q    Type
REMARK                         _______ _______ _______ _____ _____    ______ ____
ROOT
ATOM      7  C   UNL     1      42.790  30.290  -0.303  0.00  0.00    -0.015 C 
ATOM      8  C   UNL     1      42.509  31.302  -1.177  0.00  0.00    +0.080 C 
ATOM      9  C   UNL     1      41.750  32.430  -0.947  0.00  0.00    +0.061 C 
ATOM     10  C   UNL     1      41.460  33.014   0.251  0.00  0.00    -0.002 C 
ATOM     13  S   UNL     1      42.097  32.335   1.756  0.00  0.00    -0.009 S 
ATOM     14  S   UNL     1      42.132  30.317   1.339  0.00  0.00    -0.004 S 
ENDROOT
BRANCH   7   6
ATOM      5  C   UNL     1      44.293  28.301  -1.062  0.00  0.00    -0.005 C 
ATOM      6  C   UNL     1      43.615  29.198  -0.720  0.00  0.00    -0.086 C 
BRANCH   5   4
ATOM      3  C   UNL     1      45.768  26.356  -1.802  0.00  0.00    -0.062 C 
ATOM      4  C   UNL     1      45.089  27.250  -1.461  0.00  0.00    -0.083 C 
BRANCH   3   2
ATOM      1  C   UNL     1      46.520  24.089  -1.584  0.00  0.00    +0.095 C 
ATOM      2  C   UNL     1      46.596  25.264  -2.218  0.00  0.00    +0.070 C 
ENDBRANCH   3   2
ENDBRANCH   5   4
ENDBRANCH   7   6
BRANCH  10  11
ATOM     11  C   UNL     1      40.636  34.184   0.292  0.00  0.00    -0.160 C 
ATOM     12  C   UNL     1      39.960  35.143   0.326  0.00  0.00    +0.119 C 
ENDBRANCH  10  11
TORSDOF 4
ENDMDL
MODEL 7
REMARK VINA RESULT:      -3.8      3.330      3.602
REMARK  Name = ZINC95486105
REMARK  4 active torsions:
REMARK  status: ('A' for Active; 'I' for Inactive)
REMARK    1  A    between atoms: C2_2  and  C3_3
REMARK    2  A    between atoms: C4_4  and  C5_5
REMARK    3  A    between atoms: C6_6  and  C7_7
REMARK    4  A    between atoms: C10_10  and  C11_13
REMARK                            x       y       z     vdW  Elec       q    Type
REMARK                         _______ _______ _______ _____ _____    ______ ____
ROOT
ATOM      7  C   UNL     1      45.716  17.997  19.153  0.00  0.00    -0.015 C 
ATOM      8  C   UNL     1      44.895  19.082  19.023  0.00  0.00    +0.080 C 
ATOM      9  C   UNL     1      43.632  19.253  19.548  0.00  0.00    +0.061 C 
ATOM     10  C   UNL     1      43.078  18.618  20.621  0.00  0.00    -0.002 C 
ATOM     13  S   UNL     1      44.010  17.422  21.533  0.00  0.00    -0.009 S 
ATOM     14  S   UNL     1      45.184  16.577  20.065  0.00  0.00    -0.004 S 
ENDROOT
BRANCH   7   6
ATOM      5  C   UNL     1      48.074  18.015  18.046  0.00  0.00    -0.005 C 
ATOM      6  C   UNL     1      47.011  18.007  18.544  0.00  0.00    -0.086 C 
BRANCH   5   4
ATOM      3  C   UNL     1      50.384  18.036  16.962  0.00  0.00    -0.062 C 
ATOM      4  C   UNL     1      49.321  18.026  17.460  0.00  0.00    -0.083 C 
BRANCH   3   2
ATOM      1  C   UNL     1      52.094  19.127  15.684  0.00  0.00    +0.095 C 
ATOM      2  C   UNL     1      51.680  18.047  16.354  0.00  0.00    +0.070 C 
ENDBRANCH   3   2
ENDBRANCH   5   4
ENDBRANCH   7   6
BRANCH  10  11
ATOM     11  C   UNL     1      41.734  18.920  21.011  0.00  0.00    -0.160 C 
ATOM     12  C   UNL     1      40.633  19.168  21.331  0.00  0.00    +0.119 C 
ENDBRANCH  10  11
TORSDOF 4
ENDMDL
MODEL 8
REMARK VINA RESULT:      -3.6      6.154      7.912
REMARK  Name = ZINC95486105
REMARK  4 active torsions:
REMARK  status: ('A' for Active; 'I' for Inactive)
REMARK    1  A    between atoms: C2_2  and  C3_3
REMARK    2  A    between atoms: C4_4  and  C5_5
REMARK    3  A    between atoms: C6_6  and  C7_7
REMARK    4  A    between atoms: C10_10  and  C11_13
REMARK                            x       y       z     vdW  Elec       q    Type
REMARK                         _______ _______ _______ _____ _____    ______ ____
ROOT
ATOM      7  C   UNL     1      46.279  16.072  18.049  0.00  0.00    -0.015 C 
ATOM      8  C   UNL     1      46.669  15.676  16.801  0.00  0.00    +0.080 C 
ATOM      9  C   UNL     1      46.957  14.398  16.371  0.00  0.00    +0.061 C 
ATOM     10  C   UNL     1      46.539  13.219  16.914  0.00  0.00    -0.002 C 
ATOM     13  S   UNL     1      45.482  13.211  18.333  0.00  0.00    -0.009 S 
ATOM     14  S   UNL     1      46.113  14.887  19.352  0.00  0.00    -0.004 S 
ENDROOT
BRANCH   7   6
ATOM      5  C   UNL     1      45.784  18.587  18.517  0.00  0.00    -0.005 C 
ATOM      6  C   UNL     1      46.008  17.454  18.306  0.00  0.00    -0.086 C 
BRANCH   5   4
ATOM      3  C   UNL     1      45.300  21.050  18.974  0.00  0.00    -0.062 C 
ATOM      4  C   UNL     1      45.522  19.917  18.764  0.00  0.00    -0.083 C 
BRANCH   3   2
ATOM      1  C   UNL     1      43.880  22.790  19.816  0.00  0.00    +0.095 C 
ATOM      2  C   UNL     1      45.028  22.432  19.230  0.00  0.00    +0.070 C 
ENDBRANCH   3   2
ENDBRANCH   5   4
ENDBRANCH   7   6
BRANCH  10  11
ATOM     11  C   UNL     1      46.957  11.980  16.332  0.00  0.00    -0.160 C 
ATOM     12  C   UNL     1      47.299  10.964  15.855  0.00  0.00    +0.119 C 
ENDBRANCH  10  11
TORSDOF 4
ENDMDL
MODEL 9
REMARK VINA RESULT:      -3.6     20.181     21.989
REMARK  Name = ZINC95486105
REMARK  4 active torsions:
REMARK  status: ('A' for Active; 'I' for Inactive)
REMARK    1  A    between atoms: C2_2  and  C3_3
REMARK    2  A    between atoms: C4_4  and  C5_5
REMARK    3  A    between atoms: C6_6  and  C7_7
REMARK    4  A    between atoms: C10_10  and  C11_13
REMARK                            x       y       z     vdW  Elec       q    Type
REMARK                         _______ _______ _______ _____ _____    ______ ____
ROOT
ATOM      7  C   UNL     1      50.600  34.265   3.809  0.00  0.00    -0.015 C 
ATOM      8  C   UNL     1      50.998  33.667   4.971  0.00  0.00    +0.080 C 
ATOM      9  C   UNL     1      52.286  33.420   5.397  0.00  0.00    +0.061 C 
ATOM     10  C   UNL     1      53.431  34.051   5.008  0.00  0.00    -0.002 C 
ATOM     13  S   UNL     1      53.371  35.372   3.832  0.00  0.00    -0.009 S 
ATOM     14  S   UNL     1      51.799  34.807   2.625  0.00  0.00    -0.004 S 
ENDROOT
BRANCH   7   6
ATOM      5  C   UNL     1      48.062  34.603   3.327  0.00  0.00    -0.005 C 
ATOM      6  C   UNL     1      49.206  34.451   3.544  0.00  0.00    -0.086 C 
BRANCH   5   4
ATOM      3  C   UNL     1      45.577  34.932   2.854  0.00  0.00    -0.062 C 
ATOM      4  C   UNL     1      46.720  34.780   3.072  0.00  0.00    -0.083 C 
BRANCH   3   2
ATOM      1  C   UNL     1      43.361  34.061   2.561  0.00  0.00    +0.095 C 
ATOM      2  C   UNL     1      44.182  35.116   2.588  0.00  0.00    +0.070 C 
ENDBRANCH   3   2
ENDBRANCH   5   4
ENDBRANCH   7   6
BRANCH  10  11
ATOM     11  C   UNL     1      54.690  33.642   5.554  0.00  0.00    -0.160 C 
ATOM     12  C   UNL     1      55.722  33.308   6.001  0.00  0.00    +0.119 C 
ENDBRANCH  10  11
TORSDOF 4
ENDMDL
