MODEL 1
REMARK VINA RESULT:      -6.8      0.000      0.000
REMARK  Name = ZINC95486141
REMARK  10 active torsions:
REMARK  status: ('A' for Active; 'I' for Inactive)
REMARK    1  A    between atoms: C3_3  and  O10_36
REMARK    2  A    between atoms: C6_6  and  C7_7
REMARK    3  A    between atoms: C11_12  and  O9_35
REMARK    4  A    between atoms: C13_14  and  O8_34
REMARK    5  A    between atoms: C14_15  and  C16_18
REMARK    6  A    between atoms: C17_20  and  O7_33
REMARK    7  A    between atoms: C18_22  and  O6_32
REMARK    8  A    between atoms: C19_24  and  C21_30
REMARK    9  A    between atoms: C20_27  and  O4_29
REMARK   10  A    between atoms: C21_30  and  O5_31
REMARK                            x       y       z     vdW  Elec       q    Type
REMARK                         _______ _______ _______ _____ _____    ______ ____
ROOT
ATOM      9  C   UNL     1      49.300  17.799  17.801  0.00  0.00    +0.211 A 
ATOM     10  C   UNL     1      49.556  16.468  17.695  0.00  0.00    -0.161 A 
ATOM     11  C   UNL     1      48.618  15.535  18.198  0.00  0.00    +0.424 A 
ATOM     12  C   UNL     1      47.395  16.071  18.819  0.00  0.00    -0.268 A 
ATOM     13  C   UNL     1      46.413  15.221  19.344  0.00  0.00    +0.220 A 
ATOM     16  C   UNL     1      45.279  15.763  19.919  0.00  0.00    -0.060 A 
ATOM     17  C   UNL     1      45.116  17.143  19.974  0.00  0.00    +0.199 A 
ATOM     20  C   UNL     1      46.085  17.991  19.458  0.00  0.00    -0.135 A 
ATOM     36  C   UNL     1      47.228  17.465  18.877  0.00  0.00    +0.208 A 
ATOM     37  O   UNL     1      48.816  14.333  18.121  0.00  0.00    -0.460 OA
ATOM     38  O   UNL     1      48.182  18.276  18.373  0.00  0.00    -0.180 OA
ENDROOT
BRANCH   9   8
ATOM      1  C   UNL     1      50.427  20.018  17.857  0.00  0.00    +0.086 A 
ATOM      2  C   UNL     1      51.353  20.909  17.359  0.00  0.00    -0.014 A 
ATOM      3  C   UNL     1      52.148  20.553  16.276  0.00  0.00    +0.134 A 
ATOM      6  C   UNL     1      52.014  19.301  15.691  0.00  0.00    -0.009 A 
ATOM      7  C   UNL     1      51.091  18.404  16.182  0.00  0.00    +0.077 A 
ATOM      8  C   UNL     1      50.289  18.756  17.271  0.00  0.00    -0.081 A 
BRANCH   3   4
ATOM      4  O   UNL     1      53.059  21.435  15.788  0.00  0.00    -0.497 OA
ATOM      5  H   UNL     1      52.803  22.361  15.891  0.00  0.00    +0.397 HD
ENDBRANCH   3   4
ENDBRANCH   9   8
BRANCH  20  21
ATOM     21  C   UNL     1      45.892  19.483  19.526  0.00  0.00    +0.074 C 
ATOM     22  C   UNL     1      44.408  19.816  19.335  0.00  0.00    +0.207 C 
ATOM     25  C   UNL     1      44.212  21.328  19.483  0.00  0.00    +0.123 C 
ATOM     28  C   UNL     1      44.736  21.771  20.852  0.00  0.00    +0.148 C 
ATOM     32  O   UNL     1      46.111  21.404  20.977  0.00  0.00    -0.374 OA
ATOM     33  C   UNL     1      46.351  19.998  20.893  0.00  0.00    +0.380 C 
BRANCH  22  23
ATOM     23  O   UNL     1      43.990  19.405  18.031  0.00  0.00    -0.557 OA
ATOM     24  H   UNL     1      44.126  20.073  17.346  0.00  0.00    +0.388 HD
ENDBRANCH  22  23
BRANCH  25  26
ATOM     26  O   UNL     1      42.823  21.642  19.377  0.00  0.00    -0.556 OA
ATOM     27  H   UNL     1      42.553  22.412  19.897  0.00  0.00    +0.383 HD
ENDBRANCH  25  26
BRANCH  33  34
ATOM     34  O   UNL     1      45.621  19.328  21.923  0.00  0.00    -0.562 OA
ATOM     35  H   UNL     1      46.062  18.540  22.269  0.00  0.00    +0.386 HD
ENDBRANCH  33  34
BRANCH  28  29
ATOM     29  C   UNL     1      44.599  23.288  20.985  0.00  0.00    +0.198 C 
BRANCH  29  30
ATOM     30  O   UNL     1      43.940  23.601  22.214  0.00  0.00    -0.561 OA
ATOM     31  H   UNL     1      44.510  23.535  22.993  0.00  0.00    +0.384 HD
ENDBRANCH  29  30
ENDBRANCH  28  29
ENDBRANCH  20  21
BRANCH  13  14
ATOM     14  O   UNL     1      46.574  13.874  19.287  0.00  0.00    -0.473 OA
ATOM     15  H   UNL     1      47.024  13.564  18.489  0.00  0.00    +0.402 HD
ENDBRANCH  13  14
BRANCH  17  18
ATOM     18  O   UNL     1      43.999  17.666  20.541  0.00  0.00    -0.486 OA
ATOM     19  H   UNL     1      43.257  17.048  20.591  0.00  0.00    +0.404 HD
ENDBRANCH  17  18
TORSDOF 10
ENDMDL
MODEL 2
REMARK VINA RESULT:      -6.7      1.728      5.300
REMARK  Name = ZINC95486141
REMARK  10 active torsions:
REMARK  status: ('A' for Active; 'I' for Inactive)
REMARK    1  A    between atoms: C3_3  and  O10_36
REMARK    2  A    between atoms: C6_6  and  C7_7
REMARK    3  A    between atoms: C11_12  and  O9_35
REMARK    4  A    between atoms: C13_14  and  O8_34
REMARK    5  A    between atoms: C14_15  and  C16_18
REMARK    6  A    between atoms: C17_20  and  O7_33
REMARK    7  A    between atoms: C18_22  and  O6_32
REMARK    8  A    between atoms: C19_24  and  C21_30
REMARK    9  A    between atoms: C20_27  and  O4_29
REMARK   10  A    between atoms: C21_30  and  O5_31
REMARK                            x       y       z     vdW  Elec       q    Type
REMARK                         _______ _______ _______ _____ _____    ______ ____
ROOT
ATOM      9  C   UNL     1      48.003  20.270  19.560  0.00  0.00    +0.211 A 
ATOM     10  C   UNL     1      47.907  21.437  20.251  0.00  0.00    -0.161 A 
ATOM     11  C   UNL     1      46.751  21.695  21.027  0.00  0.00    +0.424 A 
ATOM     12  C   UNL     1      45.700  20.663  21.042  0.00  0.00    -0.268 A 
ATOM     13  C   UNL     1      44.523  20.834  21.781  0.00  0.00    +0.220 A 
ATOM     16  C   UNL     1      43.560  19.842  21.768  0.00  0.00    -0.060 A 
ATOM     17  C   UNL     1      43.762  18.683  21.026  0.00  0.00    +0.199 A 
ATOM     20  C   UNL     1      44.925  18.508  20.291  0.00  0.00    -0.135 A 
ATOM     36  C   UNL     1      45.901  19.492  20.292  0.00  0.00    +0.208 A 
ATOM     37  O   UNL     1      46.631  22.732  21.659  0.00  0.00    -0.460 OA
ATOM     38  O   UNL     1      47.036  19.338  19.578  0.00  0.00    -0.180 OA
ENDROOT
BRANCH   9   8
ATOM      1  C   UNL     1      50.044  21.083  18.388  0.00  0.00    +0.086 A 
ATOM      2  C   UNL     1      51.174  20.844  17.638  0.00  0.00    -0.014 A 
ATOM      3  C   UNL     1      51.491  19.548  17.250  0.00  0.00    +0.134 A 
ATOM      6  C   UNL     1      50.671  18.488  17.614  0.00  0.00    -0.009 A 
ATOM      7  C   UNL     1      49.538  18.718  18.363  0.00  0.00    +0.077 A 
ATOM      8  C   UNL     1      49.215  20.019  18.757  0.00  0.00    -0.081 A 
BRANCH   3   4
ATOM      4  O   UNL     1      52.607  19.318  16.510  0.00  0.00    -0.497 OA
ATOM      5  H   UNL     1      52.436  19.218  15.563  0.00  0.00    +0.397 HD
ENDBRANCH   3   4
ENDBRANCH   9   8
BRANCH  20  21
ATOM     21  C   UNL     1      45.127  17.246  19.492  0.00  0.00    +0.074 C 
ATOM     22  C   UNL     1      46.063  17.532  18.313  0.00  0.00    +0.207 C 
ATOM     25  C   UNL     1      46.324  16.227  17.554  0.00  0.00    +0.123 C 
ATOM     28  C   UNL     1      46.904  15.191  18.521  0.00  0.00    +0.148 C 
ATOM     32  O   UNL     1      46.000  14.995  19.609  0.00  0.00    -0.374 OA
ATOM     33  C   UNL     1      45.753  16.170  20.383  0.00  0.00    +0.380 C 
BRANCH  22  23
ATOM     23  O   UNL     1      45.453  18.482  17.437  0.00  0.00    -0.557 OA
ATOM     24  H   UNL     1      46.078  19.088  17.018  0.00  0.00    +0.388 HD
ENDBRANCH  22  23
BRANCH  25  26
ATOM     26  O   UNL     1      47.251  16.468  16.495  0.00  0.00    -0.556 OA
ATOM     27  H   UNL     1      47.617  15.663  16.102  0.00  0.00    +0.383 HD
ENDBRANCH  25  26
BRANCH  33  34
ATOM     34  O   UNL     1      46.987  16.654  20.918  0.00  0.00    -0.562 OA
ATOM     35  H   UNL     1      47.596  15.956  21.197  0.00  0.00    +0.386 HD
ENDBRANCH  33  34
BRANCH  28  29
ATOM     29  C   UNL     1      47.112  13.866  17.784  0.00  0.00    +0.198 C 
BRANCH  29  30
ATOM     30  O   UNL     1      46.319  13.852  16.596  0.00  0.00    -0.561 OA
ATOM     31  H   UNL     1      45.558  13.256  16.638  0.00  0.00    +0.384 HD
ENDBRANCH  29  30
ENDBRANCH  28  29
ENDBRANCH  20  21
BRANCH  13  14
ATOM     14  O   UNL     1      44.330  21.965  22.505  0.00  0.00    -0.473 OA
ATOM     15  H   UNL     1      45.109  22.535  22.562  0.00  0.00    +0.402 HD
ENDBRANCH  13  14
BRANCH  17  18
ATOM     18  O   UNL     1      42.811  17.715  21.020  0.00  0.00    -0.486 OA
ATOM     19  H   UNL     1      42.853  17.127  20.254  0.00  0.00    +0.404 HD
ENDBRANCH  17  18
TORSDOF 10
ENDMDL
MODEL 3
REMARK VINA RESULT:      -6.6      1.807      2.870
REMARK  Name = ZINC95486141
REMARK  10 active torsions:
REMARK  status: ('A' for Active; 'I' for Inactive)
REMARK    1  A    between atoms: C3_3  and  O10_36
REMARK    2  A    between atoms: C6_6  and  C7_7
REMARK    3  A    between atoms: C11_12  and  O9_35
REMARK    4  A    between atoms: C13_14  and  O8_34
REMARK    5  A    between atoms: C14_15  and  C16_18
REMARK    6  A    between atoms: C17_20  and  O7_33
REMARK    7  A    between atoms: C18_22  and  O6_32
REMARK    8  A    between atoms: C19_24  and  C21_30
REMARK    9  A    between atoms: C20_27  and  O4_29
REMARK   10  A    between atoms: C21_30  and  O5_31
REMARK                            x       y       z     vdW  Elec       q    Type
REMARK                         _______ _______ _______ _____ _____    ______ ____
ROOT
ATOM      9  C   UNL     1      47.675  18.142  19.862  0.00  0.00    +0.211 A 
ATOM     10  C   UNL     1      47.916  16.812  20.011  0.00  0.00    -0.161 A 
ATOM     11  C   UNL     1      46.944  15.993  20.634  0.00  0.00    +0.424 A 
ATOM     12  C   UNL     1      45.704  16.642  21.093  0.00  0.00    -0.268 A 
ATOM     13  C   UNL     1      44.689  15.909  21.720  0.00  0.00    +0.220 A 
ATOM     16  C   UNL     1      43.540  16.555  22.138  0.00  0.00    -0.060 A 
ATOM     17  C   UNL     1      43.395  17.923  21.934  0.00  0.00    +0.199 A 
ATOM     20  C   UNL     1      44.397  18.655  21.314  0.00  0.00    -0.135 A 
ATOM     36  C   UNL     1      45.556  18.024  20.889  0.00  0.00    +0.208 A 
ATOM     37  O   UNL     1      47.128  14.796  20.785  0.00  0.00    -0.460 OA
ATOM     38  O   UNL     1      46.542  18.723  20.288  0.00  0.00    -0.180 OA
ENDROOT
BRANCH   9   8
ATOM      1  C   UNL     1      48.691  20.366  19.392  0.00  0.00    +0.086 A 
ATOM      2  C   UNL     1      49.650  21.144  18.782  0.00  0.00    -0.014 A 
ATOM      3  C   UNL     1      50.625  20.553  17.987  0.00  0.00    +0.134 A 
ATOM      6  C   UNL     1      50.637  19.176  17.803  0.00  0.00    -0.009 A 
ATOM      7  C   UNL     1      49.682  18.390  18.409  0.00  0.00    +0.077 A 
ATOM      8  C   UNL     1      48.699  18.980  19.210  0.00  0.00    -0.081 A 
BRANCH   3   4
ATOM      4  O   UNL     1      51.568  21.324  17.387  0.00  0.00    -0.497 OA
ATOM      5  H   UNL     1      52.143  21.794  18.005  0.00  0.00    +0.397 HD
ENDBRANCH   3   4
ENDBRANCH   9   8
BRANCH  20  21
ATOM     21  C   UNL     1      44.223  20.136  21.101  0.00  0.00    +0.074 C 
ATOM     22  C   UNL     1      45.588  20.829  21.191  0.00  0.00    +0.207 C 
ATOM     25  C   UNL     1      45.411  22.321  20.896  0.00  0.00    +0.123 C 
ATOM     28  C   UNL     1      44.764  22.488  19.518  0.00  0.00    +0.148 C 
ATOM     32  O   UNL     1      43.515  21.795  19.492  0.00  0.00    -0.374 OA
ATOM     33  C   UNL     1      43.622  20.388  19.715  0.00  0.00    +0.380 C 
BRANCH  22  23
ATOM     23  O   UNL     1      46.123  20.660  22.505  0.00  0.00    -0.557 OA
ATOM     24  H   UNL     1      47.082  20.775  22.557  0.00  0.00    +0.388 HD
ENDBRANCH  22  23
BRANCH  25  26
ATOM     26  O   UNL     1      46.686  22.965  20.908  0.00  0.00    -0.556 OA
ATOM     27  H   UNL     1      47.435  22.355  20.847  0.00  0.00    +0.383 HD
ENDBRANCH  25  26
BRANCH  33  34
ATOM     34  O   UNL     1      44.467  19.811  18.717  0.00  0.00    -0.562 OA
ATOM     35  H   UNL     1      44.709  18.891  18.891  0.00  0.00    +0.386 HD
ENDBRANCH  33  34
BRANCH  28  29
ATOM     29  C   UNL     1      44.530  23.974  19.241  0.00  0.00    +0.198 C 
BRANCH  29  30
ATOM     30  O   UNL     1      43.191  24.168  18.781  0.00  0.00    -0.561 OA
ATOM     31  H   UNL     1      42.888  25.085  18.825  0.00  0.00    +0.384 HD
ENDBRANCH  29  30
ENDBRANCH  28  29
ENDBRANCH  20  21
BRANCH  13  14
ATOM     14  O   UNL     1      44.832  14.573  21.918  0.00  0.00    -0.473 OA
ATOM     15  H   UNL     1      45.051  14.331  22.828  0.00  0.00    +0.402 HD
ENDBRANCH  13  14
BRANCH  17  18
ATOM     18  O   UNL     1      42.263  18.547  22.346  0.00  0.00    -0.486 OA
ATOM     19  H   UNL     1      41.472  18.295  21.851  0.00  0.00    +0.404 HD
ENDBRANCH  17  18
TORSDOF 10
ENDMDL
MODEL 4
REMARK VINA RESULT:      -6.5      1.494      2.490
REMARK  Name = ZINC95486141
REMARK  10 active torsions:
REMARK  status: ('A' for Active; 'I' for Inactive)
REMARK    1  A    between atoms: C3_3  and  O10_36
REMARK    2  A    between atoms: C6_6  and  C7_7
REMARK    3  A    between atoms: C11_12  and  O9_35
REMARK    4  A    between atoms: C13_14  and  O8_34
REMARK    5  A    between atoms: C14_15  and  C16_18
REMARK    6  A    between atoms: C17_20  and  O7_33
REMARK    7  A    between atoms: C18_22  and  O6_32
REMARK    8  A    between atoms: C19_24  and  C21_30
REMARK    9  A    between atoms: C20_27  and  O4_29
REMARK   10  A    between atoms: C21_30  and  O5_31
REMARK                            x       y       z     vdW  Elec       q    Type
REMARK                         _______ _______ _______ _____ _____    ______ ____
ROOT
ATOM      9  C   UNL     1      49.750  16.982  17.609  0.00  0.00    +0.211 A 
ATOM     10  C   UNL     1      50.285  15.764  17.328  0.00  0.00    -0.161 A 
ATOM     11  C   UNL     1      49.591  14.592  17.713  0.00  0.00    +0.424 A 
ATOM     12  C   UNL     1      48.305  14.763  18.411  0.00  0.00    -0.268 A 
ATOM     13  C   UNL     1      47.551  13.659  18.828  0.00  0.00    +0.220 A 
ATOM     16  C   UNL     1      46.349  13.863  19.481  0.00  0.00    -0.060 A 
ATOM     17  C   UNL     1      45.893  15.155  19.717  0.00  0.00    +0.199 A 
ATOM     20  C   UNL     1      46.635  16.253  19.307  0.00  0.00    -0.135 A 
ATOM     36  C   UNL     1      47.842  16.068  18.652  0.00  0.00    +0.208 A 
ATOM     37  O   UNL     1      50.042  13.483  17.478  0.00  0.00    -0.460 OA
ATOM     38  O   UNL     1      48.578  17.126  18.250  0.00  0.00    -0.180 OA
ENDROOT
BRANCH   9   8
ATOM      1  C   UNL     1      50.326  19.386  17.910  0.00  0.00    +0.086 A 
ATOM      2  C   UNL     1      51.017  20.513  17.524  0.00  0.00    -0.014 A 
ATOM      3  C   UNL     1      51.874  20.465  16.431  0.00  0.00    +0.134 A 
ATOM      6  C   UNL     1      52.038  19.281  15.723  0.00  0.00    -0.009 A 
ATOM      7  C   UNL     1      51.350  18.149  16.101  0.00  0.00    +0.077 A 
ATOM      8  C   UNL     1      50.487  18.192  17.200  0.00  0.00    -0.081 A 
BRANCH   3   4
ATOM      4  O   UNL     1      52.552  21.579  16.054  0.00  0.00    -0.497 OA
ATOM      5  H   UNL     1      52.001  22.370  15.986  0.00  0.00    +0.397 HD
ENDBRANCH   3   4
ENDBRANCH   9   8
BRANCH  20  21
ATOM     21  C   UNL     1      46.126  17.646  19.571  0.00  0.00    +0.074 C 
ATOM     22  C   UNL     1      47.309  18.577  19.855  0.00  0.00    +0.207 C 
ATOM     25  C   UNL     1      46.788  20.004  20.046  0.00  0.00    +0.123 C 
ATOM     28  C   UNL     1      46.004  20.424  18.799  0.00  0.00    +0.148 C 
ATOM     32  O   UNL     1      44.938  19.499  18.574  0.00  0.00    -0.374 OA
ATOM     33  C   UNL     1      45.367  18.156  18.343  0.00  0.00    +0.380 C 
BRANCH  22  23
ATOM     23  O   UNL     1      47.980  18.149  21.043  0.00  0.00    -0.557 OA
ATOM     24  H   UNL     1      48.078  17.190  21.115  0.00  0.00    +0.388 HD
ENDBRANCH  22  23
BRANCH  25  26
ATOM     26  O   UNL     1      47.889  20.893  20.242  0.00  0.00    -0.556 OA
ATOM     27  H   UNL     1      48.719  20.448  20.459  0.00  0.00    +0.383 HD
ENDBRANCH  25  26
BRANCH  33  34
ATOM     34  O   UNL     1      46.229  18.122  17.203  0.00  0.00    -0.562 OA
ATOM     35  H   UNL     1      45.760  18.073  16.358  0.00  0.00    +0.386 HD
ENDBRANCH  33  34
BRANCH  28  29
ATOM     29  C   UNL     1      45.429  21.826  19.005  0.00  0.00    +0.198 C 
BRANCH  29  30
ATOM     30  O   UNL     1      44.002  21.758  19.023  0.00  0.00    -0.561 OA
ATOM     31  H   UNL     1      43.610  21.962  19.884  0.00  0.00    +0.384 HD
ENDBRANCH  29  30
ENDBRANCH  28  29
ENDBRANCH  20  21
BRANCH  13  14
ATOM     14  O   UNL     1      47.998  12.399  18.595  0.00  0.00    -0.473 OA
ATOM     15  H   UNL     1      48.517  12.309  17.784  0.00  0.00    +0.402 HD
ENDBRANCH  13  14
BRANCH  17  18
ATOM     18  O   UNL     1      44.711  15.344  20.357  0.00  0.00    -0.486 OA
ATOM     19  H   UNL     1      44.748  15.175  21.309  0.00  0.00    +0.404 HD
ENDBRANCH  17  18
TORSDOF 10
ENDMDL
MODEL 5
REMARK VINA RESULT:      -6.1      1.832      6.271
REMARK  Name = ZINC95486141
REMARK  10 active torsions:
REMARK  status: ('A' for Active; 'I' for Inactive)
REMARK    1  A    between atoms: C3_3  and  O10_36
REMARK    2  A    between atoms: C6_6  and  C7_7
REMARK    3  A    between atoms: C11_12  and  O9_35
REMARK    4  A    between atoms: C13_14  and  O8_34
REMARK    5  A    between atoms: C14_15  and  C16_18
REMARK    6  A    between atoms: C17_20  and  O7_33
REMARK    7  A    between atoms: C18_22  and  O6_32
REMARK    8  A    between atoms: C19_24  and  C21_30
REMARK    9  A    between atoms: C20_27  and  O4_29
REMARK   10  A    between atoms: C21_30  and  O5_31
REMARK                            x       y       z     vdW  Elec       q    Type
REMARK                         _______ _______ _______ _____ _____    ______ ____
ROOT
ATOM      9  C   UNL     1      48.982  20.253  19.090  0.00  0.00    +0.211 A 
ATOM     10  C   UNL     1      49.900  21.036  18.463  0.00  0.00    -0.161 A 
ATOM     11  C   UNL     1      50.848  20.440  17.597  0.00  0.00    +0.424 A 
ATOM     12  C   UNL     1      50.783  18.979  17.422  0.00  0.00    -0.268 A 
ATOM     13  C   UNL     1      51.681  18.306  16.585  0.00  0.00    +0.220 A 
ATOM     16  C   UNL     1      51.587  16.933  16.448  0.00  0.00    -0.060 A 
ATOM     17  C   UNL     1      50.606  16.228  17.137  0.00  0.00    +0.199 A 
ATOM     20  C   UNL     1      49.714  16.889  17.968  0.00  0.00    -0.135 A 
ATOM     36  C   UNL     1      49.793  18.264  18.118  0.00  0.00    +0.208 A 
ATOM     37  O   UNL     1      51.687  21.111  17.018  0.00  0.00    -0.460 OA
ATOM     38  O   UNL     1      48.935  18.922  18.926  0.00  0.00    -0.180 OA
ENDROOT
BRANCH   9   8
ATOM      1  C   UNL     1      48.382  21.281  21.278  0.00  0.00    +0.086 A 
ATOM      2  C   UNL     1      47.464  21.877  22.114  0.00  0.00    -0.014 A 
ATOM      3  C   UNL     1      46.162  22.093  21.678  0.00  0.00    +0.134 A 
ATOM      6  C   UNL     1      45.780  21.709  20.398  0.00  0.00    -0.009 A 
ATOM      7  C   UNL     1      46.691  21.111  19.556  0.00  0.00    +0.077 A 
ATOM      8  C   UNL     1      48.002  20.892  19.989  0.00  0.00    -0.081 A 
BRANCH   3   4
ATOM      4  O   UNL     1      45.260  22.681  22.505  0.00  0.00    -0.497 OA
ATOM      5  H   UNL     1      45.526  23.556  22.818  0.00  0.00    +0.397 HD
ENDBRANCH   3   4
ENDBRANCH   9   8
BRANCH  20  21
ATOM     21  C   UNL     1      48.656  16.110  18.707  0.00  0.00    +0.074 C 
ATOM     22  C   UNL     1      48.440  16.729  20.092  0.00  0.00    +0.207 C 
ATOM     25  C   UNL     1      47.310  15.979  20.804  0.00  0.00    +0.123 C 
ATOM     28  C   UNL     1      46.048  16.032  19.939  0.00  0.00    +0.148 C 
ATOM     32  O   UNL     1      46.326  15.470  18.655  0.00  0.00    -0.374 OA
ATOM     33  C   UNL     1      47.342  16.158  17.923  0.00  0.00    +0.380 C 
BRANCH  22  23
ATOM     23  O   UNL     1      49.643  16.622  20.857  0.00  0.00    -0.557 OA
ATOM     24  H   UNL     1      49.946  17.460  21.231  0.00  0.00    +0.388 HD
ENDBRANCH  22  23
BRANCH  25  26
ATOM     26  O   UNL     1      47.052  16.592  22.068  0.00  0.00    -0.556 OA
ATOM     27  H   UNL     1      47.826  16.645  22.645  0.00  0.00    +0.383 HD
ENDBRANCH  25  26
BRANCH  33  34
ATOM     34  O   UNL     1      46.951  17.520  17.732  0.00  0.00    -0.562 OA
ATOM     35  H   UNL     1      47.281  17.912  16.912  0.00  0.00    +0.386 HD
ENDBRANCH  33  34
BRANCH  28  29
ATOM     29  C   UNL     1      44.931  15.235  20.615  0.00  0.00    +0.198 C 
BRANCH  29  30
ATOM     30  O   UNL     1      44.251  16.069  21.554  0.00  0.00    -0.561 OA
ATOM     31  H   UNL     1      43.609  15.600  22.105  0.00  0.00    +0.384 HD
ENDBRANCH  29  30
ENDBRANCH  28  29
ENDBRANCH  20  21
BRANCH  13  14
ATOM     14  O   UNL     1      52.637  18.996  15.913  0.00  0.00    -0.473 OA
ATOM     15  H   UNL     1      52.644  19.945  16.102  0.00  0.00    +0.402 HD
ENDBRANCH  13  14
BRANCH  17  18
ATOM     18  O   UNL     1      50.521  14.881  16.995  0.00  0.00    -0.486 OA
ATOM     19  H   UNL     1      51.367  14.452  16.807  0.00  0.00    +0.404 HD
ENDBRANCH  17  18
TORSDOF 10
ENDMDL
MODEL 6
REMARK VINA RESULT:      -6.0      5.689      7.931
REMARK  Name = ZINC95486141
REMARK  10 active torsions:
REMARK  status: ('A' for Active; 'I' for Inactive)
REMARK    1  A    between atoms: C3_3  and  O10_36
REMARK    2  A    between atoms: C6_6  and  C7_7
REMARK    3  A    between atoms: C11_12  and  O9_35
REMARK    4  A    between atoms: C13_14  and  O8_34
REMARK    5  A    between atoms: C14_15  and  C16_18
REMARK    6  A    between atoms: C17_20  and  O7_33
REMARK    7  A    between atoms: C18_22  and  O6_32
REMARK    8  A    between atoms: C19_24  and  C21_30
REMARK    9  A    between atoms: C20_27  and  O4_29
REMARK   10  A    between atoms: C21_30  and  O5_31
REMARK                            x       y       z     vdW  Elec       q    Type
REMARK                         _______ _______ _______ _____ _____    ______ ____
ROOT
ATOM      9  C   UNL     1      52.417  16.989  18.365  0.00  0.00    +0.211 A 
ATOM     10  C   UNL     1      53.157  16.971  19.506  0.00  0.00    -0.161 A 
ATOM     11  C   UNL     1      53.371  15.744  20.179  0.00  0.00    +0.424 A 
ATOM     12  C   UNL     1      52.768  14.535  19.593  0.00  0.00    -0.268 A 
ATOM     13  C   UNL     1      52.927  13.279  20.193  0.00  0.00    +0.220 A 
ATOM     16  C   UNL     1      52.344  12.168  19.611  0.00  0.00    -0.060 A 
ATOM     17  C   UNL     1      51.607  12.299  18.440  0.00  0.00    +0.199 A 
ATOM     20  C   UNL     1      51.445  13.539  17.841  0.00  0.00    -0.135 A 
ATOM     36  C   UNL     1      52.021  14.664  18.410  0.00  0.00    +0.208 A 
ATOM     37  O   UNL     1      54.028  15.691  21.205  0.00  0.00    -0.460 OA
ATOM     38  O   UNL     1      51.869  15.880  17.842  0.00  0.00    -0.180 OA
ENDROOT
BRANCH   9   8
ATOM      1  C   UNL     1      52.400  19.478  18.364  0.00  0.00    +0.086 A 
ATOM      2  C   UNL     1      52.201  20.678  17.717  0.00  0.00    -0.014 A 
ATOM      3  C   UNL     1      51.809  20.695  16.384  0.00  0.00    +0.134 A 
ATOM      6  C   UNL     1      51.614  19.503  15.698  0.00  0.00    -0.009 A 
ATOM      7  C   UNL     1      51.810  18.298  16.336  0.00  0.00    +0.077 A 
ATOM      8  C   UNL     1      52.206  18.276  17.677  0.00  0.00    -0.081 A 
BRANCH   3   4
ATOM      4  O   UNL     1      51.613  21.880  15.751  0.00  0.00    -0.497 OA
ATOM      5  H   UNL     1      50.712  22.006  15.424  0.00  0.00    +0.397 HD
ENDBRANCH   3   4
ENDBRANCH   9   8
BRANCH  20  21
ATOM     21  C   UNL     1      50.643  13.663  16.572  0.00  0.00    +0.074 C 
ATOM     22  C   UNL     1      50.863  12.418  15.705  0.00  0.00    +0.207 C 
ATOM     25  C   UNL     1      49.983  12.518  14.455  0.00  0.00    +0.123 C 
ATOM     28  C   UNL     1      48.521  12.680  14.880  0.00  0.00    +0.148 C 
ATOM     32  O   UNL     1      48.392  13.837  15.708  0.00  0.00    -0.374 OA
ATOM     33  C   UNL     1      49.155  13.781  16.915  0.00  0.00    +0.380 C 
BRANCH  22  23
ATOM     23  O   UNL     1      52.237  12.341  15.320  0.00  0.00    -0.557 OA
ATOM     24  H   UNL     1      52.809  11.937  15.986  0.00  0.00    +0.388 HD
ENDBRANCH  22  23
BRANCH  25  26
ATOM     26  O   UNL     1      50.128  11.331  13.674  0.00  0.00    -0.556 OA
ATOM     27  H   UNL     1      50.309  10.537  14.195  0.00  0.00    +0.383 HD
ENDBRANCH  25  26
BRANCH  33  34
ATOM     34  O   UNL     1      48.751  12.643  17.680  0.00  0.00    -0.562 OA
ATOM     35  H   UNL     1      48.197  12.018  17.192  0.00  0.00    +0.386 HD
ENDBRANCH  33  34
BRANCH  28  29
ATOM     29  C   UNL     1      47.644  12.840  13.638  0.00  0.00    +0.198 C 
BRANCH  29  30
ATOM     30  O   UNL     1      48.456  13.224  12.526  0.00  0.00    -0.561 OA
ATOM     31  H   UNL     1      49.393  13.327  12.742  0.00  0.00    +0.384 HD
ENDBRANCH  29  30
ENDBRANCH  28  29
ENDBRANCH  20  21
BRANCH  13  14
ATOM     14  O   UNL     1      53.648  13.154  21.336  0.00  0.00    -0.473 OA
ATOM     15  H   UNL     1      53.269  12.535  21.974  0.00  0.00    +0.402 HD
ENDBRANCH  13  14
BRANCH  17  18
ATOM     18  O   UNL     1      51.040  11.202  17.877  0.00  0.00    -0.486 OA
ATOM     19  H   UNL     1      50.324  11.403  17.259  0.00  0.00    +0.404 HD
ENDBRANCH  17  18
TORSDOF 10
ENDMDL
MODEL 7
REMARK VINA RESULT:      -5.8      2.198      7.063
REMARK  Name = ZINC95486141
REMARK  10 active torsions:
REMARK  status: ('A' for Active; 'I' for Inactive)
REMARK    1  A    between atoms: C3_3  and  O10_36
REMARK    2  A    between atoms: C6_6  and  C7_7
REMARK    3  A    between atoms: C11_12  and  O9_35
REMARK    4  A    between atoms: C13_14  and  O8_34
REMARK    5  A    between atoms: C14_15  and  C16_18
REMARK    6  A    between atoms: C17_20  and  O7_33
REMARK    7  A    between atoms: C18_22  and  O6_32
REMARK    8  A    between atoms: C19_24  and  C21_30
REMARK    9  A    between atoms: C20_27  and  O4_29
REMARK   10  A    between atoms: C21_30  and  O5_31
REMARK                            x       y       z     vdW  Elec       q    Type
REMARK                         _______ _______ _______ _____ _____    ______ ____
ROOT
ATOM      9  C   UNL     1      48.001  19.489  18.951  0.00  0.00    +0.211 A 
ATOM     10  C   UNL     1      48.746  20.625  18.882  0.00  0.00    -0.161 A 
ATOM     11  C   UNL     1      50.148  20.529  18.716  0.00  0.00    +0.424 A 
ATOM     12  C   UNL     1      50.730  19.179  18.625  0.00  0.00    -0.268 A 
ATOM     13  C   UNL     1      52.108  18.990  18.460  0.00  0.00    +0.220 A 
ATOM     16  C   UNL     1      52.615  17.706  18.380  0.00  0.00    -0.060 A 
ATOM     17  C   UNL     1      51.761  16.612  18.461  0.00  0.00    +0.199 A 
ATOM     20  C   UNL     1      50.395  16.792  18.625  0.00  0.00    -0.135 A 
ATOM     36  C   UNL     1      49.869  18.071  18.708  0.00  0.00    +0.208 A 
ATOM     37  O   UNL     1      50.848  21.527  18.651  0.00  0.00    -0.460 OA
ATOM     38  O   UNL     1      48.543  18.263  18.871  0.00  0.00    -0.180 OA
ENDROOT
BRANCH   9   8
ATOM      1  C   UNL     1      45.778  18.482  19.448  0.00  0.00    +0.086 A 
ATOM      2  C   UNL     1      44.415  18.599  19.610  0.00  0.00    -0.014 A 
ATOM      3  C   UNL     1      43.798  19.834  19.452  0.00  0.00    +0.134 A 
ATOM      6  C   UNL     1      44.552  20.956  19.130  0.00  0.00    -0.009 A 
ATOM      7  C   UNL     1      45.915  20.849  18.967  0.00  0.00    +0.077 A 
ATOM      8  C   UNL     1      46.541  19.609  19.125  0.00  0.00    -0.081 A 
BRANCH   3   4
ATOM      4  O   UNL     1      42.454  19.944  19.612  0.00  0.00    -0.497 OA
ATOM      5  H   UNL     1      42.137  19.659  20.479  0.00  0.00    +0.397 HD
ENDBRANCH   3   4
ENDBRANCH   9   8
BRANCH  20  21
ATOM     21  C   UNL     1      49.484  15.595  18.711  0.00  0.00    +0.074 C 
ATOM     22  C   UNL     1      48.358  15.881  19.710  0.00  0.00    +0.207 C 
ATOM     25  C   UNL     1      47.395  14.690  19.732  0.00  0.00    +0.123 C 
ATOM     28  C   UNL     1      46.867  14.444  18.316  0.00  0.00    +0.148 C 
ATOM     32  O   UNL     1      47.966  14.217  17.432  0.00  0.00    -0.374 OA
ATOM     33  C   UNL     1      48.875  15.314  17.334  0.00  0.00    +0.380 C 
BRANCH  22  23
ATOM     23  O   UNL     1      48.913  16.072  21.014  0.00  0.00    -0.557 OA
ATOM     24  H   UNL     1      48.638  16.894  21.440  0.00  0.00    +0.388 HD
ENDBRANCH  22  23
BRANCH  25  26
ATOM     26  O   UNL     1      46.303  14.974  20.609  0.00  0.00    -0.556 OA
ATOM     27  H   UNL     1      46.571  15.197  21.511  0.00  0.00    +0.383 HD
ENDBRANCH  25  26
BRANCH  33  34
ATOM     34  O   UNL     1      48.175  16.473  16.878  0.00  0.00    -0.562 OA
ATOM     35  H   UNL     1      47.349  16.645  17.351  0.00  0.00    +0.386 HD
ENDBRANCH  33  34
BRANCH  28  29
ATOM     29  C   UNL     1      45.951  13.220  18.318  0.00  0.00    +0.198 C 
BRANCH  29  30
ATOM     30  O   UNL     1      44.713  13.551  18.952  0.00  0.00    -0.561 OA
ATOM     31  H   UNL     1      43.940  13.454  18.379  0.00  0.00    +0.384 HD
ENDBRANCH  29  30
ENDBRANCH  28  29
ENDBRANCH  20  21
BRANCH  13  14
ATOM     14  O   UNL     1      52.939  20.060  18.380  0.00  0.00    -0.473 OA
ATOM     15  H   UNL     1      52.513  20.868  18.062  0.00  0.00    +0.402 HD
ENDBRANCH  13  14
BRANCH  17  18
ATOM     18  O   UNL     1      52.268  15.356  18.380  0.00  0.00    -0.486 OA
ATOM     19  H   UNL     1      52.512  15.087  17.484  0.00  0.00    +0.404 HD
ENDBRANCH  17  18
TORSDOF 10
ENDMDL
MODEL 8
REMARK VINA RESULT:      -5.8      2.075      5.680
REMARK  Name = ZINC95486141
REMARK  10 active torsions:
REMARK  status: ('A' for Active; 'I' for Inactive)
REMARK    1  A    between atoms: C3_3  and  O10_36
REMARK    2  A    between atoms: C6_6  and  C7_7
REMARK    3  A    between atoms: C11_12  and  O9_35
REMARK    4  A    between atoms: C13_14  and  O8_34
REMARK    5  A    between atoms: C14_15  and  C16_18
REMARK    6  A    between atoms: C17_20  and  O7_33
REMARK    7  A    between atoms: C18_22  and  O6_32
REMARK    8  A    between atoms: C19_24  and  C21_30
REMARK    9  A    between atoms: C20_27  and  O4_29
REMARK   10  A    between atoms: C21_30  and  O5_31
REMARK                            x       y       z     vdW  Elec       q    Type
REMARK                         _______ _______ _______ _____ _____    ______ ____
ROOT
ATOM      9  C   UNL     1      48.285  20.347  20.312  0.00  0.00    +0.211 A 
ATOM     10  C   UNL     1      47.444  21.299  20.799  0.00  0.00    -0.161 A 
ATOM     11  C   UNL     1      46.096  20.964  21.071  0.00  0.00    +0.424 A 
ATOM     12  C   UNL     1      45.673  19.578  20.806  0.00  0.00    -0.268 A 
ATOM     13  C   UNL     1      44.359  19.160  21.045  0.00  0.00    +0.220 A 
ATOM     16  C   UNL     1      44.002  17.850  20.783  0.00  0.00    -0.060 A 
ATOM     17  C   UNL     1      44.944  16.956  20.286  0.00  0.00    +0.199 A 
ATOM     20  C   UNL     1      46.248  17.364  20.046  0.00  0.00    -0.135 A 
ATOM     36  C   UNL     1      46.623  18.673  20.303  0.00  0.00    +0.208 A 
ATOM     37  O   UNL     1      45.313  21.793  21.508  0.00  0.00    -0.460 OA
ATOM     38  O   UNL     1      47.887  19.087  20.070  0.00  0.00    -0.180 OA
ENDROOT
BRANCH   9   8
ATOM      1  C   UNL     1      50.577  20.928  21.090  0.00  0.00    +0.086 A 
ATOM      2  C   UNL     1      51.885  21.271  20.826  0.00  0.00    -0.014 A 
ATOM      3  C   UNL     1      52.319  21.402  19.512  0.00  0.00    +0.134 A 
ATOM      6  C   UNL     1      51.437  21.190  18.460  0.00  0.00    -0.009 A 
ATOM      7  C   UNL     1      50.127  20.848  18.715  0.00  0.00    +0.077 A 
ATOM      8  C   UNL     1      49.686  20.714  20.034  0.00  0.00    -0.081 A 
BRANCH   3   4
ATOM      4  O   UNL     1      53.609  21.741  19.257  0.00  0.00    -0.497 OA
ATOM      5  H   UNL     1      54.257  21.214  19.744  0.00  0.00    +0.397 HD
ENDBRANCH   3   4
ENDBRANCH   9   8
BRANCH  20  21
ATOM     21  C   UNL     1      47.256  16.382  19.507  0.00  0.00    +0.074 C 
ATOM     22  C   UNL     1      48.197  17.099  18.533  0.00  0.00    +0.207 C 
ATOM     25  C   UNL     1      49.265  16.112  18.051  0.00  0.00    +0.123 C 
ATOM     28  C   UNL     1      50.006  15.543  19.264  0.00  0.00    +0.148 C 
ATOM     32  O   UNL     1      49.070  14.918  20.144  0.00  0.00    -0.374 OA
ATOM     33  C   UNL     1      48.075  15.802  20.663  0.00  0.00    +0.380 C 
BRANCH  22  23
ATOM     23  O   UNL     1      47.450  17.581  17.413  0.00  0.00    -0.557 OA
ATOM     24  H   UNL     1      46.776  16.965  17.097  0.00  0.00    +0.388 HD
ENDBRANCH  22  23
BRANCH  25  26
ATOM     26  O   UNL     1      50.189  16.787  17.197  0.00  0.00    -0.556 OA
ATOM     27  H   UNL     1      50.005  16.678  16.254  0.00  0.00    +0.383 HD
ENDBRANCH  25  26
BRANCH  33  34
ATOM     34  O   UNL     1      48.710  16.865  21.377  0.00  0.00    -0.562 OA
ATOM     35  H   UNL     1      49.654  16.725  21.532  0.00  0.00    +0.386 HD
ENDBRANCH  33  34
BRANCH  28  29
ATOM     29  C   UNL     1      51.034  14.511  18.796  0.00  0.00    +0.198 C 
BRANCH  29  30
ATOM     30  O   UNL     1      50.575  13.894  17.591  0.00  0.00    -0.561 OA
ATOM     31  H   UNL     1      49.669  14.129  17.350  0.00  0.00    +0.384 HD
ENDBRANCH  29  30
ENDBRANCH  28  29
ENDBRANCH  20  21
BRANCH  13  14
ATOM     14  O   UNL     1      43.441  20.034  21.532  0.00  0.00    -0.473 OA
ATOM     15  H   UNL     1      42.763  19.624  22.087  0.00  0.00    +0.402 HD
ENDBRANCH  13  14
BRANCH  17  18
ATOM     18  O   UNL     1      44.584  15.672  20.032  0.00  0.00    -0.486 OA
ATOM     19  H   UNL     1      44.599  15.098  20.810  0.00  0.00    +0.404 HD
ENDBRANCH  17  18
TORSDOF 10
ENDMDL
MODEL 9
REMARK VINA RESULT:      -5.8      2.157      5.305
REMARK  Name = ZINC95486141
REMARK  10 active torsions:
REMARK  status: ('A' for Active; 'I' for Inactive)
REMARK    1  A    between atoms: C3_3  and  O10_36
REMARK    2  A    between atoms: C6_6  and  C7_7
REMARK    3  A    between atoms: C11_12  and  O9_35
REMARK    4  A    between atoms: C13_14  and  O8_34
REMARK    5  A    between atoms: C14_15  and  C16_18
REMARK    6  A    between atoms: C17_20  and  O7_33
REMARK    7  A    between atoms: C18_22  and  O6_32
REMARK    8  A    between atoms: C19_24  and  C21_30
REMARK    9  A    between atoms: C20_27  and  O4_29
REMARK   10  A    between atoms: C21_30  and  O5_31
REMARK                            x       y       z     vdW  Elec       q    Type
REMARK                         _______ _______ _______ _____ _____    ______ ____
ROOT
ATOM      9  C   UNL     1      48.337  16.216  17.881  0.00  0.00    +0.211 A 
ATOM     10  C   UNL     1      49.665  16.372  17.638  0.00  0.00    -0.161 A 
ATOM     11  C   UNL     1      50.304  17.582  18.001  0.00  0.00    +0.424 A 
ATOM     12  C   UNL     1      49.475  18.622  18.634  0.00  0.00    -0.268 A 
ATOM     13  C   UNL     1      50.023  19.850  19.025  0.00  0.00    +0.220 A 
ATOM     16  C   UNL     1      49.211  20.801  19.616  0.00  0.00    -0.060 A 
ATOM     17  C   UNL     1      47.861  20.537  19.820  0.00  0.00    +0.199 A 
ATOM     20  C   UNL     1      47.312  19.323  19.434  0.00  0.00    -0.135 A 
ATOM     36  C   UNL     1      48.110  18.358  18.840  0.00  0.00    +0.208 A 
ATOM     37  O   UNL     1      51.494  17.756  17.797  0.00  0.00    -0.460 OA
ATOM     38  O   UNL     1      47.590  17.174  18.455  0.00  0.00    -0.180 OA
ENDROOT
BRANCH   9   8
ATOM      1  C   UNL     1      48.238  14.161  16.479  0.00  0.00    +0.086 A 
ATOM      2  C   UNL     1      47.630  12.978  16.122  0.00  0.00    -0.014 A 
ATOM      3  C   UNL     1      46.473  12.566  16.771  0.00  0.00    +0.134 A 
ATOM      6  C   UNL     1      45.923  13.345  17.782  0.00  0.00    -0.009 A 
ATOM      7  C   UNL     1      46.524  14.530  18.145  0.00  0.00    +0.077 A 
ATOM      8  C   UNL     1      47.689  14.948  17.495  0.00  0.00    -0.081 A 
BRANCH   3   4
ATOM      4  O   UNL     1      45.876  11.399  16.416  0.00  0.00    -0.497 OA
ATOM      5  H   UNL     1      46.444  10.623  16.512  0.00  0.00    +0.397 HD
ENDBRANCH   3   4
ENDBRANCH   9   8
BRANCH  20  21
ATOM     21  C   UNL     1      45.847  19.054  19.662  0.00  0.00    +0.074 C 
ATOM     22  C   UNL     1      45.407  19.704  20.978  0.00  0.00    +0.207 C 
ATOM     25  C   UNL     1      43.901  19.491  21.162  0.00  0.00    +0.123 C 
ATOM     28  C   UNL     1      43.161  20.068  19.952  0.00  0.00    +0.148 C 
ATOM     32  O   UNL     1      43.639  19.444  18.760  0.00  0.00    -0.374 OA
ATOM     33  C   UNL     1      45.031  19.647  18.510  0.00  0.00    +0.380 C 
BRANCH  22  23
ATOM     23  O   UNL     1      46.112  19.104  22.067  0.00  0.00    -0.557 OA
ATOM     24  H   UNL     1      46.717  18.398  21.801  0.00  0.00    +0.388 HD
ENDBRANCH  22  23
BRANCH  25  26
ATOM     26  O   UNL     1      43.467  20.153  22.351  0.00  0.00    -0.556 OA
ATOM     27  H   UNL     1      43.314  21.102  22.239  0.00  0.00    +0.383 HD
ENDBRANCH  25  26
BRANCH  33  34
ATOM     34  O   UNL     1      45.296  21.048  18.411  0.00  0.00    -0.562 OA
ATOM     35  H   UNL     1      44.542  21.570  18.103  0.00  0.00    +0.386 HD
ENDBRANCH  33  34
BRANCH  28  29
ATOM     29  C   UNL     1      41.661  19.807  20.100  0.00  0.00    +0.198 C 
BRANCH  29  30
ATOM     30  O   UNL     1      41.451  18.756  21.045  0.00  0.00    -0.561 OA
ATOM     31  H   UNL     1      41.644  17.873  20.700  0.00  0.00    +0.384 HD
ENDBRANCH  29  30
ENDBRANCH  28  29
ENDBRANCH  20  21
BRANCH  13  14
ATOM     14  O   UNL     1      51.341  20.105  18.827  0.00  0.00    -0.473 OA
ATOM     15  H   UNL     1      51.692  19.741  18.002  0.00  0.00    +0.402 HD
ENDBRANCH  13  14
BRANCH  17  18
ATOM     18  O   UNL     1      47.073  21.477  20.401  0.00  0.00    -0.486 OA
ATOM     19  H   UNL     1      46.187  21.162  20.627  0.00  0.00    +0.404 HD
ENDBRANCH  17  18
TORSDOF 10
ENDMDL
