MODEL 1
REMARK VINA RESULT:      -6.6      0.000      0.000
REMARK  Name = ZINC95486368
REMARK  12 active torsions:
REMARK  status: ('A' for Active; 'I' for Inactive)
REMARK    1  A    between atoms: C1_1  and  C2_2
REMARK    2  A    between atoms: C2_2  and  C3_3
REMARK    3  A    between atoms: C3_3  and  C4_5
REMARK    4  A    between atoms: C3_3  and  C28_34
REMARK    5  A    between atoms: C4_5  and  C5_6
REMARK    6  A    between atoms: C5_6  and  C6_7
REMARK    7  A    between atoms: C6_7  and  C7_9
REMARK    8  A    between atoms: C6_7  and  C8_10
REMARK    9  A    between atoms: C12_16  and  C27_33
REMARK   10  A    between atoms: C21_27  and  C26_32
REMARK   11  A    between atoms: C28_34  and  C29_35
REMARK   12  A    between atoms: C28_34  and  C30_36
REMARK                            x       y       z     vdW  Elec       q    Type
REMARK                         _______ _______ _______ _____ _____    ______ ____
ROOT
ATOM     10  C   UNL     1      45.608  20.666  19.578  0.00  0.00    -0.011 C 
ATOM     11  C   UNL     1      45.051  19.235  19.732  0.00  0.00    +0.006 C 
ATOM     12  C   UNL     1      46.308  18.351  19.970  0.00  0.00    +0.010 C 
ATOM     13  C   UNL     1      47.168  19.286  20.833  0.00  0.00    -0.018 C 
ATOM     14  C   UNL     1      48.521  18.787  21.179  0.00  0.00    +0.060 C 
ATOM     15  C   UNL     1      49.623  19.165  20.219  0.00  0.00    -0.093 C 
ATOM     16  C   UNL     1      51.043  19.058  20.815  0.00  0.00    +0.089 C 
ATOM     17  C   UNL     1      52.002  19.720  19.858  0.00  0.00    -0.068 C 
ATOM     18  C   UNL     1      51.938  19.468  18.560  0.00  0.00    -0.101 C 
ATOM     19  C   UNL     1      50.862  18.508  18.041  0.00  0.00    +0.019 C 
ATOM     20  C   UNL     1      51.276  17.087  18.430  0.00  0.00    +0.025 C 
ATOM     21  C   UNL     1      50.611  18.526  16.545  0.00  0.00    +0.021 C 
ATOM     22  C   UNL     1      51.869  18.846  15.747  0.00  0.00    +0.010 C 
ATOM     23  C   UNL     1      52.368  20.232  16.173  0.00  0.00    +0.009 C 
ATOM     24  C   UNL     1      52.963  20.144  17.691  0.00  0.00    +0.056 C 
ATOM     25  C   UNL     1      49.537  18.846  18.752  0.00  0.00    -0.029 C 
ATOM     26  C   UNL     1      49.373  20.298  19.237  0.00  0.00    -0.029 C 
ATOM     27  C   UNL     1      47.998  20.901  19.051  0.00  0.00    +0.047 C 
ATOM     28  C   UNL     1      47.033  20.660  20.200  0.00  0.00    -0.039 C 
ATOM     29  C   UNL     1      47.159  21.754  21.263  0.00  0.00    +0.028 C 
ENDROOT
BRANCH  10   9
ATOM      9  C   UNL     1      44.715  21.659  20.325  0.00  0.00    -0.013 C 
ATOM     30  C   UNL     1      44.572  22.939  19.498  0.00  0.00    +0.007 C 
BRANCH   9   8
ATOM      8  C   UNL     1      43.333  21.037  20.544  0.00  0.00    +0.016 C 
BRANCH   8   7
ATOM      7  C   UNL     1      42.378  21.522  19.451  0.00  0.00    +0.007 C 
BRANCH   7   3
ATOM      3  C   UNL     1      41.062  20.748  19.545  0.00  0.00    -0.015 C 
BRANCH   3   4
ATOM      4  C   UNL     1      40.343  20.799  18.196  0.00  0.00    -0.023 C 
ATOM      5  C   UNL     1      38.949  21.401  18.382  0.00  0.00    +0.011 C 
ATOM      6  C   UNL     1      40.214  19.383  17.632  0.00  0.00    +0.011 C 
ENDBRANCH   3   4
BRANCH   3   2
ATOM      1  C   UNL     1      40.631  18.944  21.218  0.00  0.00    +0.006 C 
ATOM      2  C   UNL     1      41.351  19.292  19.915  0.00  0.00    +0.001 C 
ENDBRANCH   3   2
ENDBRANCH   7   3
ENDBRANCH   8   7
ENDBRANCH   9   8
ENDBRANCH  10   9
TORSDOF 6
ENDMDL
MODEL 2
REMARK VINA RESULT:      -6.4      3.128      7.680
REMARK  Name = ZINC95486368
REMARK  12 active torsions:
REMARK  status: ('A' for Active; 'I' for Inactive)
REMARK    1  A    between atoms: C1_1  and  C2_2
REMARK    2  A    between atoms: C2_2  and  C3_3
REMARK    3  A    between atoms: C3_3  and  C4_5
REMARK    4  A    between atoms: C3_3  and  C28_34
REMARK    5  A    between atoms: C4_5  and  C5_6
REMARK    6  A    between atoms: C5_6  and  C6_7
REMARK    7  A    between atoms: C6_7  and  C7_9
REMARK    8  A    between atoms: C6_7  and  C8_10
REMARK    9  A    between atoms: C12_16  and  C27_33
REMARK   10  A    between atoms: C21_27  and  C26_32
REMARK   11  A    between atoms: C28_34  and  C29_35
REMARK   12  A    between atoms: C28_34  and  C30_36
REMARK                            x       y       z     vdW  Elec       q    Type
REMARK                         _______ _______ _______ _____ _____    ______ ____
ROOT
ATOM     10  C   UNL     1      48.647  17.292  18.496  0.00  0.00    -0.011 C 
ATOM     11  C   UNL     1      48.822  16.542  19.832  0.00  0.00    +0.006 C 
ATOM     12  C   UNL     1      47.515  16.837  20.621  0.00  0.00    +0.010 C 
ATOM     13  C   UNL     1      46.477  16.821  19.487  0.00  0.00    -0.018 C 
ATOM     14  C   UNL     1      45.089  17.168  19.875  0.00  0.00    +0.060 C 
ATOM     15  C   UNL     1      44.726  18.630  19.769  0.00  0.00    -0.093 C 
ATOM     16  C   UNL     1      43.208  18.901  19.713  0.00  0.00    +0.089 C 
ATOM     17  C   UNL     1      43.005  20.346  19.332  0.00  0.00    -0.068 C 
ATOM     18  C   UNL     1      43.704  21.302  19.923  0.00  0.00    -0.101 C 
ATOM     19  C   UNL     1      44.738  20.917  20.987  0.00  0.00    +0.019 C 
ATOM     20  C   UNL     1      43.979  20.510  22.252  0.00  0.00    +0.025 C 
ATOM     21  C   UNL     1      45.738  21.991  21.372  0.00  0.00    +0.021 C 
ATOM     22  C   UNL     1      45.152  23.393  21.278  0.00  0.00    +0.010 C 
ATOM     23  C   UNL     1      44.713  23.634  19.828  0.00  0.00    +0.009 C 
ATOM     24  C   UNL     1      43.403  22.715  19.506  0.00  0.00    +0.056 C 
ATOM     25  C   UNL     1      45.524  19.695  20.471  0.00  0.00    -0.029 C 
ATOM     26  C   UNL     1      45.618  19.541  18.942  0.00  0.00    -0.029 C 
ATOM     27  C   UNL     1      46.956  19.076  18.410  0.00  0.00    +0.047 C 
ATOM     28  C   UNL     1      47.125  17.567  18.334  0.00  0.00    -0.039 C 
ATOM     29  C   UNL     1      46.620  17.025  16.995  0.00  0.00    +0.028 C 
ENDROOT
BRANCH  10   9
ATOM      9  C   UNL     1      49.147  16.424  17.338  0.00  0.00    -0.013 C 
ATOM     30  C   UNL     1      50.395  17.064  16.724  0.00  0.00    +0.007 C 
BRANCH   9   8
ATOM      8  C   UNL     1      49.495  15.029  17.861  0.00  0.00    +0.016 C 
BRANCH   8   7
ATOM      7  C   UNL     1      48.515  14.009  17.279  0.00  0.00    +0.007 C 
BRANCH   7   3
ATOM      3  C   UNL     1      47.562  13.533  18.378  0.00  0.00    -0.015 C 
BRANCH   3   4
ATOM      4  C   UNL     1      46.148  13.409  17.809  0.00  0.00    -0.023 C 
ATOM      5  C   UNL     1      45.145  13.277  18.957  0.00  0.00    +0.011 C 
ATOM      6  C   UNL     1      46.065  12.170  16.916  0.00  0.00    +0.011 C 
ENDBRANCH   3   4
BRANCH   3   2
ATOM      1  C   UNL     1      48.503  12.315  20.346  0.00  0.00    +0.006 C 
ATOM      2  C   UNL     1      48.025  12.172  18.900  0.00  0.00    +0.001 C 
ENDBRANCH   3   2
ENDBRANCH   7   3
ENDBRANCH   8   7
ENDBRANCH   9   8
ENDBRANCH  10   9
TORSDOF 6
ENDMDL
MODEL 3
REMARK VINA RESULT:      -6.4      1.484      3.331
REMARK  Name = ZINC95486368
REMARK  12 active torsions:
REMARK  status: ('A' for Active; 'I' for Inactive)
REMARK    1  A    between atoms: C1_1  and  C2_2
REMARK    2  A    between atoms: C2_2  and  C3_3
REMARK    3  A    between atoms: C3_3  and  C4_5
REMARK    4  A    between atoms: C3_3  and  C28_34
REMARK    5  A    between atoms: C4_5  and  C5_6
REMARK    6  A    between atoms: C5_6  and  C6_7
REMARK    7  A    between atoms: C6_7  and  C7_9
REMARK    8  A    between atoms: C6_7  and  C8_10
REMARK    9  A    between atoms: C12_16  and  C27_33
REMARK   10  A    between atoms: C21_27  and  C26_32
REMARK   11  A    between atoms: C28_34  and  C29_35
REMARK   12  A    between atoms: C28_34  and  C30_36
REMARK                            x       y       z     vdW  Elec       q    Type
REMARK                         _______ _______ _______ _____ _____    ______ ____
ROOT
ATOM     10  C   UNL     1      45.842  18.472  21.218  0.00  0.00    -0.011 C 
ATOM     11  C   UNL     1      45.793  19.769  22.051  0.00  0.00    +0.006 C 
ATOM     12  C   UNL     1      47.073  20.549  21.636  0.00  0.00    +0.010 C 
ATOM     13  C   UNL     1      47.148  20.216  20.138  0.00  0.00    -0.018 C 
ATOM     14  C   UNL     1      48.336  20.734  19.418  0.00  0.00    +0.060 C 
ATOM     15  C   UNL     1      49.527  19.808  19.368  0.00  0.00    -0.093 C 
ATOM     16  C   UNL     1      50.541  20.143  18.253  0.00  0.00    +0.089 C 
ATOM     17  C   UNL     1      51.511  18.994  18.144  0.00  0.00    -0.068 C 
ATOM     18  C   UNL     1      52.055  18.467  19.230  0.00  0.00    -0.101 C 
ATOM     19  C   UNL     1      51.667  19.029  20.603  0.00  0.00    +0.019 C 
ATOM     20  C   UNL     1      52.351  20.389  20.761  0.00  0.00    +0.025 C 
ATOM     21  C   UNL     1      52.037  18.181  21.805  0.00  0.00    +0.021 C 
ATOM     22  C   UNL     1      53.316  17.384  21.584  0.00  0.00    +0.010 C 
ATOM     23  C   UNL     1      53.102  16.456  20.382  0.00  0.00    +0.009 C 
ATOM     24  C   UNL     1      53.042  17.353  19.018  0.00  0.00    +0.056 C 
ATOM     25  C   UNL     1      50.140  19.242  20.619  0.00  0.00    -0.029 C 
ATOM     26  C   UNL     1      49.316  18.336  19.686  0.00  0.00    -0.029 C 
ATOM     27  C   UNL     1      48.010  17.825  20.254  0.00  0.00    +0.047 C 
ATOM     28  C   UNL     1      46.815  18.738  20.034  0.00  0.00    -0.039 C 
ATOM     29  C   UNL     1      46.131  18.436  18.699  0.00  0.00    +0.028 C 
ENDROOT
BRANCH  10   9
ATOM      9  C   UNL     1      44.447  18.139  20.683  0.00  0.00    -0.013 C 
ATOM     30  C   UNL     1      44.065  16.718  21.104  0.00  0.00    +0.007 C 
BRANCH   9   8
ATOM      8  C   UNL     1      43.431  19.130  21.257  0.00  0.00    +0.016 C 
BRANCH   8   7
ATOM      7  C   UNL     1      42.306  19.350  20.245  0.00  0.00    +0.007 C 
BRANCH   7   3
ATOM      3  C   UNL     1      42.782  20.315  19.156  0.00  0.00    -0.015 C 
BRANCH   3   4
ATOM      4  C   UNL     1      41.623  20.626  18.207  0.00  0.00    -0.023 C 
ATOM      5  C   UNL     1      40.898  21.886  18.682  0.00  0.00    +0.011 C 
ATOM      6  C   UNL     1      40.645  19.449  18.195  0.00  0.00    +0.011 C 
ENDBRANCH   3   4
BRANCH   3   2
ATOM      1  C   UNL     1      44.599  22.029  19.163  0.00  0.00    +0.006 C 
ATOM      2  C   UNL     1      43.274  21.611  19.803  0.00  0.00    +0.001 C 
ENDBRANCH   3   2
ENDBRANCH   7   3
ENDBRANCH   8   7
ENDBRANCH   9   8
ENDBRANCH  10   9
TORSDOF 6
ENDMDL
MODEL 4
REMARK VINA RESULT:      -6.4      3.959      7.787
REMARK  Name = ZINC95486368
REMARK  12 active torsions:
REMARK  status: ('A' for Active; 'I' for Inactive)
REMARK    1  A    between atoms: C1_1  and  C2_2
REMARK    2  A    between atoms: C2_2  and  C3_3
REMARK    3  A    between atoms: C3_3  and  C4_5
REMARK    4  A    between atoms: C3_3  and  C28_34
REMARK    5  A    between atoms: C4_5  and  C5_6
REMARK    6  A    between atoms: C5_6  and  C6_7
REMARK    7  A    between atoms: C6_7  and  C7_9
REMARK    8  A    between atoms: C6_7  and  C8_10
REMARK    9  A    between atoms: C12_16  and  C27_33
REMARK   10  A    between atoms: C21_27  and  C26_32
REMARK   11  A    between atoms: C28_34  and  C29_35
REMARK   12  A    between atoms: C28_34  and  C30_36
REMARK                            x       y       z     vdW  Elec       q    Type
REMARK                         _______ _______ _______ _____ _____    ______ ____
ROOT
ATOM     10  C   UNL     1      47.824  17.805  19.043  0.00  0.00    -0.011 C 
ATOM     11  C   UNL     1      48.516  17.553  20.398  0.00  0.00    +0.006 C 
ATOM     12  C   UNL     1      49.434  16.324  20.147  0.00  0.00    +0.010 C 
ATOM     13  C   UNL     1      49.912  16.602  18.713  0.00  0.00    -0.018 C 
ATOM     14  C   UNL     1      50.757  15.551  18.097  0.00  0.00    +0.060 C 
ATOM     15  C   UNL     1      50.019  14.490  17.316  0.00  0.00    -0.093 C 
ATOM     16  C   UNL     1      50.902  13.710  16.319  0.00  0.00    +0.089 C 
ATOM     17  C   UNL     1      49.996  12.898  15.429  0.00  0.00    -0.068 C 
ATOM     18  C   UNL     1      49.006  12.187  15.947  0.00  0.00    -0.101 C 
ATOM     19  C   UNL     1      48.781  12.218  17.462  0.00  0.00    +0.019 C 
ATOM     20  C   UNL     1      49.891  11.392  18.117  0.00  0.00    +0.025 C 
ATOM     21  C   UNL     1      47.451  11.682  17.956  0.00  0.00    +0.021 C 
ATOM     22  C   UNL     1      46.913  10.560  17.077  0.00  0.00    +0.010 C 
ATOM     23  C   UNL     1      46.720  11.111  15.659  0.00  0.00    +0.009 C 
ATOM     24  C   UNL     1      48.183  11.377  14.984  0.00  0.00    +0.056 C 
ATOM     25  C   UNL     1      48.913  13.680  17.935  0.00  0.00    -0.029 C 
ATOM     26  C   UNL     1      48.585  14.766  16.894  0.00  0.00    -0.029 C 
ATOM     27  C   UNL     1      47.819  15.963  17.414  0.00  0.00    +0.047 C 
ATOM     28  C   UNL     1      48.682  17.086  17.963  0.00  0.00    -0.039 C 
ATOM     29  C   UNL     1      49.082  18.064  16.856  0.00  0.00    +0.028 C 
ENDROOT
BRANCH  10   9
ATOM      9  C   UNL     1      47.770  19.307  18.753  0.00  0.00    -0.013 C 
ATOM     30  C   UNL     1      46.312  19.768  18.725  0.00  0.00    +0.007 C 
BRANCH   9   8
ATOM      8  C   UNL     1      48.524  20.065  19.849  0.00  0.00    +0.016 C 
BRANCH   8   7
ATOM      7  C   UNL     1      49.658  20.875  19.219  0.00  0.00    +0.007 C 
BRANCH   7   3
ATOM      3  C   UNL     1      50.994  20.184  19.498  0.00  0.00    -0.015 C 
BRANCH   3   4
ATOM      4  C   UNL     1      51.958  20.449  18.341  0.00  0.00    -0.023 C 
ATOM      5  C   UNL     1      51.200  21.102  17.184  0.00  0.00    +0.011 C 
ATOM      6  C   UNL     1      52.564  19.126  17.869  0.00  0.00    +0.011 C 
ENDBRANCH   3   4
BRANCH   3   2
ATOM      1  C   UNL     1      52.600  21.834  20.467  0.00  0.00    +0.006 C 
ATOM      2  C   UNL     1      51.591  20.732  20.796  0.00  0.00    +0.001 C 
ENDBRANCH   3   2
ENDBRANCH   7   3
ENDBRANCH   8   7
ENDBRANCH   9   8
ENDBRANCH  10   9
TORSDOF 6
ENDMDL
MODEL 5
REMARK VINA RESULT:      -6.2      3.636      5.484
REMARK  Name = ZINC95486368
REMARK  12 active torsions:
REMARK  status: ('A' for Active; 'I' for Inactive)
REMARK    1  A    between atoms: C1_1  and  C2_2
REMARK    2  A    between atoms: C2_2  and  C3_3
REMARK    3  A    between atoms: C3_3  and  C4_5
REMARK    4  A    between atoms: C3_3  and  C28_34
REMARK    5  A    between atoms: C4_5  and  C5_6
REMARK    6  A    between atoms: C5_6  and  C6_7
REMARK    7  A    between atoms: C6_7  and  C7_9
REMARK    8  A    between atoms: C6_7  and  C8_10
REMARK    9  A    between atoms: C12_16  and  C27_33
REMARK   10  A    between atoms: C21_27  and  C26_32
REMARK   11  A    between atoms: C28_34  and  C29_35
REMARK   12  A    between atoms: C28_34  and  C30_36
REMARK                            x       y       z     vdW  Elec       q    Type
REMARK                         _______ _______ _______ _____ _____    ______ ____
ROOT
ATOM     10  C   UNL     1      47.640  18.927  18.614  0.00  0.00    -0.011 C 
ATOM     11  C   UNL     1      46.180  19.149  18.169  0.00  0.00    +0.006 C 
ATOM     12  C   UNL     1      45.514  17.750  18.298  0.00  0.00    +0.010 C 
ATOM     13  C   UNL     1      46.200  17.214  19.564  0.00  0.00    -0.018 C 
ATOM     14  C   UNL     1      45.862  15.820  19.943  0.00  0.00    +0.060 C 
ATOM     15  C   UNL     1      46.764  14.751  19.375  0.00  0.00    -0.093 C 
ATOM     16  C   UNL     1      46.701  13.406  20.130  0.00  0.00    +0.089 C 
ATOM     17  C   UNL     1      47.835  12.542  19.639  0.00  0.00    -0.068 C 
ATOM     18  C   UNL     1      48.078  12.425  18.343  0.00  0.00    -0.101 C 
ATOM     19  C   UNL     1      47.203  13.197  17.349  0.00  0.00    +0.019 C 
ATOM     20  C   UNL     1      45.840  12.503  17.289  0.00  0.00    +0.025 C 
ATOM     21  C   UNL     1      47.732  13.305  15.931  0.00  0.00    +0.021 C 
ATOM     22  C   UNL     1      48.549  12.087  15.520  0.00  0.00    +0.010 C 
ATOM     23  C   UNL     1      49.742  11.964  16.475  0.00  0.00    +0.009 C 
ATOM     24  C   UNL     1      49.203  11.508  17.948  0.00  0.00    +0.056 C 
ATOM     25  C   UNL     1      47.005  14.625  17.896  0.00  0.00    -0.029 C 
ATOM     26  C   UNL     1      48.116  15.163  18.815  0.00  0.00    -0.029 C 
ATOM     27  C   UNL     1      48.485  16.617  18.617  0.00  0.00    +0.047 C 
ATOM     28  C   UNL     1      47.662  17.603  19.429  0.00  0.00    -0.039 C 
ATOM     29  C   UNL     1      48.284  17.832  20.809  0.00  0.00    +0.028 C 
ENDROOT
BRANCH  10   9
ATOM      9  C   UNL     1      48.103  20.091  19.493  0.00  0.00    -0.013 C 
ATOM     30  C   UNL     1      49.360  20.719  18.887  0.00  0.00    +0.007 C 
BRANCH   9   8
ATOM      8  C   UNL     1      46.994  21.143  19.572  0.00  0.00    +0.016 C 
BRANCH   8   7
ATOM      7  C   UNL     1      46.547  21.303  21.026  0.00  0.00    +0.007 C 
BRANCH   7   3
ATOM      3  C   UNL     1      45.019  21.345  21.087  0.00  0.00    -0.015 C 
BRANCH   3   4
ATOM      4  C   UNL     1      44.464  21.757  19.722  0.00  0.00    -0.023 C 
ATOM      5  C   UNL     1      44.106  23.244  19.743  0.00  0.00    +0.011 C 
ATOM      6  C   UNL     1      43.212  20.935  19.412  0.00  0.00    +0.011 C 
ENDBRANCH   3   4
BRANCH   3   2
ATOM      1  C   UNL     1      45.402  19.325  22.505  0.00  0.00    +0.006 C 
ATOM      2  C   UNL     1      44.485  19.961  21.460  0.00  0.00    +0.001 C 
ENDBRANCH   3   2
ENDBRANCH   7   3
ENDBRANCH   8   7
ENDBRANCH   9   8
ENDBRANCH  10   9
TORSDOF 6
ENDMDL
MODEL 6
REMARK VINA RESULT:      -6.1      2.380      8.709
REMARK  Name = ZINC95486368
REMARK  12 active torsions:
REMARK  status: ('A' for Active; 'I' for Inactive)
REMARK    1  A    between atoms: C1_1  and  C2_2
REMARK    2  A    between atoms: C2_2  and  C3_3
REMARK    3  A    between atoms: C3_3  and  C4_5
REMARK    4  A    between atoms: C3_3  and  C28_34
REMARK    5  A    between atoms: C4_5  and  C5_6
REMARK    6  A    between atoms: C5_6  and  C6_7
REMARK    7  A    between atoms: C6_7  and  C7_9
REMARK    8  A    between atoms: C6_7  and  C8_10
REMARK    9  A    between atoms: C12_16  and  C27_33
REMARK   10  A    between atoms: C21_27  and  C26_32
REMARK   11  A    between atoms: C28_34  and  C29_35
REMARK   12  A    between atoms: C28_34  and  C30_36
REMARK                            x       y       z     vdW  Elec       q    Type
REMARK                         _______ _______ _______ _____ _____    ______ ____
ROOT
ATOM     10  C   UNL     1      47.911  16.194  17.491  0.00  0.00    -0.011 C 
ATOM     11  C   UNL     1      48.918  17.341  17.269  0.00  0.00    +0.006 C 
ATOM     12  C   UNL     1      48.549  18.399  18.347  0.00  0.00    +0.010 C 
ATOM     13  C   UNL     1      48.169  17.495  19.529  0.00  0.00    -0.018 C 
ATOM     14  C   UNL     1      47.659  18.188  20.737  0.00  0.00    +0.060 C 
ATOM     15  C   UNL     1      46.163  18.378  20.801  0.00  0.00    -0.093 C 
ATOM     16  C   UNL     1      45.621  18.653  22.220  0.00  0.00    +0.089 C 
ATOM     17  C   UNL     1      44.118  18.544  22.175  0.00  0.00    -0.068 C 
ATOM     18  C   UNL     1      43.430  19.131  21.210  0.00  0.00    -0.101 C 
ATOM     19  C   UNL     1      44.184  19.907  20.125  0.00  0.00    +0.019 C 
ATOM     20  C   UNL     1      44.680  21.216  20.745  0.00  0.00    +0.025 C 
ATOM     21  C   UNL     1      43.396  20.256  18.876  0.00  0.00    +0.021 C 
ATOM     22  C   UNL     1      41.919  20.491  19.167  0.00  0.00    +0.010 C 
ATOM     23  C   UNL     1      41.337  19.205  19.766  0.00  0.00    +0.009 C 
ATOM     24  C   UNL     1      41.933  19.000  21.273  0.00  0.00    +0.056 C 
ATOM     25  C   UNL     1      45.407  19.070  19.700  0.00  0.00    -0.029 C 
ATOM     26  C   UNL     1      45.286  17.546  19.880  0.00  0.00    -0.029 C 
ATOM     27  C   UNL     1      45.873  16.705  18.767  0.00  0.00    +0.047 C 
ATOM     28  C   UNL     1      47.345  16.368  18.929  0.00  0.00    -0.039 C 
ATOM     29  C   UNL     1      47.529  15.082  19.738  0.00  0.00    +0.028 C 
ENDROOT
BRANCH  10   9
ATOM      9  C   UNL     1      48.621  14.843  17.368  0.00  0.00    -0.013 C 
ATOM     30  C   UNL     1      47.921  13.994  16.305  0.00  0.00    +0.007 C 
BRANCH   9   8
ATOM      8  C   UNL     1      50.079  15.069  16.961  0.00  0.00    +0.016 C 
BRANCH   8   7
ATOM      7  C   UNL     1      51.003  14.474  18.025  0.00  0.00    +0.007 C 
BRANCH   7   3
ATOM      3  C   UNL     1      51.318  15.538  19.079  0.00  0.00    -0.015 C 
BRANCH   3   4
ATOM      4  C   UNL     1      51.455  14.873  20.449  0.00  0.00    -0.023 C 
ATOM      5  C   UNL     1      50.813  13.486  20.411  0.00  0.00    +0.011 C 
ATOM      6  C   UNL     1      50.753  15.731  21.504  0.00  0.00    +0.011 C 
ENDBRANCH   3   4
BRANCH   3   2
ATOM      1  C   UNL     1      52.396  17.751  18.655  0.00  0.00    +0.006 C 
ATOM      2  C   UNL     1      52.628  16.241  18.718  0.00  0.00    +0.001 C 
ENDBRANCH   3   2
ENDBRANCH   7   3
ENDBRANCH   8   7
ENDBRANCH   9   8
ENDBRANCH  10   9
TORSDOF 6
ENDMDL
MODEL 7
REMARK VINA RESULT:      -6.0      4.389      6.270
REMARK  Name = ZINC95486368
REMARK  12 active torsions:
REMARK  status: ('A' for Active; 'I' for Inactive)
REMARK    1  A    between atoms: C1_1  and  C2_2
REMARK    2  A    between atoms: C2_2  and  C3_3
REMARK    3  A    between atoms: C3_3  and  C4_5
REMARK    4  A    between atoms: C3_3  and  C28_34
REMARK    5  A    between atoms: C4_5  and  C5_6
REMARK    6  A    between atoms: C5_6  and  C6_7
REMARK    7  A    between atoms: C6_7  and  C7_9
REMARK    8  A    between atoms: C6_7  and  C8_10
REMARK    9  A    between atoms: C12_16  and  C27_33
REMARK   10  A    between atoms: C21_27  and  C26_32
REMARK   11  A    between atoms: C28_34  and  C29_35
REMARK   12  A    between atoms: C28_34  and  C30_36
REMARK                            x       y       z     vdW  Elec       q    Type
REMARK                         _______ _______ _______ _____ _____    ______ ____
ROOT
ATOM     10  C   UNL     1      48.415  17.622  17.916  0.00  0.00    -0.011 C 
ATOM     11  C   UNL     1      47.132  17.951  17.124  0.00  0.00    +0.006 C 
ATOM     12  C   UNL     1      46.539  16.564  16.746  0.00  0.00    +0.010 C 
ATOM     13  C   UNL     1      46.864  15.750  18.008  0.00  0.00    -0.018 C 
ATOM     14  C   UNL     1      46.515  14.310  17.959  0.00  0.00    +0.060 C 
ATOM     15  C   UNL     1      47.601  13.389  17.459  0.00  0.00    -0.093 C 
ATOM     16  C   UNL     1      47.404  11.909  17.851  0.00  0.00    +0.089 C 
ATOM     17  C   UNL     1      48.679  11.169  17.536  0.00  0.00    -0.068 C 
ATOM     18  C   UNL     1      49.289  11.344  16.374  0.00  0.00    -0.101 C 
ATOM     19  C   UNL     1      48.691  12.328  15.362  0.00  0.00    +0.019 C 
ATOM     20  C   UNL     1      47.444  11.677  14.758  0.00  0.00    +0.025 C 
ATOM     21  C   UNL     1      49.594  12.748  14.218  0.00  0.00    +0.021 C 
ATOM     22  C   UNL     1      50.564  11.648  13.808  0.00  0.00    +0.010 C 
ATOM     23  C   UNL     1      51.440  11.303  15.018  0.00  0.00    +0.009 C 
ATOM     24  C   UNL     1      50.531  10.531  16.134  0.00  0.00    +0.056 C 
ATOM     25  C   UNL     1      48.261  13.597  16.124  0.00  0.00    -0.029 C 
ATOM     26  C   UNL     1      49.031  13.906  17.422  0.00  0.00    -0.029 C 
ATOM     27  C   UNL     1      49.355  15.364  17.661  0.00  0.00    +0.047 C 
ATOM     28  C   UNL     1      48.279  16.148  18.393  0.00  0.00    -0.039 C 
ATOM     29  C   UNL     1      48.467  16.055  19.909  0.00  0.00    +0.028 C 
ENDROOT
BRANCH  10   9
ATOM      9  C   UNL     1      48.539  18.554  19.123  0.00  0.00    -0.013 C 
ATOM     30  C   UNL     1      49.798  19.411  18.978  0.00  0.00    +0.007 C 
BRANCH   9   8
ATOM      8  C   UNL     1      47.309  19.462  19.195  0.00  0.00    +0.016 C 
BRANCH   8   7
ATOM      7  C   UNL     1      46.648  19.318  20.566  0.00  0.00    +0.007 C 
BRANCH   7   3
ATOM      3  C   UNL     1      45.127  19.296  20.400  0.00  0.00    -0.015 C 
BRANCH   3   4
ATOM      4  C   UNL     1      44.700  20.427  19.463  0.00  0.00    -0.023 C 
ATOM      5  C   UNL     1      44.410  21.686  20.281  0.00  0.00    +0.011 C 
ATOM      6  C   UNL     1      43.439  20.011  18.703  0.00  0.00    +0.011 C 
ENDBRANCH   3   4
BRANCH   3   2
ATOM      1  C   UNL     1      44.652  16.898  20.915  0.00  0.00    +0.006 C 
ATOM      2  C   UNL     1      44.698  17.952  19.807  0.00  0.00    +0.001 C 
ENDBRANCH   3   2
ENDBRANCH   7   3
ENDBRANCH   8   7
ENDBRANCH   9   8
ENDBRANCH  10   9
TORSDOF 6
ENDMDL
MODEL 8
REMARK VINA RESULT:      -5.9      3.853      6.020
REMARK  Name = ZINC95486368
REMARK  12 active torsions:
REMARK  status: ('A' for Active; 'I' for Inactive)
REMARK    1  A    between atoms: C1_1  and  C2_2
REMARK    2  A    between atoms: C2_2  and  C3_3
REMARK    3  A    between atoms: C3_3  and  C4_5
REMARK    4  A    between atoms: C3_3  and  C28_34
REMARK    5  A    between atoms: C4_5  and  C5_6
REMARK    6  A    between atoms: C5_6  and  C6_7
REMARK    7  A    between atoms: C6_7  and  C7_9
REMARK    8  A    between atoms: C6_7  and  C8_10
REMARK    9  A    between atoms: C12_16  and  C27_33
REMARK   10  A    between atoms: C21_27  and  C26_32
REMARK   11  A    between atoms: C28_34  and  C29_35
REMARK   12  A    between atoms: C28_34  and  C30_36
REMARK                            x       y       z     vdW  Elec       q    Type
REMARK                         _______ _______ _______ _____ _____    ______ ____
ROOT
ATOM     10  C   UNL     1      48.034  18.673  18.454  0.00  0.00    -0.011 C 
ATOM     11  C   UNL     1      46.544  18.970  18.185  0.00  0.00    +0.006 C 
ATOM     12  C   UNL     1      45.839  17.591  18.328  0.00  0.00    +0.010 C 
ATOM     13  C   UNL     1      46.637  16.971  19.485  0.00  0.00    -0.018 C 
ATOM     14  C   UNL     1      46.285  15.574  19.838  0.00  0.00    +0.060 C 
ATOM     15  C   UNL     1      47.074  14.500  19.127  0.00  0.00    -0.093 C 
ATOM     16  C   UNL     1      47.039  13.124  19.826  0.00  0.00    +0.089 C 
ATOM     17  C   UNL     1      48.075  12.244  19.174  0.00  0.00    -0.068 C 
ATOM     18  C   UNL     1      48.169  12.179  17.855  0.00  0.00    -0.101 C 
ATOM     19  C   UNL     1      47.223  13.029  17.000  0.00  0.00    +0.019 C 
ATOM     20  C   UNL     1      45.834  12.390  17.063  0.00  0.00    +0.025 C 
ATOM     21  C   UNL     1      47.596  13.185  15.537  0.00  0.00    +0.021 C 
ATOM     22  C   UNL     1      48.311  11.959  14.985  0.00  0.00    +0.010 C 
ATOM     23  C   UNL     1      49.596  11.748  15.795  0.00  0.00    +0.009 C 
ATOM     24  C   UNL     1      49.205  11.242  17.298  0.00  0.00    +0.056 C 
ATOM     25  C   UNL     1      47.145  14.436  17.627  0.00  0.00    -0.029 C 
ATOM     26  C   UNL     1      48.372  14.890  18.439  0.00  0.00    -0.029 C 
ATOM     27  C   UNL     1      48.777  16.337  18.263  0.00  0.00    +0.047 C 
ATOM     28  C   UNL     1      48.090  17.312  19.204  0.00  0.00    -0.039 C 
ATOM     29  C   UNL     1      48.869  17.453  20.514  0.00  0.00    +0.028 C 
ENDROOT
BRANCH  10   9
ATOM      9  C   UNL     1      48.639  19.776  19.326  0.00  0.00    -0.013 C 
ATOM     30  C   UNL     1      49.839  20.395  18.605  0.00  0.00    +0.007 C 
BRANCH   9   8
ATOM      8  C   UNL     1      47.586  20.858  19.583  0.00  0.00    +0.016 C 
BRANCH   8   7
ATOM      7  C   UNL     1      47.196  20.846  21.062  0.00  0.00    +0.007 C 
BRANCH   7   3
ATOM      3  C   UNL     1      45.697  21.122  21.196  0.00  0.00    -0.015 C 
BRANCH   3   4
ATOM      4  C   UNL     1      45.039  19.991  21.987  0.00  0.00    -0.023 C 
ATOM      5  C   UNL     1      46.112  19.013  22.469  0.00  0.00    +0.011 C 
ATOM      6  C   UNL     1      44.043  19.253  21.090  0.00  0.00    +0.011 C 
ENDBRANCH   3   4
BRANCH   3   2
ATOM      1  C   UNL     1      45.347  23.578  20.906  0.00  0.00    +0.006 C 
ATOM      2  C   UNL     1      45.485  22.448  21.928  0.00  0.00    +0.001 C 
ENDBRANCH   3   2
ENDBRANCH   7   3
ENDBRANCH   8   7
ENDBRANCH   9   8
ENDBRANCH  10   9
TORSDOF 6
ENDMDL
MODEL 9
REMARK VINA RESULT:      -5.9      2.613      8.786
REMARK  Name = ZINC95486368
REMARK  12 active torsions:
REMARK  status: ('A' for Active; 'I' for Inactive)
REMARK    1  A    between atoms: C1_1  and  C2_2
REMARK    2  A    between atoms: C2_2  and  C3_3
REMARK    3  A    between atoms: C3_3  and  C4_5
REMARK    4  A    between atoms: C3_3  and  C28_34
REMARK    5  A    between atoms: C4_5  and  C5_6
REMARK    6  A    between atoms: C5_6  and  C6_7
REMARK    7  A    between atoms: C6_7  and  C7_9
REMARK    8  A    between atoms: C6_7  and  C8_10
REMARK    9  A    between atoms: C12_16  and  C27_33
REMARK   10  A    between atoms: C21_27  and  C26_32
REMARK   11  A    between atoms: C28_34  and  C29_35
REMARK   12  A    between atoms: C28_34  and  C30_36
REMARK                            x       y       z     vdW  Elec       q    Type
REMARK                         _______ _______ _______ _____ _____    ______ ____
ROOT
ATOM     10  C   UNL     1      47.721  16.099  17.806  0.00  0.00    -0.011 C 
ATOM     11  C   UNL     1      48.808  17.193  17.811  0.00  0.00    +0.006 C 
ATOM     12  C   UNL     1      48.362  18.183  18.924  0.00  0.00    +0.010 C 
ATOM     13  C   UNL     1      47.785  17.213  19.967  0.00  0.00    -0.018 C 
ATOM     14  C   UNL     1      47.163  17.838  21.159  0.00  0.00    +0.060 C 
ATOM     15  C   UNL     1      45.683  18.120  21.054  0.00  0.00    -0.093 C 
ATOM     16  C   UNL     1      44.980  18.314  22.414  0.00  0.00    +0.089 C 
ATOM     17  C   UNL     1      43.492  18.306  22.176  0.00  0.00    -0.068 C 
ATOM     18  C   UNL     1      42.965  19.013  21.188  0.00  0.00    -0.101 C 
ATOM     19  C   UNL     1      43.894  19.824  20.277  0.00  0.00    +0.019 C 
ATOM     20  C   UNL     1      44.376  21.043  21.067  0.00  0.00    +0.025 C 
ATOM     21  C   UNL     1      43.292  20.322  18.976  0.00  0.00    +0.021 C 
ATOM     22  C   UNL     1      41.805  20.628  19.102  0.00  0.00    +0.010 C 
ATOM     23  C   UNL     1      41.082  19.339  19.510  0.00  0.00    +0.009 C 
ATOM     24  C   UNL     1      41.468  18.975  21.055  0.00  0.00    +0.056 C 
ATOM     25  C   UNL     1      45.114  18.946  19.934  0.00  0.00    -0.029 C 
ATOM     26  C   UNL     1      44.888  17.423  19.962  0.00  0.00    -0.029 C 
ATOM     27  C   UNL     1      45.566  16.638  18.861  0.00  0.00    +0.047 C 
ATOM     28  C   UNL     1      46.985  16.194  19.173  0.00  0.00    -0.039 C 
ATOM     29  C   UNL     1      46.994  14.838  19.882  0.00  0.00    +0.028 C 
ENDROOT
BRANCH  10   9
ATOM      9  C   UNL     1      48.366  14.720  17.653  0.00  0.00    -0.013 C 
ATOM     30  C   UNL     1      47.846  14.053  16.378  0.00  0.00    +0.007 C 
BRANCH   9   8
ATOM      8  C   UNL     1      49.886  14.875  17.564  0.00  0.00    +0.016 C 
BRANCH   8   7
ATOM      7  C   UNL     1      50.560  13.707  18.285  0.00  0.00    +0.007 C 
BRANCH   7   3
ATOM      3  C   UNL     1      51.283  14.226  19.530  0.00  0.00    -0.015 C 
BRANCH   3   4
ATOM      4  C   UNL     1      51.616  15.707  19.347  0.00  0.00    -0.023 C 
ATOM      5  C   UNL     1      53.111  15.863  19.062  0.00  0.00    +0.011 C 
ATOM      6  C   UNL     1      51.258  16.472  20.622  0.00  0.00    +0.011 C 
ENDBRANCH   3   4
BRANCH   3   2
ATOM      1  C   UNL     1      49.841  12.622  20.790  0.00  0.00    +0.006 C 
ATOM      2  C   UNL     1      50.381  14.052  20.753  0.00  0.00    +0.001 C 
ENDBRANCH   3   2
ENDBRANCH   7   3
ENDBRANCH   8   7
ENDBRANCH   9   8
ENDBRANCH  10   9
TORSDOF 6
ENDMDL
