MODEL 1
REMARK VINA RESULT:      -6.3      0.000      0.000
REMARK  Name = ZINC95486281
REMARK  8 active torsions:
REMARK  status: ('A' for Active; 'I' for Inactive)
REMARK    1  A    between atoms: C1_1  and  C2_2
REMARK    2  A    between atoms: C3_3  and  O7_23
REMARK    3  A    between atoms: C7_7  and  O1_8
REMARK    4  A    between atoms: C9_11  and  O6_22
REMARK    5  A    between atoms: C10_12  and  O4_14
REMARK    6  A    between atoms: O4_14  and  C11_15
REMARK    7  A    between atoms: C14_18  and  O5_21
REMARK    8  A    between atoms: O7_23  and  C17_24
REMARK                            x       y       z     vdW  Elec       q    Type
REMARK                         _______ _______ _______ _____ _____    ______ ____
ROOT
ATOM      1  C   UNL     1      46.494  12.922  18.893  0.00  0.00    +0.122 C 
ATOM      2  C   UNL     1      46.111  14.374  19.025  0.00  0.00    -0.171 A 
ATOM      3  C   UNL     1      46.459  15.277  18.026  0.00  0.00    +0.212 A 
ATOM      6  C   UNL     1      46.115  16.615  18.133  0.00  0.00    -0.090 A 
ATOM      7  C   UNL     1      45.416  17.066  19.242  0.00  0.00    +0.212 A 
ATOM      8  C   UNL     1      45.063  16.155  20.252  0.00  0.00    -0.279 A 
ATOM      9  C   UNL     1      44.320  16.657  21.420  0.00  0.00    +0.442 A 
ATOM     10  C   UNL     1      44.009  18.036  21.451  0.00  0.00    -0.060 A 
ATOM     13  C   UNL     1      44.398  18.833  20.421  0.00  0.00    +0.215 A 
ATOM     23  O   UNL     1      43.987  15.911  22.329  0.00  0.00    -0.430 OA
ATOM     24  O   UNL     1      45.073  18.365  19.362  0.00  0.00    -0.234 OA
ATOM     25  C   UNL     1      45.409  14.803  20.136  0.00  0.00    +0.241 A 
ENDROOT
BRANCH   3   4
ATOM      4  O   UNL     1      47.144  14.843  16.937  0.00  0.00    -0.296 OA
ATOM      5  C   UNL     1      48.556  15.065  16.928  0.00  0.00    +0.255 C 
ENDBRANCH   3   4
BRANCH  10  11
ATOM     11  O   UNL     1      43.323  18.562  22.505  0.00  0.00    -0.444 OA
ATOM     12  H   UNL     1      42.454  18.163  22.648  0.00  0.00    +0.399 HD
ENDBRANCH  10  11
BRANCH  25  26
ATOM     26  O   UNL     1      45.064  13.922  21.109  0.00  0.00    -0.466 OA
ATOM     27  H   UNL     1      44.294  13.379  20.892  0.00  0.00    +0.404 HD
ENDBRANCH  25  26
BRANCH  13  14
ATOM     14  O   UNL     1      44.091  20.149  20.466  0.00  0.00    -0.220 OA
BRANCH  14  15
ATOM     15  C   UNL     1      42.970  20.565  19.820  0.00  0.00    +0.055 A 
ATOM     16  C   UNL     1      41.966  19.657  19.516  0.00  0.00    +0.041 A 
ATOM     17  C   UNL     1      40.827  20.080  18.860  0.00  0.00    +0.008 A 
ATOM     18  C   UNL     1      40.686  21.413  18.504  0.00  0.00    +0.123 A 
ATOM     21  C   UNL     1      41.690  22.321  18.807  0.00  0.00    +0.010 A 
ATOM     22  C   UNL     1      42.826  21.900  19.469  0.00  0.00    +0.050 A 
BRANCH  18  19
ATOM     19  O   UNL     1      39.566  21.829  17.858  0.00  0.00    -0.496 OA
ATOM     20  H   UNL     1      39.727  22.161  16.964  0.00  0.00    +0.398 HD
ENDBRANCH  18  19
ENDBRANCH  14  15
ENDBRANCH  13  14
TORSDOF 6
ENDMDL
MODEL 2
REMARK VINA RESULT:      -6.2      5.446      7.154
REMARK  Name = ZINC95486281
REMARK  8 active torsions:
REMARK  status: ('A' for Active; 'I' for Inactive)
REMARK    1  A    between atoms: C1_1  and  C2_2
REMARK    2  A    between atoms: C3_3  and  O7_23
REMARK    3  A    between atoms: C7_7  and  O1_8
REMARK    4  A    between atoms: C9_11  and  O6_22
REMARK    5  A    between atoms: C10_12  and  O4_14
REMARK    6  A    between atoms: O4_14  and  C11_15
REMARK    7  A    between atoms: C14_18  and  O5_21
REMARK    8  A    between atoms: O7_23  and  C17_24
REMARK                            x       y       z     vdW  Elec       q    Type
REMARK                         _______ _______ _______ _____ _____    ______ ____
ROOT
ATOM      1  C   UNL     1      47.566  11.580  14.844  0.00  0.00    +0.122 C 
ATOM      2  C   UNL     1      48.314  12.696  15.529  0.00  0.00    -0.171 A 
ATOM      3  C   UNL     1      49.700  12.763  15.434  0.00  0.00    +0.212 A 
ATOM      6  C   UNL     1      50.402  13.781  16.058  0.00  0.00    -0.090 A 
ATOM      7  C   UNL     1      49.724  14.748  16.785  0.00  0.00    +0.212 A 
ATOM      8  C   UNL     1      48.323  14.683  16.881  0.00  0.00    -0.279 A 
ATOM      9  C   UNL     1      47.625  15.720  17.658  0.00  0.00    +0.442 A 
ATOM     10  C   UNL     1      48.416  16.724  18.263  0.00  0.00    -0.060 A 
ATOM     13  C   UNL     1      49.767  16.696  18.108  0.00  0.00    +0.215 A 
ATOM     23  O   UNL     1      46.409  15.714  17.776  0.00  0.00    -0.430 OA
ATOM     24  O   UNL     1      50.392  15.747  17.399  0.00  0.00    -0.234 OA
ATOM     25  C   UNL     1      47.619  13.653  16.244  0.00  0.00    +0.241 A 
ENDROOT
BRANCH   3   4
ATOM      4  O   UNL     1      50.371  11.819  14.724  0.00  0.00    -0.296 OA
ATOM      5  C   UNL     1      50.971  12.237  13.496  0.00  0.00    +0.255 C 
ENDBRANCH   3   4
BRANCH  10  11
ATOM     11  O   UNL     1      47.830  17.713  18.995  0.00  0.00    -0.444 OA
ATOM     12  H   UNL     1      47.844  18.580  18.568  0.00  0.00    +0.399 HD
ENDBRANCH  10  11
BRANCH  25  26
ATOM     26  O   UNL     1      46.267  13.592  16.333  0.00  0.00    -0.466 OA
ATOM     27  H   UNL     1      45.821  13.485  15.482  0.00  0.00    +0.404 HD
ENDBRANCH  25  26
BRANCH  13  14
ATOM     14  O   UNL     1      50.507  17.664  18.693  0.00  0.00    -0.220 OA
BRANCH  14  15
ATOM     15  C   UNL     1      50.849  18.746  17.944  0.00  0.00    +0.055 A 
ATOM     16  C   UNL     1      50.595  20.026  18.415  0.00  0.00    +0.041 A 
ATOM     17  C   UNL     1      50.943  21.124  17.655  0.00  0.00    +0.008 A 
ATOM     18  C   UNL     1      51.546  20.949  16.418  0.00  0.00    +0.123 A 
ATOM     21  C   UNL     1      51.799  19.670  15.946  0.00  0.00    +0.010 A 
ATOM     22  C   UNL     1      51.457  18.571  16.709  0.00  0.00    +0.050 A 
BRANCH  18  19
ATOM     19  O   UNL     1      51.887  22.030  15.669  0.00  0.00    -0.496 OA
ATOM     20  H   UNL     1      52.571  21.852  15.009  0.00  0.00    +0.398 HD
ENDBRANCH  18  19
ENDBRANCH  14  15
ENDBRANCH  13  14
TORSDOF 6
ENDMDL
MODEL 3
REMARK VINA RESULT:      -6.0      3.515      4.654
REMARK  Name = ZINC95486281
REMARK  8 active torsions:
REMARK  status: ('A' for Active; 'I' for Inactive)
REMARK    1  A    between atoms: C1_1  and  C2_2
REMARK    2  A    between atoms: C3_3  and  O7_23
REMARK    3  A    between atoms: C7_7  and  O1_8
REMARK    4  A    between atoms: C9_11  and  O6_22
REMARK    5  A    between atoms: C10_12  and  O4_14
REMARK    6  A    between atoms: O4_14  and  C11_15
REMARK    7  A    between atoms: C14_18  and  O5_21
REMARK    8  A    between atoms: O7_23  and  C17_24
REMARK                            x       y       z     vdW  Elec       q    Type
REMARK                         _______ _______ _______ _____ _____    ______ ____
ROOT
ATOM      1  C   UNL     1      51.824  18.921  17.049  0.00  0.00    +0.122 C 
ATOM      2  C   UNL     1      50.550  19.185  17.810  0.00  0.00    -0.171 A 
ATOM      3  C   UNL     1      50.379  20.393  18.479  0.00  0.00    +0.212 A 
ATOM      6  C   UNL     1      49.214  20.651  19.184  0.00  0.00    -0.090 A 
ATOM      7  C   UNL     1      48.203  19.703  19.226  0.00  0.00    +0.212 A 
ATOM      8  C   UNL     1      48.373  18.482  18.550  0.00  0.00    -0.279 A 
ATOM      9  C   UNL     1      47.287  17.491  18.608  0.00  0.00    +0.442 A 
ATOM     10  C   UNL     1      46.131  17.834  19.348  0.00  0.00    -0.060 A 
ATOM     13  C   UNL     1      46.067  19.043  19.967  0.00  0.00    +0.215 A 
ATOM     23  O   UNL     1      47.379  16.414  18.040  0.00  0.00    -0.430 OA
ATOM     24  O   UNL     1      47.062  19.938  19.906  0.00  0.00    -0.234 OA
ATOM     25  C   UNL     1      49.551  18.230  17.836  0.00  0.00    +0.241 A 
ENDROOT
BRANCH   3   4
ATOM      4  O   UNL     1      51.364  21.327  18.443  0.00  0.00    -0.296 OA
ATOM      5  C   UNL     1      52.109  21.530  19.645  0.00  0.00    +0.255 C 
ENDBRANCH   3   4
BRANCH  10  11
ATOM     11  O   UNL     1      45.090  16.959  19.441  0.00  0.00    -0.444 OA
ATOM     12  H   UNL     1      45.312  16.055  19.181  0.00  0.00    +0.399 HD
ENDBRANCH  10  11
BRANCH  25  26
ATOM     26  O   UNL     1      49.714  17.054  17.179  0.00  0.00    -0.466 OA
ATOM     27  H   UNL     1      50.602  16.679  17.257  0.00  0.00    +0.404 HD
ENDBRANCH  25  26
BRANCH  13  14
ATOM     14  O   UNL     1      44.955  19.354  20.669  0.00  0.00    -0.220 OA
BRANCH  14  15
ATOM     15  C   UNL     1      44.056  20.201  20.100  0.00  0.00    +0.055 A 
ATOM     16  C   UNL     1      42.947  19.695  19.438  0.00  0.00    +0.041 A 
ATOM     17  C   UNL     1      42.035  20.555  18.860  0.00  0.00    +0.008 A 
ATOM     18  C   UNL     1      42.228  21.926  18.941  0.00  0.00    +0.123 A 
ATOM     21  C   UNL     1      43.337  22.433  19.601  0.00  0.00    +0.010 A 
ATOM     22  C   UNL     1      44.246  21.573  20.185  0.00  0.00    +0.050 A 
BRANCH  18  19
ATOM     19  O   UNL     1      41.330  22.773  18.371  0.00  0.00    -0.496 OA
ATOM     20  H   UNL     1      40.799  23.270  19.008  0.00  0.00    +0.398 HD
ENDBRANCH  18  19
ENDBRANCH  14  15
ENDBRANCH  13  14
TORSDOF 6
ENDMDL
MODEL 4
REMARK VINA RESULT:      -6.0      3.820      7.498
REMARK  Name = ZINC95486281
REMARK  8 active torsions:
REMARK  status: ('A' for Active; 'I' for Inactive)
REMARK    1  A    between atoms: C1_1  and  C2_2
REMARK    2  A    between atoms: C3_3  and  O7_23
REMARK    3  A    between atoms: C7_7  and  O1_8
REMARK    4  A    between atoms: C9_11  and  O6_22
REMARK    5  A    between atoms: C10_12  and  O4_14
REMARK    6  A    between atoms: O4_14  and  C11_15
REMARK    7  A    between atoms: C14_18  and  O5_21
REMARK    8  A    between atoms: O7_23  and  C17_24
REMARK                            x       y       z     vdW  Elec       q    Type
REMARK                         _______ _______ _______ _____ _____    ______ ____
ROOT
ATOM      1  C   UNL     1      41.833  21.341  19.307  0.00  0.00    +0.122 C 
ATOM      2  C   UNL     1      43.323  21.138  19.420  0.00  0.00    -0.171 A 
ATOM      3  C   UNL     1      44.170  22.239  19.481  0.00  0.00    +0.212 A 
ATOM      6  C   UNL     1      45.542  22.069  19.584  0.00  0.00    -0.090 A 
ATOM      7  C   UNL     1      46.082  20.793  19.630  0.00  0.00    +0.212 A 
ATOM      8  C   UNL     1      45.227  19.679  19.570  0.00  0.00    -0.279 A 
ATOM      9  C   UNL     1      45.824  18.334  19.621  0.00  0.00    +0.442 A 
ATOM     10  C   UNL     1      47.231  18.250  19.727  0.00  0.00    -0.060 A 
ATOM     13  C   UNL     1      47.969  19.391  19.778  0.00  0.00    +0.215 A 
ATOM     23  O   UNL     1      45.130  17.330  19.572  0.00  0.00    -0.430 OA
ATOM     24  O   UNL     1      47.415  20.610  19.731  0.00  0.00    -0.234 OA
ATOM     25  C   UNL     1      43.842  19.858  19.470  0.00  0.00    +0.241 A 
ENDROOT
BRANCH   3   4
ATOM      4  O   UNL     1      43.648  23.492  19.436  0.00  0.00    -0.296 OA
ATOM      5  C   UNL     1      44.464  24.514  18.859  0.00  0.00    +0.255 C 
ENDBRANCH   3   4
BRANCH  10  11
ATOM     11  O   UNL     1      47.845  17.034  19.778  0.00  0.00    -0.444 OA
ATOM     12  H   UNL     1      48.495  16.891  19.078  0.00  0.00    +0.399 HD
ENDBRANCH  10  11
BRANCH  25  26
ATOM     26  O   UNL     1      43.016  18.783  19.416  0.00  0.00    -0.466 OA
ATOM     27  H   UNL     1      43.416  17.963  19.738  0.00  0.00    +0.404 HD
ENDBRANCH  25  26
BRANCH  13  14
ATOM     14  O   UNL     1      49.313  19.291  19.880  0.00  0.00    -0.220 OA
BRANCH  14  15
ATOM     15  C   UNL     1      50.061  19.589  18.785  0.00  0.00    +0.055 A 
ATOM     16  C   UNL     1      50.471  20.895  18.559  0.00  0.00    +0.041 A 
ATOM     17  C   UNL     1      51.231  21.197  17.446  0.00  0.00    +0.008 A 
ATOM     18  C   UNL     1      51.583  20.195  16.554  0.00  0.00    +0.123 A 
ATOM     21  C   UNL     1      51.172  18.890  16.779  0.00  0.00    +0.010 A 
ATOM     22  C   UNL     1      50.418  18.586  17.895  0.00  0.00    +0.050 A 
BRANCH  18  19
ATOM     19  O   UNL     1      52.330  20.494  15.458  0.00  0.00    -0.496 OA
ATOM     20  H   UNL     1      52.860  21.297  15.550  0.00  0.00    +0.398 HD
ENDBRANCH  18  19
ENDBRANCH  14  15
ENDBRANCH  13  14
TORSDOF 6
ENDMDL
MODEL 5
REMARK VINA RESULT:      -5.8      2.539      3.721
REMARK  Name = ZINC95486281
REMARK  8 active torsions:
REMARK  status: ('A' for Active; 'I' for Inactive)
REMARK    1  A    between atoms: C1_1  and  C2_2
REMARK    2  A    between atoms: C3_3  and  O7_23
REMARK    3  A    between atoms: C7_7  and  O1_8
REMARK    4  A    between atoms: C9_11  and  O6_22
REMARK    5  A    between atoms: C10_12  and  O4_14
REMARK    6  A    between atoms: O4_14  and  C11_15
REMARK    7  A    between atoms: C14_18  and  O5_21
REMARK    8  A    between atoms: O7_23  and  C17_24
REMARK                            x       y       z     vdW  Elec       q    Type
REMARK                         _______ _______ _______ _____ _____    ______ ____
ROOT
ATOM      1  C   UNL     1      49.861  14.780  17.145  0.00  0.00    +0.122 C 
ATOM      2  C   UNL     1      48.724  15.747  17.357  0.00  0.00    -0.171 A 
ATOM      3  C   UNL     1      47.443  15.418  16.924  0.00  0.00    +0.212 A 
ATOM      6  C   UNL     1      46.388  16.296  17.111  0.00  0.00    -0.090 A 
ATOM      7  C   UNL     1      46.601  17.515  17.735  0.00  0.00    +0.212 A 
ATOM      8  C   UNL     1      47.894  17.849  18.174  0.00  0.00    -0.279 A 
ATOM      9  C   UNL     1      48.096  19.149  18.835  0.00  0.00    +0.442 A 
ATOM     10  C   UNL     1      46.966  19.986  18.986  0.00  0.00    -0.060 A 
ATOM     13  C   UNL     1      45.757  19.568  18.525  0.00  0.00    +0.215 A 
ATOM     23  O   UNL     1      49.197  19.493  19.236  0.00  0.00    -0.430 OA
ATOM     24  O   UNL     1      45.584  18.381  17.926  0.00  0.00    -0.234 OA
ATOM     25  C   UNL     1      48.955  16.955  17.986  0.00  0.00    +0.241 A 
ENDROOT
BRANCH   3   4
ATOM      4  O   UNL     1      47.227  14.225  16.312  0.00  0.00    -0.296 OA
ATOM      5  C   UNL     1      46.397  13.286  16.998  0.00  0.00    +0.255 C 
ENDBRANCH   3   4
BRANCH  10  11
ATOM     11  O   UNL     1      47.087  21.202  19.589  0.00  0.00    -0.444 OA
ATOM     12  H   UNL     1      47.106  21.162  20.555  0.00  0.00    +0.399 HD
ENDBRANCH  10  11
BRANCH  25  26
ATOM     26  O   UNL     1      50.203  17.275  18.414  0.00  0.00    -0.466 OA
ATOM     27  H   UNL     1      50.741  16.512  18.663  0.00  0.00    +0.404 HD
ENDBRANCH  25  26
BRANCH  13  14
ATOM     14  O   UNL     1      44.687  20.380  18.679  0.00  0.00    -0.220 OA
BRANCH  14  15
ATOM     15  C   UNL     1      43.641  19.924  19.417  0.00  0.00    +0.055 A 
ATOM     16  C   UNL     1      43.871  19.278  20.624  0.00  0.00    +0.041 A 
ATOM     17  C   UNL     1      42.808  18.815  21.373  0.00  0.00    +0.008 A 
ATOM     18  C   UNL     1      41.509  18.995  20.920  0.00  0.00    +0.123 A 
ATOM     21  C   UNL     1      41.279  19.640  19.714  0.00  0.00    +0.010 A 
ATOM     22  C   UNL     1      42.341  20.109  18.967  0.00  0.00    +0.050 A 
BRANCH  18  19
ATOM     19  O   UNL     1      40.463  18.539  21.658  0.00  0.00    -0.496 OA
ATOM     20  H   UNL     1      40.370  18.970  22.519  0.00  0.00    +0.398 HD
ENDBRANCH  18  19
ENDBRANCH  14  15
ENDBRANCH  13  14
TORSDOF 6
ENDMDL
MODEL 6
REMARK VINA RESULT:      -5.7      1.651      6.928
REMARK  Name = ZINC95486281
REMARK  8 active torsions:
REMARK  status: ('A' for Active; 'I' for Inactive)
REMARK    1  A    between atoms: C1_1  and  C2_2
REMARK    2  A    between atoms: C3_3  and  O7_23
REMARK    3  A    between atoms: C7_7  and  O1_8
REMARK    4  A    between atoms: C9_11  and  O6_22
REMARK    5  A    between atoms: C10_12  and  O4_14
REMARK    6  A    between atoms: O4_14  and  C11_15
REMARK    7  A    between atoms: C14_18  and  O5_21
REMARK    8  A    between atoms: O7_23  and  C17_24
REMARK                            x       y       z     vdW  Elec       q    Type
REMARK                         _______ _______ _______ _____ _____    ______ ____
ROOT
ATOM      1  C   UNL     1      43.279  23.256  19.505  0.00  0.00    +0.122 C 
ATOM      2  C   UNL     1      43.478  21.769  19.649  0.00  0.00    -0.171 A 
ATOM      3  C   UNL     1      42.537  20.888  19.125  0.00  0.00    +0.212 A 
ATOM      6  C   UNL     1      42.706  19.519  19.250  0.00  0.00    -0.090 A 
ATOM      7  C   UNL     1      43.820  19.013  19.901  0.00  0.00    +0.212 A 
ATOM      8  C   UNL     1      44.772  19.901  20.431  0.00  0.00    -0.279 A 
ATOM      9  C   UNL     1      45.948  19.340  21.117  0.00  0.00    +0.442 A 
ATOM     10  C   UNL     1      46.043  17.931  21.201  0.00  0.00    -0.060 A 
ATOM     13  C   UNL     1      45.065  17.160  20.654  0.00  0.00    +0.215 A 
ATOM     23  O   UNL     1      46.807  20.063  21.597  0.00  0.00    -0.430 OA
ATOM     24  O   UNL     1      44.000  17.682  20.031  0.00  0.00    -0.234 OA
ATOM     25  C   UNL     1      44.598  21.284  20.297  0.00  0.00    +0.241 A 
ENDROOT
BRANCH   3   4
ATOM      4  O   UNL     1      41.443  21.377  18.486  0.00  0.00    -0.296 OA
ATOM      5  C   UNL     1      40.174  21.131  19.095  0.00  0.00    +0.255 C 
ENDBRANCH   3   4
BRANCH  10  11
ATOM     11  O   UNL     1      47.107  17.351  21.824  0.00  0.00    -0.444 OA
ATOM     12  H   UNL     1      47.849  17.951  21.977  0.00  0.00    +0.399 HD
ENDBRANCH  10  11
BRANCH  25  26
ATOM     26  O   UNL     1      45.520  22.141  20.804  0.00  0.00    -0.466 OA
ATOM     27  H   UNL     1      45.141  22.946  21.183  0.00  0.00    +0.404 HD
ENDBRANCH  25  26
BRANCH  13  14
ATOM     14  O   UNL     1      45.173  15.816  20.743  0.00  0.00    -0.220 OA
BRANCH  14  15
ATOM     15  C   UNL     1      45.523  15.129  19.623  0.00  0.00    +0.055 A 
ATOM     16  C   UNL     1      45.152  13.799  19.481  0.00  0.00    +0.041 A 
ATOM     17  C   UNL     1      45.506  13.102  18.343  0.00  0.00    +0.008 A 
ATOM     18  C   UNL     1      46.234  13.729  17.343  0.00  0.00    +0.123 A 
ATOM     21  C   UNL     1      46.606  15.057  17.485  0.00  0.00    +0.010 A 
ATOM     22  C   UNL     1      46.246  15.758  18.620  0.00  0.00    +0.050 A 
BRANCH  18  19
ATOM     19  O   UNL     1      46.584  13.041  16.224  0.00  0.00    -0.496 OA
ATOM     20  H   UNL     1      46.467  13.540  15.403  0.00  0.00    +0.398 HD
ENDBRANCH  18  19
ENDBRANCH  14  15
ENDBRANCH  13  14
TORSDOF 6
ENDMDL
MODEL 7
REMARK VINA RESULT:      -5.7      1.652      3.160
REMARK  Name = ZINC95486281
REMARK  8 active torsions:
REMARK  status: ('A' for Active; 'I' for Inactive)
REMARK    1  A    between atoms: C1_1  and  C2_2
REMARK    2  A    between atoms: C3_3  and  O7_23
REMARK    3  A    between atoms: C7_7  and  O1_8
REMARK    4  A    between atoms: C9_11  and  O6_22
REMARK    5  A    between atoms: C10_12  and  O4_14
REMARK    6  A    between atoms: O4_14  and  C11_15
REMARK    7  A    between atoms: C14_18  and  O5_21
REMARK    8  A    between atoms: O7_23  and  C17_24
REMARK                            x       y       z     vdW  Elec       q    Type
REMARK                         _______ _______ _______ _____ _____    ______ ____
ROOT
ATOM      1  C   UNL     1      48.891  15.191  17.128  0.00  0.00    +0.122 C 
ATOM      2  C   UNL     1      47.828  15.978  17.852  0.00  0.00    -0.171 A 
ATOM      3  C   UNL     1      46.646  15.355  18.238  0.00  0.00    +0.212 A 
ATOM      6  C   UNL     1      45.659  16.064  18.904  0.00  0.00    -0.090 A 
ATOM      7  C   UNL     1      45.845  17.407  19.194  0.00  0.00    +0.212 A 
ATOM      8  C   UNL     1      47.040  18.038  18.806  0.00  0.00    -0.279 A 
ATOM      9  C   UNL     1      47.215  19.464  19.125  0.00  0.00    +0.442 A 
ATOM     10  C   UNL     1      46.160  20.114  19.807  0.00  0.00    -0.060 A 
ATOM     13  C   UNL     1      45.044  19.411  20.138  0.00  0.00    +0.215 A 
ATOM     23  O   UNL     1      48.232  20.064  18.812  0.00  0.00    -0.430 OA
ATOM     24  O   UNL     1      44.895  18.112  19.842  0.00  0.00    -0.234 OA
ATOM     25  C   UNL     1      48.035  17.314  18.137  0.00  0.00    +0.241 A 
ENDROOT
BRANCH   3   4
ATOM      4  O   UNL     1      46.456  14.040  17.957  0.00  0.00    -0.296 OA
ATOM      5  C   UNL     1      45.386  13.380  18.635  0.00  0.00    +0.255 C 
ENDBRANCH   3   4
BRANCH  10  11
ATOM     11  O   UNL     1      46.261  21.433  20.132  0.00  0.00    -0.444 OA
ATOM     12  H   UNL     1      46.125  22.033  19.386  0.00  0.00    +0.399 HD
ENDBRANCH  10  11
BRANCH  25  26
ATOM     26  O   UNL     1      49.190  17.922  17.767  0.00  0.00    -0.466 OA
ATOM     27  H   UNL     1      49.727  18.232  18.509  0.00  0.00    +0.404 HD
ENDBRANCH  25  26
BRANCH  13  14
ATOM     14  O   UNL     1      44.046  20.047  20.790  0.00  0.00    -0.220 OA
BRANCH  14  15
ATOM     15  C   UNL     1      42.935  20.386  20.083  0.00  0.00    +0.055 A 
ATOM     16  C   UNL     1      42.855  21.628  19.469  0.00  0.00    +0.041 A 
ATOM     17  C   UNL     1      41.726  21.971  18.751  0.00  0.00    +0.008 A 
ATOM     18  C   UNL     1      40.672  21.076  18.644  0.00  0.00    +0.123 A 
ATOM     21  C   UNL     1      40.752  19.836  19.259  0.00  0.00    +0.010 A 
ATOM     22  C   UNL     1      41.883  19.489  19.972  0.00  0.00    +0.050 A 
BRANCH  18  19
ATOM     19  O   UNL     1      39.562  21.416  17.939  0.00  0.00    -0.496 OA
ATOM     20  H   UNL     1      39.211  22.291  18.154  0.00  0.00    +0.398 HD
ENDBRANCH  18  19
ENDBRANCH  14  15
ENDBRANCH  13  14
TORSDOF 6
ENDMDL
MODEL 8
REMARK VINA RESULT:      -5.6      3.431      6.737
REMARK  Name = ZINC95486281
REMARK  8 active torsions:
REMARK  status: ('A' for Active; 'I' for Inactive)
REMARK    1  A    between atoms: C1_1  and  C2_2
REMARK    2  A    between atoms: C3_3  and  O7_23
REMARK    3  A    between atoms: C7_7  and  O1_8
REMARK    4  A    between atoms: C9_11  and  O6_22
REMARK    5  A    between atoms: C10_12  and  O4_14
REMARK    6  A    between atoms: O4_14  and  C11_15
REMARK    7  A    between atoms: C14_18  and  O5_21
REMARK    8  A    between atoms: O7_23  and  C17_24
REMARK                            x       y       z     vdW  Elec       q    Type
REMARK                         _______ _______ _______ _____ _____    ______ ____
ROOT
ATOM      1  C   UNL     1      41.702  18.888  21.299  0.00  0.00    +0.122 C 
ATOM      2  C   UNL     1      42.965  18.831  20.477  0.00  0.00    -0.171 A 
ATOM      3  C   UNL     1      43.159  19.736  19.439  0.00  0.00    +0.212 A 
ATOM      6  C   UNL     1      44.315  19.696  18.675  0.00  0.00    -0.090 A 
ATOM      7  C   UNL     1      45.291  18.750  18.943  0.00  0.00    +0.212 A 
ATOM      8  C   UNL     1      45.098  17.835  19.992  0.00  0.00    -0.279 A 
ATOM      9  C   UNL     1      46.149  16.839  20.257  0.00  0.00    +0.442 A 
ATOM     10  C   UNL     1      47.297  16.868  19.430  0.00  0.00    -0.060 A 
ATOM     13  C   UNL     1      47.386  17.795  18.440  0.00  0.00    +0.215 A 
ATOM     23  O   UNL     1      46.035  16.019  21.155  0.00  0.00    -0.430 OA
ATOM     24  O   UNL     1      46.422  18.698  18.209  0.00  0.00    -0.234 OA
ATOM     25  C   UNL     1      43.930  17.883  20.763  0.00  0.00    +0.241 A 
ENDROOT
BRANCH   3   4
ATOM      4  O   UNL     1      42.206  20.666  19.172  0.00  0.00    -0.296 OA
ATOM      5  C   UNL     1      41.329  20.398  18.076  0.00  0.00    +0.255 C 
ENDBRANCH   3   4
BRANCH  10  11
ATOM     11  O   UNL     1      48.305  15.972  19.625  0.00  0.00    -0.444 OA
ATOM     12  H   UNL     1      48.833  16.140  20.417  0.00  0.00    +0.399 HD
ENDBRANCH  10  11
BRANCH  25  26
ATOM     26  O   UNL     1      43.744  17.003  21.779  0.00  0.00    -0.466 OA
ATOM     27  H   UNL     1      42.968  17.190  22.324  0.00  0.00    +0.404 HD
ENDBRANCH  25  26
BRANCH  13  14
ATOM     14  O   UNL     1      48.490  17.809  17.661  0.00  0.00    -0.220 OA
BRANCH  14  15
ATOM     15  C   UNL     1      49.453  18.729  17.933  0.00  0.00    +0.055 A 
ATOM     16  C   UNL     1      49.167  19.810  18.755  0.00  0.00    +0.041 A 
ATOM     17  C   UNL     1      50.145  20.744  19.032  0.00  0.00    +0.008 A 
ATOM     18  C   UNL     1      51.413  20.605  18.486  0.00  0.00    +0.123 A 
ATOM     21  C   UNL     1      51.698  19.526  17.663  0.00  0.00    +0.010 A 
ATOM     22  C   UNL     1      50.722  18.587  17.392  0.00  0.00    +0.050 A 
BRANCH  18  19
ATOM     19  O   UNL     1      52.374  21.526  18.758  0.00  0.00    -0.496 OA
ATOM     20  H   UNL     1      52.304  21.921  19.638  0.00  0.00    +0.398 HD
ENDBRANCH  18  19
ENDBRANCH  14  15
ENDBRANCH  13  14
TORSDOF 6
ENDMDL
MODEL 9
REMARK VINA RESULT:      -5.5      4.455      7.840
REMARK  Name = ZINC95486281
REMARK  8 active torsions:
REMARK  status: ('A' for Active; 'I' for Inactive)
REMARK    1  A    between atoms: C1_1  and  C2_2
REMARK    2  A    between atoms: C3_3  and  O7_23
REMARK    3  A    between atoms: C7_7  and  O1_8
REMARK    4  A    between atoms: C9_11  and  O6_22
REMARK    5  A    between atoms: C10_12  and  O4_14
REMARK    6  A    between atoms: O4_14  and  C11_15
REMARK    7  A    between atoms: C14_18  and  O5_21
REMARK    8  A    between atoms: O7_23  and  C17_24
REMARK                            x       y       z     vdW  Elec       q    Type
REMARK                         _______ _______ _______ _____ _____    ______ ____
ROOT
ATOM      1  C   UNL     1      40.789  21.767  18.317  0.00  0.00    +0.122 C 
ATOM      2  C   UNL     1      42.033  21.606  19.153  0.00  0.00    -0.171 A 
ATOM      3  C   UNL     1      42.335  20.371  19.717  0.00  0.00    +0.212 A 
ATOM      6  C   UNL     1      43.474  20.207  20.489  0.00  0.00    -0.090 A 
ATOM      7  C   UNL     1      44.327  21.278  20.704  0.00  0.00    +0.212 A 
ATOM      8  C   UNL     1      44.024  22.527  20.135  0.00  0.00    -0.279 A 
ATOM      9  C   UNL     1      44.945  23.650  20.377  0.00  0.00    +0.442 A 
ATOM     10  C   UNL     1      46.085  23.397  21.175  0.00  0.00    -0.060 A 
ATOM     13  C   UNL     1      46.286  22.150  21.680  0.00  0.00    +0.215 A 
ATOM     23  O   UNL     1      44.733  24.757  19.908  0.00  0.00    -0.430 OA
ATOM     24  O   UNL     1      45.441  21.135  21.452  0.00  0.00    -0.234 OA
ATOM     25  C   UNL     1      42.874  22.685  19.352  0.00  0.00    +0.241 A 
ENDROOT
BRANCH   3   4
ATOM      4  O   UNL     1      41.504  19.317  19.511  0.00  0.00    -0.296 OA
ATOM      5  C   UNL     1      40.962  18.682  20.670  0.00  0.00    +0.255 C 
ENDBRANCH   3   4
BRANCH  10  11
ATOM     11  O   UNL     1      46.976  24.395  21.436  0.00  0.00    -0.444 OA
ATOM     12  H   UNL     1      46.744  25.244  21.037  0.00  0.00    +0.399 HD
ENDBRANCH  10  11
BRANCH  25  26
ATOM     26  O   UNL     1      42.584  23.889  18.798  0.00  0.00    -0.466 OA
ATOM     27  H   UNL     1      43.087  24.625  19.171  0.00  0.00    +0.404 HD
ENDBRANCH  25  26
BRANCH  13  14
ATOM     14  O   UNL     1      47.381  21.927  22.440  0.00  0.00    -0.220 OA
BRANCH  14  15
ATOM     15  C   UNL     1      48.493  21.439  21.829  0.00  0.00    +0.055 A 
ATOM     16  C   UNL     1      48.418  20.961  20.529  0.00  0.00    +0.041 A 
ATOM     17  C   UNL     1      49.548  20.467  19.909  0.00  0.00    +0.008 A 
ATOM     18  C   UNL     1      50.758  20.446  20.586  0.00  0.00    +0.123 A 
ATOM     21  C   UNL     1      50.833  20.922  21.886  0.00  0.00    +0.010 A 
ATOM     22  C   UNL     1      49.705  21.424  22.505  0.00  0.00    +0.050 A 
BRANCH  18  19
ATOM     19  O   UNL     1      51.870  19.958  19.975  0.00  0.00    -0.496 OA
ATOM     20  H   UNL     1      51.787  19.875  19.016  0.00  0.00    +0.398 HD
ENDBRANCH  18  19
ENDBRANCH  14  15
ENDBRANCH  13  14
TORSDOF 6
ENDMDL
