MODEL 1
REMARK VINA RESULT:      -5.9      0.000      0.000
REMARK  Name = ZINC06404152
REMARK  12 active torsions:
REMARK  status: ('A' for Active; 'I' for Inactive)
REMARK    1  A    between atoms: C1_1  and  O1_2
REMARK    2  A    between atoms: O1_2  and  C2_3
REMARK    3  A    between atoms: C5_6  and  C8_9
REMARK    4  A    between atoms: C9_10  and  C10_11
REMARK    5  A    between atoms: C10_11  and  C11_13
REMARK    6  A    between atoms: C12_14  and  O6_25
REMARK    7  A    between atoms: C14_16  and  O5_23
REMARK    8  A    between atoms: C15_17  and  O4_21
REMARK    9  A    between atoms: C16_18  and  O3_19
REMARK   10  A    between atoms: O3_19  and  C17_20
REMARK   11  A    between atoms: O4_21  and  C18_22
REMARK   12  A    between atoms: O5_23  and  C19_24
REMARK                            x       y       z     vdW  Elec       q    Type
REMARK                         _______ _______ _______ _____ _____    ______ ____
ROOT
ATOM     10  C   UNL     1      44.220  21.612  19.920  0.00  0.00    -0.221 A 
ATOM     11  C   UNL     1      43.342  22.555  19.361  0.00  0.00    +0.191 A 
ATOM     14  C   UNL     1      42.036  22.199  19.083  0.00  0.00    -0.083 A 
ATOM     15  C   UNL     1      41.588  20.913  19.355  0.00  0.00    +0.157 A 
ATOM     18  C   UNL     1      42.451  19.971  19.909  0.00  0.00    +0.035 A 
ATOM     21  C   UNL     1      43.762  20.314  20.193  0.00  0.00    +0.167 A 
ENDROOT
BRANCH  10   9
ATOM      9  C   UNL     1      45.612  21.984  20.218  0.00  0.00    +0.456 C 
ATOM     24  O   UNL     1      45.856  22.747  21.137  0.00  0.00    -0.454 OA
BRANCH   9   8
ATOM      7  C   UNL     1      47.725  20.787  20.006  0.00  0.00    +0.134 C 
ATOM      8  C   UNL     1      46.703  21.441  19.409  0.00  0.00    -0.102 C 
BRANCH   7   6
ATOM      3  C   UNL     1      50.889  19.210  17.663  0.00  0.00    +0.145 A 
ATOM      4  C   UNL     1      49.871  18.373  18.108  0.00  0.00    -0.020 A 
ATOM      5  C   UNL     1      48.842  18.880  18.868  0.00  0.00    +0.087 A 
ATOM      6  C   UNL     1      48.821  20.241  19.194  0.00  0.00    -0.123 A 
ATOM     25  C   UNL     1      49.844  21.081  18.738  0.00  0.00    +0.079 A 
ATOM     26  C   UNL     1      50.872  20.563  17.982  0.00  0.00    -0.080 A 
BRANCH   3   2
ATOM      1  C   UNL     1      52.122  19.302  15.634  0.00  0.00    +0.244 C 
ATOM      2  O   UNL     1      51.901  18.706  16.913  0.00  0.00    -0.314 OA
ENDBRANCH   3   2
ENDBRANCH   7   6
ENDBRANCH   9   8
ENDBRANCH  10   9
BRANCH  11  12
ATOM     12  O   UNL     1      43.776  23.813  19.092  0.00  0.00    -0.488 OA
ATOM     13  H   UNL     1      43.450  24.171  18.255  0.00  0.00    +0.402 HD
ENDBRANCH  11  12
BRANCH  15  16
ATOM     16  O   UNL     1      40.303  20.573  19.078  0.00  0.00    -0.297 OA
ATOM     17  C   UNL     1      39.511  21.536  18.382  0.00  0.00    +0.249 C 
ENDBRANCH  15  16
BRANCH  18  19
ATOM     19  O   UNL     1      42.005  18.711  20.168  0.00  0.00    -0.315 OA
ATOM     20  C   UNL     1      41.268  18.519  21.377  0.00  0.00    +0.228 C 
ENDBRANCH  18  19
BRANCH  21  22
ATOM     22  O   UNL     1      44.604  19.395  20.733  0.00  0.00    -0.327 OA
ATOM     23  C   UNL     1      44.726  19.383  22.156  0.00  0.00    +0.247 C 
ENDBRANCH  21  22
TORSDOF 8
ENDMDL
MODEL 2
REMARK VINA RESULT:      -5.4      1.086      2.878
REMARK  Name = ZINC06404152
REMARK  12 active torsions:
REMARK  status: ('A' for Active; 'I' for Inactive)
REMARK    1  A    between atoms: C1_1  and  O1_2
REMARK    2  A    between atoms: O1_2  and  C2_3
REMARK    3  A    between atoms: C5_6  and  C8_9
REMARK    4  A    between atoms: C9_10  and  C10_11
REMARK    5  A    between atoms: C10_11  and  C11_13
REMARK    6  A    between atoms: C12_14  and  O6_25
REMARK    7  A    between atoms: C14_16  and  O5_23
REMARK    8  A    between atoms: C15_17  and  O4_21
REMARK    9  A    between atoms: C16_18  and  O3_19
REMARK   10  A    between atoms: O3_19  and  C17_20
REMARK   11  A    between atoms: O4_21  and  C18_22
REMARK   12  A    between atoms: O5_23  and  C19_24
REMARK                            x       y       z     vdW  Elec       q    Type
REMARK                         _______ _______ _______ _____ _____    ______ ____
ROOT
ATOM     10  C   UNL     1      44.434  20.417  20.254  0.00  0.00    -0.221 A 
ATOM     11  C   UNL     1      43.376  19.625  19.780  0.00  0.00    +0.191 A 
ATOM     14  C   UNL     1      42.267  20.224  19.212  0.00  0.00    -0.083 A 
ATOM     15  C   UNL     1      42.197  21.607  19.107  0.00  0.00    +0.157 A 
ATOM     18  C   UNL     1      43.240  22.401  19.574  0.00  0.00    +0.035 A 
ATOM     21  C   UNL     1      44.357  21.814  20.145  0.00  0.00    +0.167 A 
ENDROOT
BRANCH  10   9
ATOM      9  C   UNL     1      45.616  19.786  20.860  0.00  0.00    +0.456 C 
ATOM     24  O   UNL     1      45.616  19.502  22.046  0.00  0.00    -0.454 OA
BRANCH   9   8
ATOM      7  C   UNL     1      47.839  20.354  20.038  0.00  0.00    +0.134 C 
ATOM      8  C   UNL     1      46.793  19.499  20.040  0.00  0.00    -0.102 C 
BRANCH   7   6
ATOM      3  C   UNL     1      51.252  19.523  17.661  0.00  0.00    +0.145 A 
ATOM      4  C   UNL     1      51.051  20.805  18.162  0.00  0.00    -0.020 A 
ATOM      5  C   UNL     1      49.945  21.080  18.934  0.00  0.00    +0.087 A 
ATOM      6  C   UNL     1      49.022  20.067  19.214  0.00  0.00    -0.123 A 
ATOM     25  C   UNL     1      49.231  18.777  18.713  0.00  0.00    +0.079 A 
ATOM     26  C   UNL     1      50.338  18.513  17.938  0.00  0.00    -0.080 A 
BRANCH   3   2
ATOM      1  C   UNL     1      52.256  19.567  15.509  0.00  0.00    +0.244 C 
ATOM      2  O   UNL     1      52.344  19.258  16.900  0.00  0.00    -0.314 OA
ENDBRANCH   3   2
ENDBRANCH   7   6
ENDBRANCH   9   8
ENDBRANCH  10   9
BRANCH  11  12
ATOM     12  O   UNL     1      43.440  18.272  19.881  0.00  0.00    -0.488 OA
ATOM     13  H   UNL     1      44.204  17.951  20.381  0.00  0.00    +0.402 HD
ENDBRANCH  11  12
BRANCH  15  16
ATOM     16  O   UNL     1      41.103  22.186  18.548  0.00  0.00    -0.297 OA
ATOM     17  C   UNL     1      39.915  21.396  18.472  0.00  0.00    +0.249 C 
ENDBRANCH  15  16
BRANCH  18  19
ATOM     19  O   UNL     1      43.160  23.757  19.472  0.00  0.00    -0.315 OA
ATOM     20  C   UNL     1      44.029  24.389  18.529  0.00  0.00    +0.228 C 
ENDBRANCH  18  19
BRANCH  21  22
ATOM     22  O   UNL     1      45.374  22.590  20.601  0.00  0.00    -0.327 OA
ATOM     23  C   UNL     1      45.299  23.028  21.959  0.00  0.00    +0.247 C 
ENDBRANCH  21  22
TORSDOF 8
ENDMDL
MODEL 3
REMARK VINA RESULT:      -5.2      5.273      8.907
REMARK  Name = ZINC06404152
REMARK  12 active torsions:
REMARK  status: ('A' for Active; 'I' for Inactive)
REMARK    1  A    between atoms: C1_1  and  O1_2
REMARK    2  A    between atoms: O1_2  and  C2_3
REMARK    3  A    between atoms: C5_6  and  C8_9
REMARK    4  A    between atoms: C9_10  and  C10_11
REMARK    5  A    between atoms: C10_11  and  C11_13
REMARK    6  A    between atoms: C12_14  and  O6_25
REMARK    7  A    between atoms: C14_16  and  O5_23
REMARK    8  A    between atoms: C15_17  and  O4_21
REMARK    9  A    between atoms: C16_18  and  O3_19
REMARK   10  A    between atoms: O3_19  and  C17_20
REMARK   11  A    between atoms: O4_21  and  C18_22
REMARK   12  A    between atoms: O5_23  and  C19_24
REMARK                            x       y       z     vdW  Elec       q    Type
REMARK                         _______ _______ _______ _____ _____    ______ ____
ROOT
ATOM     10  C   UNL     1      46.344  14.025  18.253  0.00  0.00    -0.221 A 
ATOM     11  C   UNL     1      45.399  12.990  18.172  0.00  0.00    +0.191 A 
ATOM     14  C   UNL     1      45.481  12.060  17.152  0.00  0.00    -0.083 A 
ATOM     15  C   UNL     1      46.496  12.147  16.208  0.00  0.00    +0.157 A 
ATOM     18  C   UNL     1      47.438  13.169  16.280  0.00  0.00    +0.035 A 
ATOM     21  C   UNL     1      47.367  14.107  17.296  0.00  0.00    +0.167 A 
ENDROOT
BRANCH  10   9
ATOM      9  C   UNL     1      46.261  15.017  19.336  0.00  0.00    +0.456 C 
ATOM     24  O   UNL     1      46.735  14.766  20.431  0.00  0.00    -0.454 OA
BRANCH   9   8
ATOM      7  C   UNL     1      44.954  16.925  20.106  0.00  0.00    +0.134 C 
ATOM      8  C   UNL     1      45.610  16.305  19.100  0.00  0.00    -0.102 C 
BRANCH   7   6
ATOM      3  C   UNL     1      43.064  20.660  19.421  0.00  0.00    +0.145 A 
ATOM      4  C   UNL     1      44.312  20.402  18.864  0.00  0.00    -0.020 A 
ATOM      5  C   UNL     1      44.930  19.191  19.083  0.00  0.00    +0.087 A 
ATOM      6  C   UNL     1      44.299  18.219  19.868  0.00  0.00    -0.123 A 
ATOM     25  C   UNL     1      43.041  18.481  20.422  0.00  0.00    +0.079 A 
ATOM     26  C   UNL     1      42.433  19.697  20.201  0.00  0.00    -0.080 A 
BRANCH   3   2
ATOM      1  C   UNL     1      41.127  21.824  18.689  0.00  0.00    +0.244 C 
ATOM      2  O   UNL     1      42.460  21.855  19.203  0.00  0.00    -0.314 OA
ENDBRANCH   3   2
ENDBRANCH   7   6
ENDBRANCH   9   8
ENDBRANCH  10   9
BRANCH  11  12
ATOM     12  O   UNL     1      44.405  12.902  19.092  0.00  0.00    -0.488 OA
ATOM     13  H   UNL     1      44.701  12.605  19.964  0.00  0.00    +0.402 HD
ENDBRANCH  11  12
BRANCH  15  16
ATOM     16  O   UNL     1      46.569  11.230  15.209  0.00  0.00    -0.297 OA
ATOM     17  C   UNL     1      45.408  10.431  14.974  0.00  0.00    +0.249 C 
ENDBRANCH  15  16
BRANCH  18  19
ATOM     19  O   UNL     1      48.426  13.250  15.346  0.00  0.00    -0.315 OA
ATOM     20  C   UNL     1      49.576  12.425  15.547  0.00  0.00    +0.228 C 
ENDBRANCH  18  19
BRANCH  21  22
ATOM     22  O   UNL     1      48.286  15.105  17.366  0.00  0.00    -0.327 OA
ATOM     23  C   UNL     1      49.443  14.867  18.168  0.00  0.00    +0.247 C 
ENDBRANCH  21  22
TORSDOF 8
ENDMDL
MODEL 4
REMARK VINA RESULT:      -5.0      3.817      5.172
REMARK  Name = ZINC06404152
REMARK  12 active torsions:
REMARK  status: ('A' for Active; 'I' for Inactive)
REMARK    1  A    between atoms: C1_1  and  O1_2
REMARK    2  A    between atoms: O1_2  and  C2_3
REMARK    3  A    between atoms: C5_6  and  C8_9
REMARK    4  A    between atoms: C9_10  and  C10_11
REMARK    5  A    between atoms: C10_11  and  C11_13
REMARK    6  A    between atoms: C12_14  and  O6_25
REMARK    7  A    between atoms: C14_16  and  O5_23
REMARK    8  A    between atoms: C15_17  and  O4_21
REMARK    9  A    between atoms: C16_18  and  O3_19
REMARK   10  A    between atoms: O3_19  and  C17_20
REMARK   11  A    between atoms: O4_21  and  C18_22
REMARK   12  A    between atoms: O5_23  and  C19_24
REMARK                            x       y       z     vdW  Elec       q    Type
REMARK                         _______ _______ _______ _____ _____    ______ ____
ROOT
ATOM     10  C   UNL     1      44.300  19.629  20.244  0.00  0.00    -0.221 A 
ATOM     11  C   UNL     1      45.287  20.623  20.148  0.00  0.00    +0.191 A 
ATOM     14  C   UNL     1      44.935  21.910  19.786  0.00  0.00    -0.083 A 
ATOM     15  C   UNL     1      43.610  22.223  19.515  0.00  0.00    +0.157 A 
ATOM     18  C   UNL     1      42.624  21.244  19.606  0.00  0.00    +0.035 A 
ATOM     21  C   UNL     1      42.961  19.951  19.969  0.00  0.00    +0.167 A 
ENDROOT
BRANCH  10   9
ATOM      9  C   UNL     1      44.667  18.257  20.630  0.00  0.00    +0.456 C 
ATOM     24  O   UNL     1      44.689  17.940  21.806  0.00  0.00    -0.454 OA
BRANCH   9   8
ATOM      7  C   UNL     1      45.418  16.038  19.958  0.00  0.00    +0.134 C 
ATOM      8  C   UNL     1      45.007  17.275  19.601  0.00  0.00    -0.102 C 
BRANCH   7   6
ATOM      3  C   UNL     1      46.403  13.188  16.976  0.00  0.00    +0.145 A 
ATOM      4  C   UNL     1      46.815  14.508  16.836  0.00  0.00    -0.020 A 
ATOM      5  C   UNL     1      46.498  15.438  17.801  0.00  0.00    +0.087 A 
ATOM      6  C   UNL     1      45.759  15.050  18.924  0.00  0.00    -0.123 A 
ATOM     25  C   UNL     1      45.352  13.719  19.064  0.00  0.00    +0.079 A 
ATOM     26  C   UNL     1      45.670  12.798  18.091  0.00  0.00    -0.080 A 
BRANCH   3   2
ATOM      1  C   UNL     1      47.794  12.604  15.140  0.00  0.00    +0.244 C 
ATOM      2  O   UNL     1      46.718  12.276  16.022  0.00  0.00    -0.314 OA
ENDBRANCH   3   2
ENDBRANCH   7   6
ENDBRANCH   9   8
ENDBRANCH  10   9
BRANCH  11  12
ATOM     12  O   UNL     1      46.584  20.322  20.412  0.00  0.00    -0.488 OA
ATOM     13  H   UNL     1      47.128  21.089  20.638  0.00  0.00    +0.402 HD
ENDBRANCH  11  12
BRANCH  15  16
ATOM     16  O   UNL     1      43.274  23.489  19.158  0.00  0.00    -0.297 OA
ATOM     17  C   UNL     1      44.346  24.386  18.857  0.00  0.00    +0.249 C 
ENDBRANCH  15  16
BRANCH  18  19
ATOM     19  O   UNL     1      41.327  21.559  19.334  0.00  0.00    -0.315 OA
ATOM     20  C   UNL     1      40.822  21.176  18.053  0.00  0.00    +0.228 C 
ENDBRANCH  18  19
BRANCH  21  22
ATOM     22  O   UNL     1      42.000  18.996  20.057  0.00  0.00    -0.327 OA
ATOM     23  C   UNL     1      41.241  18.949  21.267  0.00  0.00    +0.247 C 
ENDBRANCH  21  22
TORSDOF 8
ENDMDL
MODEL 5
REMARK VINA RESULT:      -4.9      4.985      8.506
REMARK  Name = ZINC06404152
REMARK  12 active torsions:
REMARK  status: ('A' for Active; 'I' for Inactive)
REMARK    1  A    between atoms: C1_1  and  O1_2
REMARK    2  A    between atoms: O1_2  and  C2_3
REMARK    3  A    between atoms: C5_6  and  C8_9
REMARK    4  A    between atoms: C9_10  and  C10_11
REMARK    5  A    between atoms: C10_11  and  C11_13
REMARK    6  A    between atoms: C12_14  and  O6_25
REMARK    7  A    between atoms: C14_16  and  O5_23
REMARK    8  A    between atoms: C15_17  and  O4_21
REMARK    9  A    between atoms: C16_18  and  O3_19
REMARK   10  A    between atoms: O3_19  and  C17_20
REMARK   11  A    between atoms: O4_21  and  C18_22
REMARK   12  A    between atoms: O5_23  and  C19_24
REMARK                            x       y       z     vdW  Elec       q    Type
REMARK                         _______ _______ _______ _____ _____    ______ ____
ROOT
ATOM     10  C   UNL     1      46.074  13.791  19.400  0.00  0.00    -0.221 A 
ATOM     11  C   UNL     1      45.308  13.035  18.498  0.00  0.00    +0.191 A 
ATOM     14  C   UNL     1      45.896  12.516  17.360  0.00  0.00    -0.083 A 
ATOM     15  C   UNL     1      47.243  12.739  17.106  0.00  0.00    +0.157 A 
ATOM     18  C   UNL     1      48.012  13.486  17.993  0.00  0.00    +0.035 A 
ATOM     21  C   UNL     1      47.436  14.012  19.137  0.00  0.00    +0.167 A 
ENDROOT
BRANCH  10   9
ATOM      9  C   UNL     1      45.454  14.346  20.613  0.00  0.00    +0.456 C 
ATOM     24  O   UNL     1      45.297  13.641  21.595  0.00  0.00    -0.454 OA
BRANCH   9   8
ATOM      7  C   UNL     1      45.186  16.521  19.546  0.00  0.00    +0.134 C 
ATOM      8  C   UNL     1      45.025  15.744  20.640  0.00  0.00    -0.102 C 
BRANCH   7   6
ATOM      3  C   UNL     1      43.940  20.575  19.624  0.00  0.00    +0.145 A 
ATOM      4  C   UNL     1      44.972  20.182  18.779  0.00  0.00    -0.020 A 
ATOM      5  C   UNL     1      45.381  18.868  18.750  0.00  0.00    +0.087 A 
ATOM      6  C   UNL     1      44.754  17.926  19.573  0.00  0.00    -0.123 A 
ATOM     25  C   UNL     1      43.712  18.324  20.418  0.00  0.00    +0.079 A 
ATOM     26  C   UNL     1      43.314  19.642  20.443  0.00  0.00    -0.080 A 
BRANCH   3   2
ATOM      1  C   UNL     1      44.568  22.865  19.682  0.00  0.00    +0.244 C 
ATOM      2  O   UNL     1      43.542  21.871  19.649  0.00  0.00    -0.314 OA
ENDBRANCH   3   2
ENDBRANCH   7   6
ENDBRANCH   9   8
ENDBRANCH  10   9
BRANCH  11  12
ATOM     12  O   UNL     1      43.990  12.816  18.743  0.00  0.00    -0.488 OA
ATOM     13  H   UNL     1      43.604  12.108  18.209  0.00  0.00    +0.402 HD
ENDBRANCH  11  12
BRANCH  15  16
ATOM     16  O   UNL     1      47.812  12.225  15.985  0.00  0.00    -0.297 OA
ATOM     17  C   UNL     1      47.018  11.330  15.204  0.00  0.00    +0.249 C 
ENDBRANCH  15  16
BRANCH  18  19
ATOM     19  O   UNL     1      49.330  13.704  17.733  0.00  0.00    -0.315 OA
ATOM     20  C   UNL     1      49.660  14.883  16.995  0.00  0.00    +0.228 C 
ENDBRANCH  18  19
BRANCH  21  22
ATOM     22  O   UNL     1      48.186  14.742  20.003  0.00  0.00    -0.327 OA
ATOM     23  C   UNL     1      48.890  14.023  21.017  0.00  0.00    +0.247 C 
ENDBRANCH  21  22
TORSDOF 8
ENDMDL
MODEL 6
REMARK VINA RESULT:      -4.9      3.938      5.236
REMARK  Name = ZINC06404152
REMARK  12 active torsions:
REMARK  status: ('A' for Active; 'I' for Inactive)
REMARK    1  A    between atoms: C1_1  and  O1_2
REMARK    2  A    between atoms: O1_2  and  C2_3
REMARK    3  A    between atoms: C5_6  and  C8_9
REMARK    4  A    between atoms: C9_10  and  C10_11
REMARK    5  A    between atoms: C10_11  and  C11_13
REMARK    6  A    between atoms: C12_14  and  O6_25
REMARK    7  A    between atoms: C14_16  and  O5_23
REMARK    8  A    between atoms: C15_17  and  O4_21
REMARK    9  A    between atoms: C16_18  and  O3_19
REMARK   10  A    between atoms: O3_19  and  C17_20
REMARK   11  A    between atoms: O4_21  and  C18_22
REMARK   12  A    between atoms: O5_23  and  C19_24
REMARK                            x       y       z     vdW  Elec       q    Type
REMARK                         _______ _______ _______ _____ _____    ______ ____
ROOT
ATOM     10  C   UNL     1      43.605  18.800  20.744  0.00  0.00    -0.221 A 
ATOM     11  C   UNL     1      42.206  18.915  20.800  0.00  0.00    +0.191 A 
ATOM     14  C   UNL     1      41.582  20.014  20.241  0.00  0.00    -0.083 A 
ATOM     15  C   UNL     1      42.333  21.006  19.624  0.00  0.00    +0.157 A 
ATOM     18  C   UNL     1      43.720  20.901  19.562  0.00  0.00    +0.035 A 
ATOM     21  C   UNL     1      44.359  19.805  20.118  0.00  0.00    +0.167 A 
ENDROOT
BRANCH  10   9
ATOM      9  C   UNL     1      44.275  17.632  21.337  0.00  0.00    +0.456 C 
ATOM     24  O   UNL     1      44.622  17.657  22.505  0.00  0.00    -0.454 OA
BRANCH   9   8
ATOM      7  C   UNL     1      45.611  16.391  19.720  0.00  0.00    +0.134 C 
ATOM      8  C   UNL     1      44.526  16.443  20.524  0.00  0.00    -0.102 C 
BRANCH   7   6
ATOM      3  C   UNL     1      46.341  12.942  17.362  0.00  0.00    +0.145 A 
ATOM      4  C   UNL     1      45.667  12.824  18.573  0.00  0.00    -0.020 A 
ATOM      5  C   UNL     1      45.428  13.941  19.342  0.00  0.00    +0.087 A 
ATOM      6  C   UNL     1      45.864  15.196  18.903  0.00  0.00    -0.123 A 
ATOM     25  C   UNL     1      46.536  15.310  17.680  0.00  0.00    +0.079 A 
ATOM     26  C   UNL     1      46.775  14.187  16.921  0.00  0.00    -0.080 A 
BRANCH   3   2
ATOM      1  C   UNL     1      47.548  11.956  15.569  0.00  0.00    +0.244 C 
ATOM      2  O   UNL     1      46.575  11.838  16.608  0.00  0.00    -0.314 OA
ENDBRANCH   3   2
ENDBRANCH   7   6
ENDBRANCH   9   8
ENDBRANCH  10   9
BRANCH  11  12
ATOM     12  O   UNL     1      41.468  17.948  21.403  0.00  0.00    -0.488 OA
ATOM     13  H   UNL     1      40.892  17.459  20.800  0.00  0.00    +0.402 HD
ENDBRANCH  11  12
BRANCH  15  16
ATOM     16  O   UNL     1      41.711  22.082  19.077  0.00  0.00    -0.297 OA
ATOM     17  C   UNL     1      40.521  21.834  18.326  0.00  0.00    +0.249 C 
ENDBRANCH  15  16
BRANCH  18  19
ATOM     19  O   UNL     1      44.449  21.881  18.959  0.00  0.00    -0.315 OA
ATOM     20  C   UNL     1      44.681  23.073  19.712  0.00  0.00    +0.228 C 
ENDBRANCH  18  19
BRANCH  21  22
ATOM     22  O   UNL     1      45.712  19.704  20.059  0.00  0.00    -0.327 OA
ATOM     23  C   UNL     1      46.454  20.283  21.133  0.00  0.00    +0.247 C 
ENDBRANCH  21  22
TORSDOF 8
ENDMDL
MODEL 7
REMARK VINA RESULT:      -4.7      3.111      4.724
REMARK  Name = ZINC06404152
REMARK  12 active torsions:
REMARK  status: ('A' for Active; 'I' for Inactive)
REMARK    1  A    between atoms: C1_1  and  O1_2
REMARK    2  A    between atoms: O1_2  and  C2_3
REMARK    3  A    between atoms: C5_6  and  C8_9
REMARK    4  A    between atoms: C9_10  and  C10_11
REMARK    5  A    between atoms: C10_11  and  C11_13
REMARK    6  A    between atoms: C12_14  and  O6_25
REMARK    7  A    between atoms: C14_16  and  O5_23
REMARK    8  A    between atoms: C15_17  and  O4_21
REMARK    9  A    between atoms: C16_18  and  O3_19
REMARK   10  A    between atoms: O3_19  and  C17_20
REMARK   11  A    between atoms: O4_21  and  C18_22
REMARK   12  A    between atoms: O5_23  and  C19_24
REMARK                            x       y       z     vdW  Elec       q    Type
REMARK                         _______ _______ _______ _____ _____    ______ ____
ROOT
ATOM     10  C   UNL     1      43.693  20.093  20.587  0.00  0.00    -0.221 A 
ATOM     11  C   UNL     1      43.157  20.838  19.525  0.00  0.00    +0.191 A 
ATOM     14  C   UNL     1      43.521  22.161  19.358  0.00  0.00    -0.083 A 
ATOM     15  C   UNL     1      44.415  22.756  20.238  0.00  0.00    +0.157 A 
ATOM     18  C   UNL     1      44.953  22.026  21.294  0.00  0.00    +0.035 A 
ATOM     21  C   UNL     1      44.597  20.699  21.473  0.00  0.00    +0.167 A 
ENDROOT
BRANCH  10   9
ATOM      9  C   UNL     1      43.310  18.684  20.770  0.00  0.00    +0.456 C 
ATOM     24  O   UNL     1      42.324  18.401  21.430  0.00  0.00    -0.454 OA
BRANCH   9   8
ATOM      7  C   UNL     1      44.971  17.917  19.161  0.00  0.00    +0.134 C 
ATOM      8  C   UNL     1      44.112  17.623  20.161  0.00  0.00    -0.102 C 
BRANCH   7   6
ATOM      3  C   UNL     1      47.298  14.842  17.395  0.00  0.00    +0.145 A 
ATOM      4  C   UNL     1      46.523  14.567  18.516  0.00  0.00    -0.020 A 
ATOM      5  C   UNL     1      45.765  15.561  19.093  0.00  0.00    +0.087 A 
ATOM      6  C   UNL     1      45.777  16.851  18.549  0.00  0.00    -0.123 A 
ATOM     25  C   UNL     1      46.555  17.121  17.417  0.00  0.00    +0.079 A 
ATOM     26  C   UNL     1      47.313  16.121  16.850  0.00  0.00    -0.080 A 
BRANCH   3   2
ATOM      1  C   UNL     1      48.411  12.761  17.667  0.00  0.00    +0.244 C 
ATOM      2  O   UNL     1      48.043  13.858  16.830  0.00  0.00    -0.314 OA
ENDBRANCH   3   2
ENDBRANCH   7   6
ENDBRANCH   9   8
ENDBRANCH  10   9
BRANCH  11  12
ATOM     12  O   UNL     1      42.281  20.260  18.663  0.00  0.00    -0.488 OA
ATOM     13  H   UNL     1      42.696  19.674  18.014  0.00  0.00    +0.402 HD
ENDBRANCH  11  12
BRANCH  15  16
ATOM     16  O   UNL     1      44.767  24.056  20.067  0.00  0.00    -0.297 OA
ATOM     17  C   UNL     1      44.490  24.642  18.793  0.00  0.00    +0.249 C 
ENDBRANCH  15  16
BRANCH  18  19
ATOM     19  O   UNL     1      45.825  22.619  22.155  0.00  0.00    -0.315 OA
ATOM     20  C   UNL     1      47.195  22.682  21.750  0.00  0.00    +0.228 C 
ENDBRANCH  18  19
BRANCH  21  22
ATOM     22  O   UNL     1      45.121  19.988  22.505  0.00  0.00    -0.327 OA
ATOM     23  C   UNL     1      46.385  19.360  22.284  0.00  0.00    +0.247 C 
ENDBRANCH  21  22
TORSDOF 8
ENDMDL
MODEL 8
REMARK VINA RESULT:      -4.6      4.429      9.261
REMARK  Name = ZINC06404152
REMARK  12 active torsions:
REMARK  status: ('A' for Active; 'I' for Inactive)
REMARK    1  A    between atoms: C1_1  and  O1_2
REMARK    2  A    between atoms: O1_2  and  C2_3
REMARK    3  A    between atoms: C5_6  and  C8_9
REMARK    4  A    between atoms: C9_10  and  C10_11
REMARK    5  A    between atoms: C10_11  and  C11_13
REMARK    6  A    between atoms: C12_14  and  O6_25
REMARK    7  A    between atoms: C14_16  and  O5_23
REMARK    8  A    between atoms: C15_17  and  O4_21
REMARK    9  A    between atoms: C16_18  and  O3_19
REMARK   10  A    between atoms: O3_19  and  C17_20
REMARK   11  A    between atoms: O4_21  and  C18_22
REMARK   12  A    between atoms: O5_23  and  C19_24
REMARK                            x       y       z     vdW  Elec       q    Type
REMARK                         _______ _______ _______ _____ _____    ______ ____
ROOT
ATOM     10  C   UNL     1      47.832  14.193  17.526  0.00  0.00    -0.221 A 
ATOM     11  C   UNL     1      47.629  13.408  16.380  0.00  0.00    +0.191 A 
ATOM     14  C   UNL     1      48.686  13.143  15.530  0.00  0.00    -0.083 A 
ATOM     15  C   UNL     1      49.949  13.651  15.805  0.00  0.00    +0.157 A 
ATOM     18  C   UNL     1      50.161  14.430  16.939  0.00  0.00    +0.035 A 
ATOM     21  C   UNL     1      49.111  14.704  17.800  0.00  0.00    +0.167 A 
ENDROOT
BRANCH  10   9
ATOM      9  C   UNL     1      46.711  14.479  18.435  0.00  0.00    +0.456 C 
ATOM     24  O   UNL     1      46.322  13.623  19.210  0.00  0.00    -0.454 OA
BRANCH   9   8
ATOM      7  C   UNL     1      45.570  16.324  19.546  0.00  0.00    +0.134 C 
ATOM      8  C   UNL     1      46.063  15.790  18.407  0.00  0.00    -0.102 C 
BRANCH   7   6
ATOM      3  C   UNL     1      43.692  20.126  19.465  0.00  0.00    +0.145 A 
ATOM      4  C   UNL     1      43.349  19.204  20.448  0.00  0.00    -0.020 A 
ATOM      5  C   UNL     1      43.955  17.968  20.478  0.00  0.00    +0.087 A 
ATOM      6  C   UNL     1      44.919  17.641  19.518  0.00  0.00    -0.123 A 
ATOM     25  C   UNL     1      45.266  18.575  18.535  0.00  0.00    +0.079 A 
ATOM     26  C   UNL     1      44.650  19.806  18.509  0.00  0.00    -0.080 A 
BRANCH   3   2
ATOM      1  C   UNL     1      41.755  21.395  18.936  0.00  0.00    +0.244 C 
ATOM      2  O   UNL     1      43.091  21.342  19.439  0.00  0.00    -0.314 OA
ENDBRANCH   3   2
ENDBRANCH   7   6
ENDBRANCH   9   8
ENDBRANCH  10   9
BRANCH  11  12
ATOM     12  O   UNL     1      46.396  12.911  16.106  0.00  0.00    -0.488 OA
ATOM     13  H   UNL     1      45.752  13.043  16.816  0.00  0.00    +0.402 HD
ENDBRANCH  11  12
BRANCH  15  16
ATOM     16  O   UNL     1      50.982  13.386  14.964  0.00  0.00    -0.297 OA
ATOM     17  C   UNL     1      50.678  12.664  13.769  0.00  0.00    +0.249 C 
ENDBRANCH  15  16
BRANCH  18  19
ATOM     19  O   UNL     1      51.402  14.928  17.199  0.00  0.00    -0.315 OA
ATOM     20  C   UNL     1      51.679  16.252  16.738  0.00  0.00    +0.228 C 
ENDBRANCH  18  19
BRANCH  21  22
ATOM     22  O   UNL     1      49.318  15.464  18.905  0.00  0.00    -0.327 OA
ATOM     23  C   UNL     1      49.763  14.790  20.084  0.00  0.00    +0.247 C 
ENDBRANCH  21  22
TORSDOF 8
ENDMDL
MODEL 9
REMARK VINA RESULT:      -4.6      4.460      5.392
REMARK  Name = ZINC06404152
REMARK  12 active torsions:
REMARK  status: ('A' for Active; 'I' for Inactive)
REMARK    1  A    between atoms: C1_1  and  O1_2
REMARK    2  A    between atoms: O1_2  and  C2_3
REMARK    3  A    between atoms: C5_6  and  C8_9
REMARK    4  A    between atoms: C9_10  and  C10_11
REMARK    5  A    between atoms: C10_11  and  C11_13
REMARK    6  A    between atoms: C12_14  and  O6_25
REMARK    7  A    between atoms: C14_16  and  O5_23
REMARK    8  A    between atoms: C15_17  and  O4_21
REMARK    9  A    between atoms: C16_18  and  O3_19
REMARK   10  A    between atoms: O3_19  and  C17_20
REMARK   11  A    between atoms: O4_21  and  C18_22
REMARK   12  A    between atoms: O5_23  and  C19_24
REMARK                            x       y       z     vdW  Elec       q    Type
REMARK                         _______ _______ _______ _____ _____    ______ ____
ROOT
ATOM     10  C   UNL     1      44.807  18.534  19.827  0.00  0.00    -0.221 A 
ATOM     11  C   UNL     1      44.554  19.287  18.669  0.00  0.00    +0.191 A 
ATOM     14  C   UNL     1      43.397  20.036  18.573  0.00  0.00    -0.083 A 
ATOM     15  C   UNL     1      42.482  20.046  19.618  0.00  0.00    +0.157 A 
ATOM     18  C   UNL     1      42.723  19.303  20.770  0.00  0.00    +0.035 A 
ATOM     21  C   UNL     1      43.879  18.548  20.880  0.00  0.00    +0.167 A 
ENDROOT
BRANCH  10   9
ATOM      9  C   UNL     1      46.037  17.734  19.935  0.00  0.00    +0.456 C 
ATOM     24  O   UNL     1      47.039  18.221  20.430  0.00  0.00    -0.454 OA
BRANCH   9   8
ATOM      7  C   UNL     1      46.497  16.088  18.198  0.00  0.00    +0.134 C 
ATOM      8  C   UNL     1      46.058  16.356  19.447  0.00  0.00    -0.102 C 
BRANCH   7   6
ATOM      3  C   UNL     1      46.559  12.090  16.783  0.00  0.00    +0.145 A 
ATOM      4  C   UNL     1      47.271  13.075  16.108  0.00  0.00    -0.020 A 
ATOM      5  C   UNL     1      47.254  14.375  16.563  0.00  0.00    +0.087 A 
ATOM      6  C   UNL     1      46.519  14.703  17.707  0.00  0.00    -0.123 A 
ATOM     25  C   UNL     1      45.808  13.706  18.387  0.00  0.00    +0.079 A 
ATOM     26  C   UNL     1      45.827  12.411  17.921  0.00  0.00    -0.080 A 
BRANCH   3   2
ATOM      1  C   UNL     1      45.649  10.473  15.300  0.00  0.00    +0.244 C 
ATOM      2  O   UNL     1      46.579  10.811  16.331  0.00  0.00    -0.314 OA
ENDBRANCH   3   2
ENDBRANCH   7   6
ENDBRANCH   9   8
ENDBRANCH  10   9
BRANCH  11  12
ATOM     12  O   UNL     1      45.445  19.279  17.644  0.00  0.00    -0.488 OA
ATOM     13  H   UNL     1      45.188  18.712  16.903  0.00  0.00    +0.402 HD
ENDBRANCH  11  12
BRANCH  15  16
ATOM     16  O   UNL     1      41.347  20.785  19.515  0.00  0.00    -0.297 OA
ATOM     17  C   UNL     1      41.421  21.986  18.744  0.00  0.00    +0.249 C 
ENDBRANCH  15  16
BRANCH  18  19
ATOM     19  O   UNL     1      41.818  19.315  21.788  0.00  0.00    -0.315 OA
ATOM     20  C   UNL     1      40.579  18.639  21.562  0.00  0.00    +0.228 C 
ENDBRANCH  18  19
BRANCH  21  22
ATOM     22  O   UNL     1      44.113  17.823  22.004  0.00  0.00    -0.327 OA
ATOM     23  C   UNL     1      43.489  16.541  22.091  0.00  0.00    +0.247 C 
ENDBRANCH  21  22
TORSDOF 8
ENDMDL
