MODEL 1
REMARK VINA RESULT:      -5.6      0.000      0.000
REMARK  Name = ZINC95486166
REMARK  13 active torsions:
REMARK  status: ('A' for Active; 'I' for Inactive)
REMARK    1  A    between atoms: C1_1  and  C2_2
REMARK    2  A    between atoms: C6_7  and  O5_34
REMARK    3  A    between atoms: C7_8  and  C14_18
REMARK    4  A    between atoms: C8_9  and  O1_16
REMARK    5  A    between atoms: C10_11  and  C12_15
REMARK    6  A    between atoms: N1_13  and  C11_14
REMARK    7  A    between atoms: O1_16  and  C13_17
REMARK    8  A    between atoms: C19_23  and  O4_32
REMARK    9  A    between atoms: C21_25  and  O3_30
REMARK   10  A    between atoms: C23_27  and  O2_28
REMARK   11  A    between atoms: O2_28  and  C24_29
REMARK   12  A    between atoms: O3_30  and  C25_31
REMARK   13  A    between atoms: O4_32  and  C26_33
REMARK                            x       y       z     vdW  Elec       q    Type
REMARK                         _______ _______ _______ _____ _____    ______ ____
ROOT
ATOM      1  C   UNL     1      40.238  18.875  21.320  0.00  0.00    +0.093 C 
ATOM      2  C   UNL     1      41.640  18.961  20.712  0.00  0.00    +0.165 C 
ATOM      3  C   UNL     1      42.678  18.559  21.760  0.00  0.00    +0.134 C 
ATOM      4  C   UNL     1      44.065  18.857  21.245  0.00  0.00    -0.061 A 
ATOM      5  C   UNL     1      45.147  18.261  21.875  0.00  0.00    +0.003 A 
ATOM      6  C   UNL     1      46.437  18.507  21.441  0.00  0.00    +0.166 A 
ATOM      9  C   UNL     1      46.650  19.365  20.357  0.00  0.00    -0.038 A 
ATOM     26  C   UNL     1      45.556  19.960  19.725  0.00  0.00    +0.156 A 
ATOM     29  C   UNL     1      44.265  19.702  20.172  0.00  0.00    -0.162 A 
ATOM     30  C   UNL     1      43.115  20.360  19.455  0.00  0.00    +0.226 C 
ATOM     31  C   UNL     1      42.836  19.608  18.153  0.00  0.00    +0.099 C 
ATOM     32  N   UNL     1      41.909  20.343  20.286  0.00  0.00    -0.380 N 
ATOM     33  H   UNL     1      42.053  20.925  21.098  0.00  0.00    +0.424 HD
ATOM     34  C   UNL     1      40.768  20.850  19.511  0.00  0.00    +0.325 C 
ENDROOT
BRANCH   9  10
ATOM     10  C   UNL     1      48.026  19.639  19.883  0.00  0.00    -0.150 A 
ATOM     11  C   UNL     1      48.611  18.823  18.886  0.00  0.00    +0.081 A 
ATOM     12  C   UNL     1      47.909  17.744  18.330  0.00  0.00    -0.061 A 
ATOM     13  C   UNL     1      48.494  16.973  17.371  0.00  0.00    +0.091 A 
ATOM     14  C   UNL     1      49.788  17.237  16.931  0.00  0.00    -0.120 A 
ATOM     15  C   UNL     1      50.509  18.288  17.453  0.00  0.00    +0.189 A 
ATOM     18  C   UNL     1      49.927  19.102  18.446  0.00  0.00    -0.129 A 
ATOM     19  C   UNL     1      50.634  20.186  19.004  0.00  0.00    +0.226 A 
ATOM     22  C   UNL     1      50.044  20.966  19.971  0.00  0.00    -0.181 A 
ATOM     23  C   UNL     1      48.747  20.704  20.408  0.00  0.00    +0.216 A 
BRANCH  15  16
ATOM     16  O   UNL     1      51.770  18.537  17.017  0.00  0.00    -0.290 OA
ATOM     17  C   UNL     1      51.967  18.598  15.602  0.00  0.00    +0.246 C 
ENDBRANCH  15  16
BRANCH  19  20
ATOM     20  O   UNL     1      51.897  20.459  18.586  0.00  0.00    -0.282 OA
ATOM     21  C   UNL     1      52.702  21.273  19.442  0.00  0.00    +0.248 C 
ENDBRANCH  19  20
BRANCH  23  24
ATOM     24  O   UNL     1      48.185  21.493  21.361  0.00  0.00    -0.309 OA
ATOM     25  C   UNL     1      48.984  21.796  22.505  0.00  0.00    +0.246 C 
ENDBRANCH  23  24
ENDBRANCH   9  10
BRANCH   6   7
ATOM      7  O   UNL     1      47.491  17.919  22.066  0.00  0.00    -0.482 OA
ATOM      8  H   UNL     1      47.293  17.602  22.958  0.00  0.00    +0.401 HD
ENDBRANCH   6   7
BRANCH  26  27
ATOM     27  O   UNL     1      45.755  20.794  18.672  0.00  0.00    -0.325 OA
ATOM     28  C   UNL     1      45.629  22.196  18.921  0.00  0.00    +0.235 C 
ENDBRANCH  26  27
TORSDOF 6
ENDMDL
MODEL 2
REMARK VINA RESULT:      -5.4      3.575      6.535
REMARK  Name = ZINC95486166
REMARK  13 active torsions:
REMARK  status: ('A' for Active; 'I' for Inactive)
REMARK    1  A    between atoms: C1_1  and  C2_2
REMARK    2  A    between atoms: C6_7  and  O5_34
REMARK    3  A    between atoms: C7_8  and  C14_18
REMARK    4  A    between atoms: C8_9  and  O1_16
REMARK    5  A    between atoms: C10_11  and  C12_15
REMARK    6  A    between atoms: N1_13  and  C11_14
REMARK    7  A    between atoms: O1_16  and  C13_17
REMARK    8  A    between atoms: C19_23  and  O4_32
REMARK    9  A    between atoms: C21_25  and  O3_30
REMARK   10  A    between atoms: C23_27  and  O2_28
REMARK   11  A    between atoms: O2_28  and  C24_29
REMARK   12  A    between atoms: O3_30  and  C25_31
REMARK   13  A    between atoms: O4_32  and  C26_33
REMARK                            x       y       z     vdW  Elec       q    Type
REMARK                         _______ _______ _______ _____ _____    ______ ____
ROOT
ATOM      1  C   UNL     1      46.214  10.823  15.749  0.00  0.00    +0.093 C 
ATOM      2  C   UNL     1      46.652  12.006  16.614  0.00  0.00    +0.165 C 
ATOM      3  C   UNL     1      45.522  12.389  17.570  0.00  0.00    +0.134 C 
ATOM      4  C   UNL     1      45.855  13.687  18.262  0.00  0.00    -0.061 A 
ATOM      5  C   UNL     1      45.146  14.029  19.404  0.00  0.00    +0.003 A 
ATOM      6  C   UNL     1      45.414  15.211  20.071  0.00  0.00    +0.166 A 
ATOM      9  C   UNL     1      46.409  16.067  19.588  0.00  0.00    -0.038 A 
ATOM     26  C   UNL     1      47.121  15.715  18.440  0.00  0.00    +0.156 A 
ATOM     29  C   UNL     1      46.842  14.523  17.781  0.00  0.00    -0.162 A 
ATOM     30  C   UNL     1      47.640  14.182  16.550  0.00  0.00    +0.226 C 
ATOM     31  C   UNL     1      49.012  13.650  16.970  0.00  0.00    +0.099 C 
ATOM     32  N   UNL     1      46.954  13.161  15.754  0.00  0.00    -0.380 N 
ATOM     33  H   UNL     1      46.096  13.543  15.387  0.00  0.00    +0.424 HD
ATOM     34  C   UNL     1      47.820  12.735  14.646  0.00  0.00    +0.325 C 
ENDROOT
BRANCH   9  10
ATOM     10  C   UNL     1      46.706  17.336  20.291  0.00  0.00    -0.150 A 
ATOM     11  C   UNL     1      45.991  18.513  19.967  0.00  0.00    +0.081 A 
ATOM     12  C   UNL     1      44.993  18.505  18.981  0.00  0.00    -0.061 A 
ATOM     13  C   UNL     1      44.318  19.651  18.687  0.00  0.00    +0.091 A 
ATOM     14  C   UNL     1      44.602  20.840  19.351  0.00  0.00    -0.120 A 
ATOM     15  C   UNL     1      45.574  20.888  20.325  0.00  0.00    +0.189 A 
ATOM     18  C   UNL     1      46.288  19.717  20.649  0.00  0.00    -0.129 A 
ATOM     19  C   UNL     1      47.290  19.727  21.641  0.00  0.00    +0.226 A 
ATOM     22  C   UNL     1      47.972  18.569  21.939  0.00  0.00    -0.181 A 
ATOM     23  C   UNL     1      47.684  17.378  21.277  0.00  0.00    +0.216 A 
BRANCH  15  16
ATOM     16  O   UNL     1      45.844  22.053  20.967  0.00  0.00    -0.290 OA
ATOM     17  C   UNL     1      44.726  22.817  21.424  0.00  0.00    +0.246 C 
ENDBRANCH  15  16
BRANCH  19  20
ATOM     20  O   UNL     1      47.581  20.878  22.299  0.00  0.00    -0.282 OA
ATOM     21  C   UNL     1      48.954  21.273  22.339  0.00  0.00    +0.248 C 
ENDBRANCH  19  20
BRANCH  23  24
ATOM     24  O   UNL     1      48.368  16.249  21.594  0.00  0.00    -0.309 OA
ATOM     25  C   UNL     1      49.763  16.228  21.289  0.00  0.00    +0.246 C 
ENDBRANCH  23  24
ENDBRANCH   9  10
BRANCH   6   7
ATOM      7  O   UNL     1      44.713  15.538  21.188  0.00  0.00    -0.482 OA
ATOM      8  H   UNL     1      43.953  16.113  21.023  0.00  0.00    +0.401 HD
ENDBRANCH   6   7
BRANCH  26  27
ATOM     27  O   UNL     1      48.090  16.542  17.965  0.00  0.00    -0.325 OA
ATOM     28  C   UNL     1      47.734  17.402  16.881  0.00  0.00    +0.235 C 
ENDBRANCH  26  27
TORSDOF 6
ENDMDL
MODEL 3
REMARK VINA RESULT:      -5.2      1.069      3.002
REMARK  Name = ZINC95486166
REMARK  13 active torsions:
REMARK  status: ('A' for Active; 'I' for Inactive)
REMARK    1  A    between atoms: C1_1  and  C2_2
REMARK    2  A    between atoms: C6_7  and  O5_34
REMARK    3  A    between atoms: C7_8  and  C14_18
REMARK    4  A    between atoms: C8_9  and  O1_16
REMARK    5  A    between atoms: C10_11  and  C12_15
REMARK    6  A    between atoms: N1_13  and  C11_14
REMARK    7  A    between atoms: O1_16  and  C13_17
REMARK    8  A    between atoms: C19_23  and  O4_32
REMARK    9  A    between atoms: C21_25  and  O3_30
REMARK   10  A    between atoms: C23_27  and  O2_28
REMARK   11  A    between atoms: O2_28  and  C24_29
REMARK   12  A    between atoms: O3_30  and  C25_31
REMARK   13  A    between atoms: O4_32  and  C26_33
REMARK                            x       y       z     vdW  Elec       q    Type
REMARK                         _______ _______ _______ _____ _____    ______ ____
ROOT
ATOM      1  C   UNL     1      40.213  19.048  21.233  0.00  0.00    +0.093 C 
ATOM      2  C   UNL     1      41.580  18.982  20.549  0.00  0.00    +0.165 C 
ATOM      3  C   UNL     1      42.600  18.356  21.500  0.00  0.00    +0.134 C 
ATOM      4  C   UNL     1      43.988  18.495  20.925  0.00  0.00    -0.061 A 
ATOM      5  C   UNL     1      45.001  17.703  21.445  0.00  0.00    +0.003 A 
ATOM      6  C   UNL     1      46.290  17.797  20.952  0.00  0.00    +0.166 A 
ATOM      9  C   UNL     1      46.572  18.698  19.920  0.00  0.00    -0.038 A 
ATOM     26  C   UNL     1      45.547  19.490  19.399  0.00  0.00    +0.156 A 
ATOM     29  C   UNL     1      44.255  19.384  19.904  0.00  0.00    -0.162 A 
ATOM     30  C   UNL     1      43.179  20.252  19.306  0.00  0.00    +0.226 C 
ATOM     31  C   UNL     1      42.729  19.651  17.973  0.00  0.00    +0.099 C 
ATOM     32  N   UNL     1      42.026  20.341  20.205  0.00  0.00    -0.380 N 
ATOM     33  H   UNL     1      42.294  20.832  21.045  0.00  0.00    +0.424 HD
ATOM     34  C   UNL     1      40.935  21.063  19.538  0.00  0.00    +0.325 C 
ENDROOT
BRANCH   9  10
ATOM     10  C   UNL     1      47.947  18.812  19.384  0.00  0.00    -0.150 A 
ATOM     11  C   UNL     1      48.898  19.637  20.029  0.00  0.00    +0.081 A 
ATOM     12  C   UNL     1      48.562  20.363  21.181  0.00  0.00    -0.061 A 
ATOM     13  C   UNL     1      49.494  21.152  21.785  0.00  0.00    +0.091 A 
ATOM     14  C   UNL     1      50.785  21.253  21.275  0.00  0.00    -0.120 A 
ATOM     15  C   UNL     1      51.153  20.556  20.146  0.00  0.00    +0.189 A 
ATOM     18  C   UNL     1      50.207  19.733  19.501  0.00  0.00    -0.129 A 
ATOM     19  C   UNL     1      50.547  19.004  18.343  0.00  0.00    +0.226 A 
ATOM     22  C   UNL     1      49.606  18.206  17.733  0.00  0.00    -0.181 A 
ATOM     23  C   UNL     1      48.315  18.101  18.247  0.00  0.00    +0.216 A 
BRANCH  15  16
ATOM     16  O   UNL     1      52.414  20.662  19.656  0.00  0.00    -0.290 OA
ATOM     17  C   UNL     1      53.096  21.898  19.881  0.00  0.00    +0.246 C 
ENDBRANCH  15  16
BRANCH  19  20
ATOM     20  O   UNL     1      51.802  19.090  17.831  0.00  0.00    -0.282 OA
ATOM     21  C   UNL     1      51.914  19.311  16.424  0.00  0.00    +0.248 C 
ENDBRANCH  19  20
BRANCH  23  24
ATOM     24  O   UNL     1      47.408  17.303  17.629  0.00  0.00    -0.309 OA
ATOM     25  C   UNL     1      47.650  15.896  17.664  0.00  0.00    +0.246 C 
ENDBRANCH  23  24
ENDBRANCH   9  10
BRANCH   6   7
ATOM      7  O   UNL     1      47.277  17.019  21.469  0.00  0.00    -0.482 OA
ATOM      8  H   UNL     1      48.161  17.405  21.398  0.00  0.00    +0.401 HD
ENDBRANCH   6   7
BRANCH  26  27
ATOM     27  O   UNL     1      45.812  20.368  18.397  0.00  0.00    -0.325 OA
ATOM     28  C   UNL     1      45.984  21.738  18.762  0.00  0.00    +0.235 C 
ENDBRANCH  26  27
TORSDOF 6
ENDMDL
MODEL 4
REMARK VINA RESULT:      -5.1      3.649      6.546
REMARK  Name = ZINC95486166
REMARK  13 active torsions:
REMARK  status: ('A' for Active; 'I' for Inactive)
REMARK    1  A    between atoms: C1_1  and  C2_2
REMARK    2  A    between atoms: C6_7  and  O5_34
REMARK    3  A    between atoms: C7_8  and  C14_18
REMARK    4  A    between atoms: C8_9  and  O1_16
REMARK    5  A    between atoms: C10_11  and  C12_15
REMARK    6  A    between atoms: N1_13  and  C11_14
REMARK    7  A    between atoms: O1_16  and  C13_17
REMARK    8  A    between atoms: C19_23  and  O4_32
REMARK    9  A    between atoms: C21_25  and  O3_30
REMARK   10  A    between atoms: C23_27  and  O2_28
REMARK   11  A    between atoms: O2_28  and  C24_29
REMARK   12  A    between atoms: O3_30  and  C25_31
REMARK   13  A    between atoms: O4_32  and  C26_33
REMARK                            x       y       z     vdW  Elec       q    Type
REMARK                         _______ _______ _______ _____ _____    ______ ____
ROOT
ATOM      1  C   UNL     1      46.942  10.277  16.159  0.00  0.00    +0.093 C 
ATOM      2  C   UNL     1      47.220  11.542  16.974  0.00  0.00    +0.165 C 
ATOM      3  C   UNL     1      46.783  12.772  16.178  0.00  0.00    +0.134 C 
ATOM      4  C   UNL     1      47.259  14.025  16.871  0.00  0.00    -0.061 A 
ATOM      5  C   UNL     1      46.684  15.236  16.516  0.00  0.00    +0.003 A 
ATOM      6  C   UNL     1      47.090  16.412  17.121  0.00  0.00    +0.166 A 
ATOM      9  C   UNL     1      48.089  16.376  18.100  0.00  0.00    -0.038 A 
ATOM     26  C   UNL     1      48.662  15.154  18.454  0.00  0.00    +0.156 A 
ATOM     29  C   UNL     1      48.242  13.980  17.838  0.00  0.00    -0.162 A 
ATOM     30  C   UNL     1      48.883  12.682  18.258  0.00  0.00    +0.226 C 
ATOM     31  C   UNL     1      48.275  12.226  19.586  0.00  0.00    +0.099 C 
ATOM     32  N   UNL     1      48.662  11.645  17.248  0.00  0.00    -0.380 N 
ATOM     33  H   UNL     1      49.150  11.892  16.401  0.00  0.00    +0.424 HD
ATOM     34  C   UNL     1      49.160  10.356  17.747  0.00  0.00    +0.325 C 
ENDROOT
BRANCH   9  10
ATOM     10  C   UNL     1      48.535  17.627  18.755  0.00  0.00    -0.150 A 
ATOM     11  C   UNL     1      49.590  18.387  18.196  0.00  0.00    +0.081 A 
ATOM     12  C   UNL     1      50.232  17.976  17.019  0.00  0.00    -0.061 A 
ATOM     13  C   UNL     1      51.245  18.724  16.499  0.00  0.00    +0.091 A 
ATOM     14  C   UNL     1      51.660  19.898  17.121  0.00  0.00    -0.120 A 
ATOM     15  C   UNL     1      51.053  20.334  18.278  0.00  0.00    +0.189 A 
ATOM     18  C   UNL     1      50.003  19.579  18.836  0.00  0.00    -0.129 A 
ATOM     19  C   UNL     1      49.358  19.994  20.019  0.00  0.00    +0.226 A 
ATOM     22  C   UNL     1      48.334  19.239  20.544  0.00  0.00    -0.181 A 
ATOM     23  C   UNL     1      47.916  18.066  19.919  0.00  0.00    +0.216 A 
BRANCH  15  16
ATOM     16  O   UNL     1      51.465  21.481  18.876  0.00  0.00    -0.290 OA
ATOM     17  C   UNL     1      52.748  21.460  19.505  0.00  0.00    +0.246 C 
ENDBRANCH  15  16
BRANCH  19  20
ATOM     20  O   UNL     1      49.748  21.137  20.639  0.00  0.00    -0.282 OA
ATOM     21  C   UNL     1      49.691  21.153  22.068  0.00  0.00    +0.248 C 
ENDBRANCH  19  20
BRANCH  23  24
ATOM     24  O   UNL     1      46.900  17.343  20.455  0.00  0.00    -0.309 OA
ATOM     25  C   UNL     1      45.576  17.849  20.272  0.00  0.00    +0.246 C 
ENDBRANCH  23  24
ENDBRANCH   9  10
BRANCH   6   7
ATOM      7  O   UNL     1      46.522  17.594  16.766  0.00  0.00    -0.482 OA
ATOM      8  H   UNL     1      45.962  17.541  15.979  0.00  0.00    +0.401 HD
ENDBRANCH   6   7
BRANCH  26  27
ATOM     27  O   UNL     1      49.633  15.111  19.404  0.00  0.00    -0.325 OA
ATOM     28  C   UNL     1      50.983  15.016  18.947  0.00  0.00    +0.235 C 
ENDBRANCH  26  27
TORSDOF 6
ENDMDL
MODEL 5
REMARK VINA RESULT:      -5.0      4.998      9.232
REMARK  Name = ZINC95486166
REMARK  13 active torsions:
REMARK  status: ('A' for Active; 'I' for Inactive)
REMARK    1  A    between atoms: C1_1  and  C2_2
REMARK    2  A    between atoms: C6_7  and  O5_34
REMARK    3  A    between atoms: C7_8  and  C14_18
REMARK    4  A    between atoms: C8_9  and  O1_16
REMARK    5  A    between atoms: C10_11  and  C12_15
REMARK    6  A    between atoms: N1_13  and  C11_14
REMARK    7  A    between atoms: O1_16  and  C13_17
REMARK    8  A    between atoms: C19_23  and  O4_32
REMARK    9  A    between atoms: C21_25  and  O3_30
REMARK   10  A    between atoms: C23_27  and  O2_28
REMARK   11  A    between atoms: O2_28  and  C24_29
REMARK   12  A    between atoms: O3_30  and  C25_31
REMARK   13  A    between atoms: O4_32  and  C26_33
REMARK                            x       y       z     vdW  Elec       q    Type
REMARK                         _______ _______ _______ _____ _____    ______ ____
ROOT
ATOM      1  C   UNL     1      53.165  10.277  15.391  0.00  0.00    +0.093 C 
ATOM      2  C   UNL     1      52.029  10.906  16.200  0.00  0.00    +0.165 C 
ATOM      3  C   UNL     1      51.157  11.761  15.281  0.00  0.00    +0.134 C 
ATOM      4  C   UNL     1      50.179  12.562  16.105  0.00  0.00    -0.061 A 
ATOM      5  C   UNL     1      49.084  13.126  15.467  0.00  0.00    +0.003 A 
ATOM      6  C   UNL     1      48.162  13.872  16.179  0.00  0.00    +0.166 A 
ATOM      9  C   UNL     1      48.336  14.056  17.554  0.00  0.00    -0.038 A 
ATOM     26  C   UNL     1      49.439  13.483  18.191  0.00  0.00    +0.156 A 
ATOM     29  C   UNL     1      50.357  12.735  17.462  0.00  0.00    -0.162 A 
ATOM     30  C   UNL     1      51.528  12.129  18.192  0.00  0.00    +0.226 C 
ATOM     31  C   UNL     1      51.064  10.874  18.933  0.00  0.00    +0.099 C 
ATOM     32  N   UNL     1      52.592  11.766  17.253  0.00  0.00    -0.380 N 
ATOM     33  H   UNL     1      52.973  12.603  16.839  0.00  0.00    +0.424 HD
ATOM     34  C   UNL     1      53.652  11.041  17.966  0.00  0.00    +0.325 C 
ENDROOT
BRANCH   9  10
ATOM     10  C   UNL     1      47.358  14.853  18.330  0.00  0.00    -0.150 A 
ATOM     11  C   UNL     1      47.547  16.245  18.497  0.00  0.00    +0.081 A 
ATOM     12  C   UNL     1      48.656  16.897  17.939  0.00  0.00    -0.061 A 
ATOM     13  C   UNL     1      48.817  18.238  18.114  0.00  0.00    +0.091 A 
ATOM     14  C   UNL     1      47.893  18.981  18.844  0.00  0.00    -0.120 A 
ATOM     15  C   UNL     1      46.792  18.376  19.407  0.00  0.00    +0.189 A 
ATOM     18  C   UNL     1      46.602  16.990  19.241  0.00  0.00    -0.129 A 
ATOM     19  C   UNL     1      45.486  16.336  19.803  0.00  0.00    +0.226 A 
ATOM     22  C   UNL     1      45.323  14.982  19.626  0.00  0.00    -0.181 A 
ATOM     23  C   UNL     1      46.245  14.240  18.891  0.00  0.00    +0.216 A 
BRANCH  15  16
ATOM     16  O   UNL     1      45.897  19.109  20.118  0.00  0.00    -0.290 OA
ATOM     17  C   UNL     1      45.383  20.288  19.495  0.00  0.00    +0.246 C 
ENDBRANCH  15  16
BRANCH  19  20
ATOM     20  O   UNL     1      44.574  17.044  20.519  0.00  0.00    -0.282 OA
ATOM     21  C   UNL     1      44.105  16.456  21.734  0.00  0.00    +0.248 C 
ENDBRANCH  19  20
BRANCH  23  24
ATOM     24  O   UNL     1      46.057  12.905  18.727  0.00  0.00    -0.309 OA
ATOM     25  C   UNL     1      45.009  12.500  17.845  0.00  0.00    +0.246 C 
ENDBRANCH  23  24
ENDBRANCH   9  10
BRANCH   6   7
ATOM      7  O   UNL     1      47.093  14.421  15.545  0.00  0.00    -0.482 OA
ATOM      8  H   UNL     1      46.851  13.975  14.721  0.00  0.00    +0.401 HD
ENDBRANCH   6   7
BRANCH  26  27
ATOM     27  O   UNL     1      49.615  13.658  19.527  0.00  0.00    -0.325 OA
ATOM     28  C   UNL     1      50.544  14.665  19.932  0.00  0.00    +0.235 C 
ENDBRANCH  26  27
TORSDOF 6
ENDMDL
MODEL 6
REMARK VINA RESULT:      -5.0      3.286      5.623
REMARK  Name = ZINC95486166
REMARK  13 active torsions:
REMARK  status: ('A' for Active; 'I' for Inactive)
REMARK    1  A    between atoms: C1_1  and  C2_2
REMARK    2  A    between atoms: C6_7  and  O5_34
REMARK    3  A    between atoms: C7_8  and  C14_18
REMARK    4  A    between atoms: C8_9  and  O1_16
REMARK    5  A    between atoms: C10_11  and  C12_15
REMARK    6  A    between atoms: N1_13  and  C11_14
REMARK    7  A    between atoms: O1_16  and  C13_17
REMARK    8  A    between atoms: C19_23  and  O4_32
REMARK    9  A    between atoms: C21_25  and  O3_30
REMARK   10  A    between atoms: C23_27  and  O2_28
REMARK   11  A    between atoms: O2_28  and  C24_29
REMARK   12  A    between atoms: O3_30  and  C25_31
REMARK   13  A    between atoms: O4_32  and  C26_33
REMARK                            x       y       z     vdW  Elec       q    Type
REMARK                         _______ _______ _______ _____ _____    ______ ____
ROOT
ATOM      1  C   UNL     1      44.796  22.541  20.650  0.00  0.00    +0.093 C 
ATOM      2  C   UNL     1      45.843  21.530  20.179  0.00  0.00    +0.165 C 
ATOM      3  C   UNL     1      45.219  20.590  19.146  0.00  0.00    +0.134 C 
ATOM      4  C   UNL     1      46.169  19.456  18.848  0.00  0.00    -0.061 A 
ATOM      5  C   UNL     1      45.957  18.699  17.706  0.00  0.00    +0.003 A 
ATOM      6  C   UNL     1      46.798  17.647  17.392  0.00  0.00    +0.166 A 
ATOM      9  C   UNL     1      47.873  17.347  18.236  0.00  0.00    -0.038 A 
ATOM     26  C   UNL     1      48.083  18.115  19.382  0.00  0.00    +0.156 A 
ATOM     29  C   UNL     1      47.229  19.170  19.684  0.00  0.00    -0.162 A 
ATOM     30  C   UNL     1      47.499  19.977  20.928  0.00  0.00    +0.226 C 
ATOM     31  C   UNL     1      48.643  20.955  20.655  0.00  0.00    +0.099 C 
ATOM     32  N   UNL     1      46.307  20.731  21.324  0.00  0.00    -0.380 N 
ATOM     33  H   UNL     1      45.582  20.089  21.605  0.00  0.00    +0.424 HD
ATOM     34  C   UNL     1      46.638  21.624  22.443  0.00  0.00    +0.325 C 
ENDROOT
BRANCH   9  10
ATOM     10  C   UNL     1      48.782  16.223  17.914  0.00  0.00    -0.150 A 
ATOM     11  C   UNL     1      48.452  14.905  18.310  0.00  0.00    +0.081 A 
ATOM     12  C   UNL     1      47.267  14.635  19.010  0.00  0.00    -0.061 A 
ATOM     13  C   UNL     1      46.971  13.358  19.380  0.00  0.00    +0.091 A 
ATOM     14  C   UNL     1      47.830  12.307  19.074  0.00  0.00    -0.120 A 
ATOM     15  C   UNL     1      49.002  12.532  18.388  0.00  0.00    +0.189 A 
ATOM     18  C   UNL     1      49.333  13.844  17.993  0.00  0.00    -0.129 A 
ATOM     19  C   UNL     1      50.524  14.113  17.289  0.00  0.00    +0.226 A 
ATOM     22  C   UNL     1      50.824  15.402  16.914  0.00  0.00    -0.181 A 
ATOM     23  C   UNL     1      49.961  16.454  17.216  0.00  0.00    +0.216 A 
BRANCH  15  16
ATOM     16  O   UNL     1      49.834  11.499  18.095  0.00  0.00    -0.290 OA
ATOM     17  C   UNL     1      49.248  10.347  17.485  0.00  0.00    +0.246 C 
ENDBRANCH  15  16
BRANCH  19  20
ATOM     20  O   UNL     1      51.374  13.099  16.982  0.00  0.00    -0.282 OA
ATOM     21  C   UNL     1      51.664  12.894  15.597  0.00  0.00    +0.248 C 
ENDBRANCH  19  20
BRANCH  23  24
ATOM     24  O   UNL     1      50.277  17.717  16.830  0.00  0.00    -0.309 OA
ATOM     25  C   UNL     1      51.516  18.249  17.304  0.00  0.00    +0.246 C 
ENDBRANCH  23  24
ENDBRANCH   9  10
BRANCH   6   7
ATOM      7  O   UNL     1      46.581  16.910  16.272  0.00  0.00    -0.482 OA
ATOM      8  H   UNL     1      46.321  15.994  16.447  0.00  0.00    +0.401 HD
ENDBRANCH   6   7
BRANCH  26  27
ATOM     27  O   UNL     1      49.125  17.830  20.207  0.00  0.00    -0.325 OA
ATOM     28  C   UNL     1      48.853  16.987  21.328  0.00  0.00    +0.235 C 
ENDBRANCH  26  27
TORSDOF 6
ENDMDL
MODEL 7
REMARK VINA RESULT:      -5.0      2.937      4.829
REMARK  Name = ZINC95486166
REMARK  13 active torsions:
REMARK  status: ('A' for Active; 'I' for Inactive)
REMARK    1  A    between atoms: C1_1  and  C2_2
REMARK    2  A    between atoms: C6_7  and  O5_34
REMARK    3  A    between atoms: C7_8  and  C14_18
REMARK    4  A    between atoms: C8_9  and  O1_16
REMARK    5  A    between atoms: C10_11  and  C12_15
REMARK    6  A    between atoms: N1_13  and  C11_14
REMARK    7  A    between atoms: O1_16  and  C13_17
REMARK    8  A    between atoms: C19_23  and  O4_32
REMARK    9  A    between atoms: C21_25  and  O3_30
REMARK   10  A    between atoms: C23_27  and  O2_28
REMARK   11  A    between atoms: O2_28  and  C24_29
REMARK   12  A    between atoms: O3_30  and  C25_31
REMARK   13  A    between atoms: O4_32  and  C26_33
REMARK                            x       y       z     vdW  Elec       q    Type
REMARK                         _______ _______ _______ _____ _____    ______ ____
ROOT
ATOM      1  C   UNL     1      43.589  22.686  19.881  0.00  0.00    +0.093 C 
ATOM      2  C   UNL     1      44.475  21.438  19.851  0.00  0.00    +0.165 C 
ATOM      3  C   UNL     1      45.932  21.850  19.644  0.00  0.00    +0.134 C 
ATOM      4  C   UNL     1      46.777  20.626  19.386  0.00  0.00    -0.061 A 
ATOM      5  C   UNL     1      48.153  20.733  19.517  0.00  0.00    +0.003 A 
ATOM      6  C   UNL     1      48.969  19.640  19.288  0.00  0.00    +0.166 A 
ATOM      9  C   UNL     1      48.398  18.416  18.922  0.00  0.00    -0.038 A 
ATOM     26  C   UNL     1      47.012  18.314  18.794  0.00  0.00    +0.156 A 
ATOM     29  C   UNL     1      46.205  19.422  19.029  0.00  0.00    -0.162 A 
ATOM     30  C   UNL     1      44.713  19.264  18.887  0.00  0.00    +0.226 C 
ATOM     31  C   UNL     1      44.159  18.571  20.133  0.00  0.00    +0.099 C 
ATOM     32  N   UNL     1      44.066  20.569  18.736  0.00  0.00    -0.380 N 
ATOM     33  H   UNL     1      44.349  20.985  17.862  0.00  0.00    +0.424 HD
ATOM     34  C   UNL     1      42.606  20.402  18.754  0.00  0.00    +0.325 C 
ENDROOT
BRANCH   9  10
ATOM     10  C   UNL     1      49.259  17.237  18.671  0.00  0.00    -0.150 A 
ATOM     11  C   UNL     1      49.331  16.193  19.623  0.00  0.00    +0.081 A 
ATOM     12  C   UNL     1      48.596  16.249  20.816  0.00  0.00    -0.061 A 
ATOM     13  C   UNL     1      48.681  15.232  21.717  0.00  0.00    +0.091 A 
ATOM     14  C   UNL     1      49.492  14.127  21.475  0.00  0.00    -0.120 A 
ATOM     15  C   UNL     1      50.229  14.035  20.315  0.00  0.00    +0.189 A 
ATOM     18  C   UNL     1      50.159  15.075  19.365  0.00  0.00    -0.129 A 
ATOM     19  C   UNL     1      50.898  15.016  18.167  0.00  0.00    +0.226 A 
ATOM     22  C   UNL     1      50.811  16.043  17.255  0.00  0.00    -0.181 A 
ATOM     23  C   UNL     1      49.995  17.147  17.496  0.00  0.00    +0.216 A 
BRANCH  15  16
ATOM     16  O   UNL     1      51.018  12.954  20.088  0.00  0.00    -0.290 OA
ATOM     17  C   UNL     1      50.448  11.669  20.347  0.00  0.00    +0.246 C 
ENDBRANCH  15  16
BRANCH  19  20
ATOM     20  O   UNL     1      51.695  13.946  17.913  0.00  0.00    -0.282 OA
ATOM     21  C   UNL     1      51.464  13.241  16.691  0.00  0.00    +0.248 C 
ENDBRANCH  19  20
BRANCH  23  24
ATOM     24  O   UNL     1      49.924  18.144  16.578  0.00  0.00    -0.309 OA
ATOM     25  C   UNL     1      51.160  18.704  16.131  0.00  0.00    +0.246 C 
ENDBRANCH  23  24
ENDBRANCH   9  10
BRANCH   6   7
ATOM      7  O   UNL     1      50.317  19.754  19.418  0.00  0.00    -0.482 OA
ATOM      8  H   UNL     1      50.809  19.549  18.611  0.00  0.00    +0.401 HD
ENDBRANCH   6   7
BRANCH  26  27
ATOM     27  O   UNL     1      46.450  17.130  18.438  0.00  0.00    -0.325 OA
ATOM     28  C   UNL     1      46.400  16.828  17.042  0.00  0.00    +0.235 C 
ENDBRANCH  26  27
TORSDOF 6
ENDMDL
MODEL 8
REMARK VINA RESULT:      -4.9      2.859      5.242
REMARK  Name = ZINC95486166
REMARK  13 active torsions:
REMARK  status: ('A' for Active; 'I' for Inactive)
REMARK    1  A    between atoms: C1_1  and  C2_2
REMARK    2  A    between atoms: C6_7  and  O5_34
REMARK    3  A    between atoms: C7_8  and  C14_18
REMARK    4  A    between atoms: C8_9  and  O1_16
REMARK    5  A    between atoms: C10_11  and  C12_15
REMARK    6  A    between atoms: N1_13  and  C11_14
REMARK    7  A    between atoms: O1_16  and  C13_17
REMARK    8  A    between atoms: C19_23  and  O4_32
REMARK    9  A    between atoms: C21_25  and  O3_30
REMARK   10  A    between atoms: C23_27  and  O2_28
REMARK   11  A    between atoms: O2_28  and  C24_29
REMARK   12  A    between atoms: O3_30  and  C25_31
REMARK   13  A    between atoms: O4_32  and  C26_33
REMARK                            x       y       z     vdW  Elec       q    Type
REMARK                         _______ _______ _______ _____ _____    ______ ____
ROOT
ATOM      1  C   UNL     1      45.811  25.747  20.964  0.00  0.00    +0.093 C 
ATOM      2  C   UNL     1      45.479  24.260  20.823  0.00  0.00    +0.165 C 
ATOM      3  C   UNL     1      46.635  23.422  21.370  0.00  0.00    +0.134 C 
ATOM      4  C   UNL     1      46.418  21.968  21.029  0.00  0.00    -0.061 A 
ATOM      5  C   UNL     1      47.150  21.012  21.716  0.00  0.00    +0.003 A 
ATOM      6  C   UNL     1      46.989  19.667  21.436  0.00  0.00    +0.166 A 
ATOM      9  C   UNL     1      46.078  19.271  20.451  0.00  0.00    -0.038 A 
ATOM     26  C   UNL     1      45.342  20.238  19.765  0.00  0.00    +0.156 A 
ATOM     29  C   UNL     1      45.515  21.587  20.058  0.00  0.00    -0.162 A 
ATOM     30  C   UNL     1      44.694  22.596  19.298  0.00  0.00    +0.226 C 
ATOM     31  C   UNL     1      43.278  22.631  19.875  0.00  0.00    +0.099 C 
ATOM     32  N   UNL     1      45.287  23.930  19.402  0.00  0.00    -0.380 N 
ATOM     33  H   UNL     1      46.179  23.939  18.930  0.00  0.00    +0.424 HD
ATOM     34  C   UNL     1      44.392  24.918  18.785  0.00  0.00    +0.325 C 
ENDROOT
BRANCH   9  10
ATOM     10  C   UNL     1      45.895  17.834  20.139  0.00  0.00    -0.150 A 
ATOM     11  C   UNL     1      46.655  17.227  19.112  0.00  0.00    +0.081 A 
ATOM     12  C   UNL     1      47.591  17.964  18.372  0.00  0.00    -0.061 A 
ATOM     13  C   UNL     1      48.311  17.356  17.388  0.00  0.00    +0.091 A 
ATOM     14  C   UNL     1      48.134  16.007  17.100  0.00  0.00    -0.120 A 
ATOM     15  C   UNL     1      47.225  15.250  17.806  0.00  0.00    +0.189 A 
ATOM     18  C   UNL     1      46.467  15.853  18.829  0.00  0.00    -0.129 A 
ATOM     19  C   UNL     1      45.528  15.110  19.573  0.00  0.00    +0.226 A 
ATOM     22  C   UNL     1      44.800  15.723  20.567  0.00  0.00    -0.181 A 
ATOM     23  C   UNL     1      44.982  17.073  20.858  0.00  0.00    +0.216 A 
BRANCH  15  16
ATOM     16  O   UNL     1      47.060  13.933  17.517  0.00  0.00    -0.290 OA
ATOM     17  C   UNL     1      47.267  13.536  16.160  0.00  0.00    +0.246 C 
ENDBRANCH  15  16
BRANCH  19  20
ATOM     20  O   UNL     1      45.341  13.792  19.306  0.00  0.00    -0.282 OA
ATOM     21  C   UNL     1      45.160  12.923  20.427  0.00  0.00    +0.248 C 
ENDBRANCH  19  20
BRANCH  23  24
ATOM     24  O   UNL     1      44.255  17.652  21.848  0.00  0.00    -0.309 OA
ATOM     25  C   UNL     1      42.995  17.056  22.162  0.00  0.00    +0.246 C 
ENDBRANCH  23  24
ENDBRANCH   9  10
BRANCH   6   7
ATOM      7  O   UNL     1      47.711  18.737  22.114  0.00  0.00    -0.482 OA
ATOM      8  H   UNL     1      47.364  18.533  22.994  0.00  0.00    +0.401 HD
ENDBRANCH   6   7
BRANCH  26  27
ATOM     27  O   UNL     1      44.456  19.861  18.807  0.00  0.00    -0.325 OA
ATOM     28  C   UNL     1      43.116  19.601  19.229  0.00  0.00    +0.235 C 
ENDBRANCH  26  27
TORSDOF 6
ENDMDL
MODEL 9
REMARK VINA RESULT:      -4.9      4.429      8.413
REMARK  Name = ZINC95486166
REMARK  13 active torsions:
REMARK  status: ('A' for Active; 'I' for Inactive)
REMARK    1  A    between atoms: C1_1  and  C2_2
REMARK    2  A    between atoms: C6_7  and  O5_34
REMARK    3  A    between atoms: C7_8  and  C14_18
REMARK    4  A    between atoms: C8_9  and  O1_16
REMARK    5  A    between atoms: C10_11  and  C12_15
REMARK    6  A    between atoms: N1_13  and  C11_14
REMARK    7  A    between atoms: O1_16  and  C13_17
REMARK    8  A    between atoms: C19_23  and  O4_32
REMARK    9  A    between atoms: C21_25  and  O3_30
REMARK   10  A    between atoms: C23_27  and  O2_28
REMARK   11  A    between atoms: O2_28  and  C24_29
REMARK   12  A    between atoms: O3_30  and  C25_31
REMARK   13  A    between atoms: O4_32  and  C26_33
REMARK                            x       y       z     vdW  Elec       q    Type
REMARK                         _______ _______ _______ _____ _____    ______ ____
ROOT
ATOM      1  C   UNL     1      51.589  10.765  15.565  0.00  0.00    +0.093 C 
ATOM      2  C   UNL     1      50.551  11.783  16.043  0.00  0.00    +0.165 C 
ATOM      3  C   UNL     1      50.938  12.297  17.430  0.00  0.00    +0.134 C 
ATOM      4  C   UNL     1      49.811  13.121  18.002  0.00  0.00    -0.061 A 
ATOM      5  C   UNL     1      50.081  13.955  19.076  0.00  0.00    +0.003 A 
ATOM      6  C   UNL     1      49.080  14.727  19.637  0.00  0.00    +0.166 A 
ATOM      9  C   UNL     1      47.784  14.665  19.113  0.00  0.00    -0.038 A 
ATOM     26  C   UNL     1      47.519  13.825  18.030  0.00  0.00    +0.156 A 
ATOM     29  C   UNL     1      48.537  13.056  17.476  0.00  0.00    -0.162 A 
ATOM     30  C   UNL     1      48.207  12.169  16.303  0.00  0.00    +0.226 C 
ATOM     31  C   UNL     1      48.132  13.021  15.034  0.00  0.00    +0.099 C 
ATOM     32  N   UNL     1      49.232  11.138  16.129  0.00  0.00    -0.380 N 
ATOM     33  H   UNL     1      49.213  10.510  16.919  0.00  0.00    +0.424 HD
ATOM     34  C   UNL     1      48.970  10.386  14.894  0.00  0.00    +0.325 C 
ENDROOT
BRANCH   9  10
ATOM     10  C   UNL     1      46.701  15.484  19.704  0.00  0.00    -0.150 A 
ATOM     11  C   UNL     1      46.377  16.744  19.148  0.00  0.00    +0.081 A 
ATOM     12  C   UNL     1      47.068  17.242  18.034  0.00  0.00    -0.061 A 
ATOM     13  C   UNL     1      46.737  18.458  17.516  0.00  0.00    +0.091 A 
ATOM     14  C   UNL     1      45.718  19.222  18.077  0.00  0.00    -0.120 A 
ATOM     15  C   UNL     1      45.017  18.767  19.171  0.00  0.00    +0.189 A 
ATOM     18  C   UNL     1      45.339  17.512  19.727  0.00  0.00    -0.129 A 
ATOM     19  C   UNL     1      44.643  17.012  20.846  0.00  0.00    +0.226 A 
ATOM     22  C   UNL     1      44.975  15.784  21.369  0.00  0.00    -0.181 A 
ATOM     23  C   UNL     1      45.992  15.017  20.804  0.00  0.00    +0.216 A 
BRANCH  15  16
ATOM     16  O   UNL     1      44.025  19.520  19.711  0.00  0.00    -0.290 OA
ATOM     17  C   UNL     1      43.076  20.089  18.806  0.00  0.00    +0.246 C 
ENDBRANCH  15  16
BRANCH  19  20
ATOM     20  O   UNL     1      43.645  17.744  21.407  0.00  0.00    -0.282 OA
ATOM     21  C   UNL     1      42.729  17.048  22.255  0.00  0.00    +0.248 C 
ENDBRANCH  19  20
BRANCH  23  24
ATOM     24  O   UNL     1      46.297  13.806  21.337  0.00  0.00    -0.309 OA
ATOM     25  C   UNL     1      45.338  13.227  22.224  0.00  0.00    +0.246 C 
ENDBRANCH  23  24
ENDBRANCH   9  10
BRANCH   6   7
ATOM      7  O   UNL     1      49.354  15.541  20.690  0.00  0.00    -0.482 OA
ATOM      8  H   UNL     1      48.651  16.175  20.891  0.00  0.00    +0.401 HD
ENDBRANCH   6   7
BRANCH  26  27
ATOM     27  O   UNL     1      46.263  13.759  17.516  0.00  0.00    -0.325 OA
ATOM     28  C   UNL     1      45.419  12.713  17.999  0.00  0.00    +0.235 C 
ENDBRANCH  26  27
TORSDOF 6
ENDMDL
