MODEL 1
REMARK VINA RESULT:      -5.9      0.000      0.000
REMARK  Name = ZINC95485999
REMARK  10 active torsions:
REMARK  status: ('A' for Active; 'I' for Inactive)
REMARK    1  A    between atoms: C1_1  and  C2_2
REMARK    2  A    between atoms: C6_6  and  C22_30
REMARK    3  A    between atoms: C6_6  and  O5_31
REMARK    4  A    between atoms: C8_8  and  O4_29
REMARK    5  A    between atoms: C10_12  and  O2_24
REMARK    6  A    between atoms: C11_14  and  O1_16
REMARK    7  A    between atoms: O1_16  and  C12_17
REMARK    8  A    between atoms: C12_17  and  C13_18
REMARK    9  A    between atoms: C19_25  and  C20_27
REMARK   10  A    between atoms: C19_25  and  C21_28
REMARK                            x       y       z     vdW  Elec       q    Type
REMARK                         _______ _______ _______ _____ _____    ______ ____
ROOT
ATOM      1  C   UNL     1      46.210  22.043  18.717  0.00  0.00    +0.041 C 
ATOM      2  C   UNL     1      46.411  20.847  19.654  0.00  0.00    -0.065 C 
ATOM      3  C   UNL     1      47.617  21.125  20.562  0.00  0.00    +0.047 C 
ATOM      4  C   UNL     1      47.308  22.298  21.489  0.00  0.00    +0.007 C 
ATOM      5  C   UNL     1      46.134  21.943  22.396  0.00  0.00    -0.004 C 
ATOM      6  C   UNL     1      44.890  21.584  21.581  0.00  0.00    +0.156 C 
ATOM      9  C   UNL     1      44.256  22.848  21.011  0.00  0.00    +0.019 C 
ATOM     10  C   UNL     1      46.733  19.620  18.791  0.00  0.00    +0.130 C 
ATOM     19  C   UNL     1      45.510  18.939  18.211  0.00  0.00    +0.163 C 
ATOM     22  C   UNL     1      44.323  18.824  19.164  0.00  0.00    -0.033 C 
ATOM     23  C   UNL     1      44.734  18.237  20.527  0.00  0.00    +0.131 C 
ATOM     24  C   UNL     1      43.484  17.887  21.351  0.00  0.00    +0.019 C 
ATOM     25  C   UNL     1      45.571  16.968  20.395  0.00  0.00    +0.053 C 
ATOM     26  O   UNL     1      45.460  19.285  21.182  0.00  0.00    -0.329 OA
ATOM     27  C   UNL     1      43.990  20.296  19.590  0.00  0.00    +0.153 C 
ATOM     30  C   UNL     1      45.191  20.549  20.523  0.00  0.00    +0.162 C 
ENDROOT
BRANCH   6   7
ATOM      7  O   UNL     1      43.943  21.005  22.505  0.00  0.00    -0.538 OA
ATOM      8  H   UNL     1      44.113  20.075  22.710  0.00  0.00    +0.364 HD
ENDBRANCH   6   7
BRANCH  19  20
ATOM     20  O   UNL     1      45.857  17.666  17.658  0.00  0.00    -0.546 OA
ATOM     21  H   UNL     1      46.724  17.646  17.231  0.00  0.00    +0.373 HD
ENDBRANCH  19  20
BRANCH  27  28
ATOM     28  O   UNL     1      42.726  20.378  20.248  0.00  0.00    -0.522 OA
ATOM     29  H   UNL     1      42.646  21.129  20.852  0.00  0.00    +0.373 HD
ENDBRANCH  27  28
BRANCH  10  11
ATOM     11  O   UNL     1      47.576  18.715  19.492  0.00  0.00    -0.331 OA
BRANCH  11  12
ATOM     12  C   UNL     1      48.731  18.309  18.758  0.00  0.00    +0.206 C 
BRANCH  12  13
ATOM     13  C   UNL     1      49.859  19.273  19.024  0.00  0.00    -0.088 A 
ATOM     14  C   UNL     1      50.144  20.272  18.112  0.00  0.00    +0.024 A 
ATOM     15  C   UNL     1      51.179  21.156  18.356  0.00  0.00    -0.001 A 
ATOM     16  C   UNL     1      51.928  21.042  19.512  0.00  0.00    +0.009 A 
ATOM     17  C   UNL     1      51.642  20.043  20.425  0.00  0.00    -0.001 A 
ATOM     18  C   UNL     1      50.605  19.162  20.182  0.00  0.00    +0.026 A 
ENDBRANCH  12  13
ENDBRANCH  11  12
ENDBRANCH  10  11
TORSDOF 6
ENDMDL
MODEL 2
REMARK VINA RESULT:      -5.6      1.468      2.040
REMARK  Name = ZINC95485999
REMARK  10 active torsions:
REMARK  status: ('A' for Active; 'I' for Inactive)
REMARK    1  A    between atoms: C1_1  and  C2_2
REMARK    2  A    between atoms: C6_6  and  C22_30
REMARK    3  A    between atoms: C6_6  and  O5_31
REMARK    4  A    between atoms: C8_8  and  O4_29
REMARK    5  A    between atoms: C10_12  and  O2_24
REMARK    6  A    between atoms: C11_14  and  O1_16
REMARK    7  A    between atoms: O1_16  and  C12_17
REMARK    8  A    between atoms: C12_17  and  C13_18
REMARK    9  A    between atoms: C19_25  and  C20_27
REMARK   10  A    between atoms: C19_25  and  C21_28
REMARK                            x       y       z     vdW  Elec       q    Type
REMARK                         _______ _______ _______ _____ _____    ______ ____
ROOT
ATOM      1  C   UNL     1      46.509  20.755  18.755  0.00  0.00    +0.041 C 
ATOM      2  C   UNL     1      46.360  20.028  20.095  0.00  0.00    -0.065 C 
ATOM      3  C   UNL     1      47.596  20.321  20.959  0.00  0.00    +0.047 C 
ATOM      4  C   UNL     1      47.634  21.803  21.322  0.00  0.00    +0.007 C 
ATOM      5  C   UNL     1      46.408  22.162  22.155  0.00  0.00    -0.004 C 
ATOM      6  C   UNL     1      45.113  21.847  21.404  0.00  0.00    +0.156 C 
ATOM      9  C   UNL     1      44.867  22.893  20.324  0.00  0.00    +0.019 C 
ATOM     10  C   UNL     1      46.318  18.521  19.813  0.00  0.00    +0.130 C 
ATOM     19  C   UNL     1      44.952  18.011  19.404  0.00  0.00    +0.163 C 
ATOM     22  C   UNL     1      43.781  18.603  20.185  0.00  0.00    -0.033 C 
ATOM     23  C   UNL     1      44.008  18.526  21.707  0.00  0.00    +0.131 C 
ATOM     24  C   UNL     1      42.710  18.876  22.454  0.00  0.00    +0.019 C 
ATOM     25  C   UNL     1      44.448  17.140  22.170  0.00  0.00    +0.053 C 
ATOM     26  O   UNL     1      45.003  19.519  21.988  0.00  0.00    -0.329 OA
ATOM     27  C   UNL     1      43.882  20.153  19.972  0.00  0.00    +0.153 C 
ATOM     30  C   UNL     1      45.106  20.434  20.867  0.00  0.00    +0.162 C 
ENDROOT
BRANCH   6   7
ATOM      7  O   UNL     1      44.041  21.956  22.365  0.00  0.00    -0.538 OA
ATOM      8  H   UNL     1      43.607  22.820  22.374  0.00  0.00    +0.364 HD
ENDBRANCH   6   7
BRANCH  19  20
ATOM     20  O   UNL     1      44.920  16.581  19.427  0.00  0.00    -0.546 OA
ATOM     21  H   UNL     1      45.773  16.172  19.628  0.00  0.00    +0.373 HD
ENDBRANCH  19  20
BRANCH  27  28
ATOM     28  O   UNL     1      42.695  20.819  20.399  0.00  0.00    -0.522 OA
ATOM     29  H   UNL     1      42.204  21.245  19.683  0.00  0.00    +0.373 HD
ENDBRANCH  27  28
BRANCH  10  11
ATOM     11  O   UNL     1      46.867  17.787  20.900  0.00  0.00    -0.331 OA
BRANCH  11  12
ATOM     12  C   UNL     1      47.750  16.737  20.505  0.00  0.00    +0.206 C 
BRANCH  12  13
ATOM     13  C   UNL     1      48.677  17.238  19.427  0.00  0.00    -0.088 A 
ATOM     14  C   UNL     1      49.812  17.951  19.768  0.00  0.00    +0.024 A 
ATOM     15  C   UNL     1      50.662  18.411  18.779  0.00  0.00    -0.001 A 
ATOM     16  C   UNL     1      50.378  18.157  17.450  0.00  0.00    +0.009 A 
ATOM     17  C   UNL     1      49.244  17.443  17.110  0.00  0.00    -0.001 A 
ATOM     18  C   UNL     1      48.396  16.980  18.099  0.00  0.00    +0.026 A 
ENDBRANCH  12  13
ENDBRANCH  11  12
ENDBRANCH  10  11
TORSDOF 6
ENDMDL
MODEL 3
REMARK VINA RESULT:      -5.5      3.109      4.613
REMARK  Name = ZINC95485999
REMARK  10 active torsions:
REMARK  status: ('A' for Active; 'I' for Inactive)
REMARK    1  A    between atoms: C1_1  and  C2_2
REMARK    2  A    between atoms: C6_6  and  C22_30
REMARK    3  A    between atoms: C6_6  and  O5_31
REMARK    4  A    between atoms: C8_8  and  O4_29
REMARK    5  A    between atoms: C10_12  and  O2_24
REMARK    6  A    between atoms: C11_14  and  O1_16
REMARK    7  A    between atoms: O1_16  and  C12_17
REMARK    8  A    between atoms: C12_17  and  C13_18
REMARK    9  A    between atoms: C19_25  and  C20_27
REMARK   10  A    between atoms: C19_25  and  C21_28
REMARK                            x       y       z     vdW  Elec       q    Type
REMARK                         _______ _______ _______ _____ _____    ______ ____
ROOT
ATOM      1  C   UNL     1      46.866  17.721  17.080  0.00  0.00    +0.041 C 
ATOM      2  C   UNL     1      47.818  17.047  18.073  0.00  0.00    -0.065 C 
ATOM      3  C   UNL     1      48.622  18.131  18.804  0.00  0.00    +0.047 C 
ATOM      4  C   UNL     1      47.688  18.973  19.670  0.00  0.00    +0.007 C 
ATOM      5  C   UNL     1      47.043  18.095  20.737  0.00  0.00    -0.004 C 
ATOM      6  C   UNL     1      46.264  16.937  20.109  0.00  0.00    +0.156 C 
ATOM      9  C   UNL     1      44.951  17.445  19.525  0.00  0.00    +0.019 C 
ATOM     10  C   UNL     1      48.799  16.179  17.274  0.00  0.00    +0.130 C 
ATOM     19  C   UNL     1      48.252  14.817  16.900  0.00  0.00    +0.163 C 
ATOM     22  C   UNL     1      47.447  14.123  17.996  0.00  0.00    -0.033 C 
ATOM     23  C   UNL     1      48.200  14.108  19.340  0.00  0.00    +0.131 C 
ATOM     24  C   UNL     1      47.488  13.175  20.335  0.00  0.00    +0.019 C 
ATOM     25  C   UNL     1      49.641  13.626  19.205  0.00  0.00    +0.053 C 
ATOM     26  O   UNL     1      48.134  15.457  19.821  0.00  0.00    -0.329 OA
ATOM     27  C   UNL     1      46.283  15.113  18.346  0.00  0.00    +0.153 C 
ATOM     30  C   UNL     1      47.099  16.179  19.104  0.00  0.00    +0.162 C 
ENDROOT
BRANCH   6   7
ATOM      7  O   UNL     1      45.938  16.028  21.183  0.00  0.00    -0.538 OA
ATOM      8  H   UNL     1      46.217  15.116  21.025  0.00  0.00    +0.364 HD
ENDBRANCH   6   7
BRANCH  19  20
ATOM     20  O   UNL     1      49.295  13.972  16.408  0.00  0.00    -0.546 OA
ATOM     21  H   UNL     1      49.849  13.588  17.102  0.00  0.00    +0.373 HD
ENDBRANCH  19  20
BRANCH  27  28
ATOM     28  O   UNL     1      45.281  14.485  19.145  0.00  0.00    -0.522 OA
ATOM     29  H   UNL     1      45.586  13.690  19.603  0.00  0.00    +0.373 HD
ENDBRANCH  27  28
BRANCH  10  11
ATOM     11  O   UNL     1      50.056  16.096  17.935  0.00  0.00    -0.331 OA
BRANCH  11  12
ATOM     12  C   UNL     1      51.178  16.302  17.077  0.00  0.00    +0.206 C 
BRANCH  12  13
ATOM     13  C   UNL     1      51.582  17.754  17.118  0.00  0.00    -0.088 A 
ATOM     14  C   UNL     1      51.297  18.582  16.048  0.00  0.00    +0.024 A 
ATOM     15  C   UNL     1      51.668  19.913  16.086  0.00  0.00    -0.001 A 
ATOM     16  C   UNL     1      52.321  20.417  17.194  0.00  0.00    +0.009 A 
ATOM     17  C   UNL     1      52.605  19.590  18.265  0.00  0.00    -0.001 A 
ATOM     18  C   UNL     1      52.231  18.260  18.228  0.00  0.00    +0.026 A 
ENDBRANCH  12  13
ENDBRANCH  11  12
ENDBRANCH  10  11
TORSDOF 6
ENDMDL
MODEL 4
REMARK VINA RESULT:      -5.5      2.180      6.285
REMARK  Name = ZINC95485999
REMARK  10 active torsions:
REMARK  status: ('A' for Active; 'I' for Inactive)
REMARK    1  A    between atoms: C1_1  and  C2_2
REMARK    2  A    between atoms: C6_6  and  C22_30
REMARK    3  A    between atoms: C6_6  and  O5_31
REMARK    4  A    between atoms: C8_8  and  O4_29
REMARK    5  A    between atoms: C10_12  and  O2_24
REMARK    6  A    between atoms: C11_14  and  O1_16
REMARK    7  A    between atoms: O1_16  and  C12_17
REMARK    8  A    between atoms: C12_17  and  C13_18
REMARK    9  A    between atoms: C19_25  and  C20_27
REMARK   10  A    between atoms: C19_25  and  C21_28
REMARK                            x       y       z     vdW  Elec       q    Type
REMARK                         _______ _______ _______ _____ _____    ______ ____
ROOT
ATOM      1  C   UNL     1      50.619  19.811  20.503  0.00  0.00    +0.041 C 
ATOM      2  C   UNL     1      49.697  19.579  19.302  0.00  0.00    -0.065 C 
ATOM      3  C   UNL     1      49.706  20.835  18.419  0.00  0.00    +0.047 C 
ATOM      4  C   UNL     1      51.094  21.031  17.812  0.00  0.00    +0.007 C 
ATOM      5  C   UNL     1      51.436  19.846  16.914  0.00  0.00    -0.004 C 
ATOM      6  C   UNL     1      51.391  18.529  17.690  0.00  0.00    +0.156 C 
ATOM      9  C   UNL     1      52.625  18.401  18.576  0.00  0.00    +0.019 C 
ATOM     10  C   UNL     1      48.272  19.377  19.833  0.00  0.00    +0.130 C 
ATOM     19  C   UNL     1      47.986  17.966  20.304  0.00  0.00    +0.163 C 
ATOM     22  C   UNL     1      48.560  16.862  19.418  0.00  0.00    -0.033 C 
ATOM     23  C   UNL     1      48.204  17.072  17.935  0.00  0.00    +0.131 C 
ATOM     24  C   UNL     1      48.560  15.815  17.122  0.00  0.00    +0.019 C 
ATOM     25  C   UNL     1      46.721  17.358  17.717  0.00  0.00    +0.053 C 
ATOM     26  O   UNL     1      49.023  18.166  17.504  0.00  0.00    -0.329 OA
ATOM     27  C   UNL     1      50.104  17.130  19.370  0.00  0.00    +0.153 C 
ATOM     30  C   UNL     1      50.099  18.372  18.457  0.00  0.00    +0.162 C 
ENDROOT
BRANCH   6   7
ATOM      7  O   UNL     1      51.451  17.470  16.710  0.00  0.00    -0.538 OA
ATOM      8  H   UNL     1      50.744  17.504  16.051  0.00  0.00    +0.364 HD
ENDBRANCH   6   7
BRANCH  19  20
ATOM     20  O   UNL     1      46.585  17.781  20.521  0.00  0.00    -0.546 OA
ATOM     21  H   UNL     1      46.183  18.453  21.088  0.00  0.00    +0.373 HD
ENDBRANCH  19  20
BRANCH  27  28
ATOM     28  O   UNL     1      50.812  16.019  18.821  0.00  0.00    -0.522 OA
ATOM     29  H   UNL     1      51.369  15.553  19.459  0.00  0.00    +0.373 HD
ENDBRANCH  27  28
BRANCH  10  11
ATOM     11  O   UNL     1      47.311  19.839  18.892  0.00  0.00    -0.331 OA
BRANCH  11  12
ATOM     12  C   UNL     1      46.811  21.148  19.168  0.00  0.00    +0.206 C 
BRANCH  12  13
ATOM     13  C   UNL     1      45.304  21.122  19.160  0.00  0.00    -0.088 A 
ATOM     14  C   UNL     1      44.633  19.995  18.724  0.00  0.00    +0.024 A 
ATOM     15  C   UNL     1      43.251  19.972  18.717  0.00  0.00    -0.001 A 
ATOM     16  C   UNL     1      42.539  21.075  19.147  0.00  0.00    +0.009 A 
ATOM     17  C   UNL     1      43.209  22.203  19.585  0.00  0.00    -0.001 A 
ATOM     18  C   UNL     1      44.591  22.224  19.595  0.00  0.00    +0.026 A 
ENDBRANCH  12  13
ENDBRANCH  11  12
ENDBRANCH  10  11
TORSDOF 6
ENDMDL
MODEL 5
REMARK VINA RESULT:      -5.3      4.132      6.157
REMARK  Name = ZINC95485999
REMARK  10 active torsions:
REMARK  status: ('A' for Active; 'I' for Inactive)
REMARK    1  A    between atoms: C1_1  and  C2_2
REMARK    2  A    between atoms: C6_6  and  C22_30
REMARK    3  A    between atoms: C6_6  and  O5_31
REMARK    4  A    between atoms: C8_8  and  O4_29
REMARK    5  A    between atoms: C10_12  and  O2_24
REMARK    6  A    between atoms: C11_14  and  O1_16
REMARK    7  A    between atoms: O1_16  and  C12_17
REMARK    8  A    between atoms: C12_17  and  C13_18
REMARK    9  A    between atoms: C19_25  and  C20_27
REMARK   10  A    between atoms: C19_25  and  C21_28
REMARK                            x       y       z     vdW  Elec       q    Type
REMARK                         _______ _______ _______ _____ _____    ______ ____
ROOT
ATOM      1  C   UNL     1      47.704  14.218  16.507  0.00  0.00    +0.041 C 
ATOM      2  C   UNL     1      48.298  15.165  17.554  0.00  0.00    -0.065 C 
ATOM      3  C   UNL     1      47.819  16.594  17.259  0.00  0.00    +0.047 C 
ATOM      4  C   UNL     1      46.309  16.687  17.462  0.00  0.00    +0.007 C 
ATOM      5  C   UNL     1      45.965  16.388  18.918  0.00  0.00    -0.004 C 
ATOM      6  C   UNL     1      46.460  15.002  19.334  0.00  0.00    +0.156 C 
ATOM      9  C   UNL     1      45.554  13.926  18.747  0.00  0.00    +0.019 C 
ATOM     10  C   UNL     1      49.825  15.132  17.409  0.00  0.00    +0.130 C 
ATOM     19  C   UNL     1      50.483  13.965  18.116  0.00  0.00    +0.163 C 
ATOM     22  C   UNL     1      49.909  13.638  19.493  0.00  0.00    -0.033 C 
ATOM     23  C   UNL     1      49.810  14.889  20.386  0.00  0.00    +0.131 C 
ATOM     24  C   UNL     1      49.489  14.481  21.834  0.00  0.00    +0.019 C 
ATOM     25  C   UNL     1      51.100  15.702  20.410  0.00  0.00    +0.053 C 
ATOM     26  O   UNL     1      48.716  15.645  19.851  0.00  0.00    -0.329 OA
ATOM     27  C   UNL     1      48.386  13.353  19.251  0.00  0.00    +0.153 C 
ATOM     30  C   UNL     1      47.916  14.798  18.986  0.00  0.00    +0.162 C 
ENDROOT
BRANCH   6   7
ATOM      7  O   UNL     1      46.338  14.934  20.771  0.00  0.00    -0.538 OA
ATOM      8  H   UNL     1      45.646  15.503  21.135  0.00  0.00    +0.364 HD
ENDBRANCH   6   7
BRANCH  19  20
ATOM     20  O   UNL     1      51.900  14.145  18.175  0.00  0.00    -0.546 OA
ATOM     21  H   UNL     1      52.296  14.423  17.338  0.00  0.00    +0.373 HD
ENDBRANCH  19  20
BRANCH  27  28
ATOM     28  O   UNL     1      47.777  12.753  20.392  0.00  0.00    -0.522 OA
ATOM     29  H   UNL     1      48.362  12.162  20.885  0.00  0.00    +0.373 HD
ENDBRANCH  27  28
BRANCH  10  11
ATOM     11  O   UNL     1      50.396  16.381  17.778  0.00  0.00    -0.331 OA
BRANCH  11  12
ATOM     12  C   UNL     1      51.274  16.930  16.796  0.00  0.00    +0.206 C 
BRANCH  12  13
ATOM     13  C   UNL     1      51.279  18.433  16.910  0.00  0.00    -0.088 A 
ATOM     14  C   UNL     1      50.651  19.048  17.978  0.00  0.00    +0.024 A 
ATOM     15  C   UNL     1      50.655  20.426  18.082  0.00  0.00    -0.001 A 
ATOM     16  C   UNL     1      51.288  21.190  17.120  0.00  0.00    +0.009 A 
ATOM     17  C   UNL     1      51.917  20.576  16.052  0.00  0.00    -0.001 A 
ATOM     18  C   UNL     1      51.915  19.198  15.950  0.00  0.00    +0.026 A 
ENDBRANCH  12  13
ENDBRANCH  11  12
ENDBRANCH  10  11
TORSDOF 6
ENDMDL
MODEL 6
REMARK VINA RESULT:      -5.3      1.919      3.019
REMARK  Name = ZINC95485999
REMARK  10 active torsions:
REMARK  status: ('A' for Active; 'I' for Inactive)
REMARK    1  A    between atoms: C1_1  and  C2_2
REMARK    2  A    between atoms: C6_6  and  C22_30
REMARK    3  A    between atoms: C6_6  and  O5_31
REMARK    4  A    between atoms: C8_8  and  O4_29
REMARK    5  A    between atoms: C10_12  and  O2_24
REMARK    6  A    between atoms: C11_14  and  O1_16
REMARK    7  A    between atoms: O1_16  and  C12_17
REMARK    8  A    between atoms: C12_17  and  C13_18
REMARK    9  A    between atoms: C19_25  and  C20_27
REMARK   10  A    between atoms: C19_25  and  C21_28
REMARK                            x       y       z     vdW  Elec       q    Type
REMARK                         _______ _______ _______ _____ _____    ______ ____
ROOT
ATOM      1  C   UNL     1      45.817  18.825  17.837  0.00  0.00    +0.041 C 
ATOM      2  C   UNL     1      46.845  18.627  18.955  0.00  0.00    -0.065 C 
ATOM      3  C   UNL     1      47.589  19.950  19.186  0.00  0.00    +0.047 C 
ATOM      4  C   UNL     1      46.622  20.999  19.729  0.00  0.00    +0.007 C 
ATOM      5  C   UNL     1      46.076  20.548  21.079  0.00  0.00    -0.004 C 
ATOM      6  C   UNL     1      45.366  19.197  20.969  0.00  0.00    +0.156 C 
ATOM      9  C   UNL     1      44.002  19.375  20.313  0.00  0.00    +0.019 C 
ATOM     10  C   UNL     1      47.863  17.581  18.481  0.00  0.00    +0.130 C 
ATOM     19  C   UNL     1      47.406  16.149  18.670  0.00  0.00    +0.163 C 
ATOM     22  C   UNL     1      46.688  15.870  19.988  0.00  0.00    -0.033 C 
ATOM     23  C   UNL     1      47.480  16.401  21.198  0.00  0.00    +0.131 C 
ATOM     24  C   UNL     1      46.869  15.868  22.505  0.00  0.00    +0.019 C 
ATOM     25  C   UNL     1      48.948  15.987  21.171  0.00  0.00    +0.053 C 
ATOM     26  O   UNL     1      47.330  17.825  21.147  0.00  0.00    -0.329 OA
ATOM     27  C   UNL     1      45.465  16.851  20.010  0.00  0.00    +0.153 C 
ATOM     30  C   UNL     1      46.224  18.167  20.272  0.00  0.00    +0.162 C 
ENDROOT
BRANCH   6   7
ATOM      7  O   UNL     1      45.140  18.739  22.320  0.00  0.00    -0.538 OA
ATOM      8  H   UNL     1      45.843  18.978  22.939  0.00  0.00    +0.364 HD
ENDBRANCH   6   7
BRANCH  19  20
ATOM     20  O   UNL     1      48.493  15.242  18.469  0.00  0.00    -0.546 OA
ATOM     21  H   UNL     1      48.901  15.305  17.595  0.00  0.00    +0.373 HD
ENDBRANCH  19  20
BRANCH  27  28
ATOM     28  O   UNL     1      44.537  16.510  21.039  0.00  0.00    -0.522 OA
ATOM     29  H   UNL     1      44.080  15.671  20.894  0.00  0.00    +0.373 HD
ENDBRANCH  27  28
BRANCH  10  11
ATOM     11  O   UNL     1      49.141  17.822  19.055  0.00  0.00    -0.331 OA
BRANCH  11  12
ATOM     12  C   UNL     1      50.234  17.511  18.190  0.00  0.00    +0.206 C 
BRANCH  12  13
ATOM     13  C   UNL     1      50.746  18.777  17.552  0.00  0.00    -0.088 A 
ATOM     14  C   UNL     1      50.734  19.964  18.262  0.00  0.00    +0.024 A 
ATOM     15  C   UNL     1      51.203  21.125  17.677  0.00  0.00    -0.001 A 
ATOM     16  C   UNL     1      51.686  21.099  16.382  0.00  0.00    +0.009 A 
ATOM     17  C   UNL     1      51.700  19.913  15.672  0.00  0.00    -0.001 A 
ATOM     18  C   UNL     1      51.234  18.752  16.259  0.00  0.00    +0.026 A 
ENDBRANCH  12  13
ENDBRANCH  11  12
ENDBRANCH  10  11
TORSDOF 6
ENDMDL
MODEL 7
REMARK VINA RESULT:      -5.3      3.116      5.188
REMARK  Name = ZINC95485999
REMARK  10 active torsions:
REMARK  status: ('A' for Active; 'I' for Inactive)
REMARK    1  A    between atoms: C1_1  and  C2_2
REMARK    2  A    between atoms: C6_6  and  C22_30
REMARK    3  A    between atoms: C6_6  and  O5_31
REMARK    4  A    between atoms: C8_8  and  O4_29
REMARK    5  A    between atoms: C10_12  and  O2_24
REMARK    6  A    between atoms: C11_14  and  O1_16
REMARK    7  A    between atoms: O1_16  and  C12_17
REMARK    8  A    between atoms: C12_17  and  C13_18
REMARK    9  A    between atoms: C19_25  and  C20_27
REMARK   10  A    between atoms: C19_25  and  C21_28
REMARK                            x       y       z     vdW  Elec       q    Type
REMARK                         _______ _______ _______ _____ _____    ______ ____
ROOT
ATOM      1  C   UNL     1      46.843  16.777  22.150  0.00  0.00    +0.041 C 
ATOM      2  C   UNL     1      47.685  16.553  20.890  0.00  0.00    -0.065 C 
ATOM      3  C   UNL     1      49.148  16.339  21.303  0.00  0.00    +0.047 C 
ATOM      4  C   UNL     1      49.278  15.039  22.093  0.00  0.00    +0.007 C 
ATOM      5  C   UNL     1      48.881  13.858  21.214  0.00  0.00    -0.004 C 
ATOM      6  C   UNL     1      47.450  14.008  20.695  0.00  0.00    +0.156 C 
ATOM      9  C   UNL     1      46.455  13.701  21.808  0.00  0.00    +0.019 C 
ATOM     10  C   UNL     1      47.608  17.827  20.038  0.00  0.00    +0.130 C 
ATOM     19  C   UNL     1      46.368  17.914  19.173  0.00  0.00    +0.163 C 
ATOM     22  C   UNL     1      45.956  16.605  18.502  0.00  0.00    -0.033 C 
ATOM     23  C   UNL     1      47.137  15.936  17.775  0.00  0.00    +0.131 C 
ATOM     24  C   UNL     1      46.630  14.780  16.895  0.00  0.00    +0.019 C 
ATOM     25  C   UNL     1      47.900  16.902  16.873  0.00  0.00    +0.053 C 
ATOM     26  O   UNL     1      47.971  15.412  18.816  0.00  0.00    -0.329 OA
ATOM     27  C   UNL     1      45.745  15.586  19.676  0.00  0.00    +0.153 C 
ATOM     30  C   UNL     1      47.222  15.359  20.058  0.00  0.00    +0.162 C 
ENDROOT
BRANCH   6   7
ATOM      7  O   UNL     1      47.276  13.005  19.670  0.00  0.00    -0.538 OA
ATOM      8  H   UNL     1      48.017  12.389  19.593  0.00  0.00    +0.364 HD
ENDBRANCH   6   7
BRANCH  19  20
ATOM     20  O   UNL     1      46.493  18.969  18.217  0.00  0.00    -0.546 OA
ATOM     21  H   UNL     1      47.389  19.323  18.137  0.00  0.00    +0.373 HD
ENDBRANCH  19  20
BRANCH  27  28
ATOM     28  O   UNL     1      45.081  14.405  19.231  0.00  0.00    -0.522 OA
ATOM     29  H   UNL     1      44.127  14.408  19.388  0.00  0.00    +0.373 HD
ENDBRANCH  27  28
BRANCH  10  11
ATOM     11  O   UNL     1      48.804  18.008  19.290  0.00  0.00    -0.331 OA
BRANCH  11  12
ATOM     12  C   UNL     1      49.435  19.272  19.501  0.00  0.00    +0.206 C 
BRANCH  12  13
ATOM     13  C   UNL     1      50.344  19.580  18.339  0.00  0.00    -0.088 A 
ATOM     14  C   UNL     1      50.927  18.550  17.625  0.00  0.00    +0.024 A 
ATOM     15  C   UNL     1      51.761  18.834  16.559  0.00  0.00    -0.001 A 
ATOM     16  C   UNL     1      52.009  20.147  16.206  0.00  0.00    +0.009 A 
ATOM     17  C   UNL     1      51.425  21.177  16.919  0.00  0.00    -0.001 A 
ATOM     18  C   UNL     1      50.589  20.893  17.983  0.00  0.00    +0.026 A 
ENDBRANCH  12  13
ENDBRANCH  11  12
ENDBRANCH  10  11
TORSDOF 6
ENDMDL
MODEL 8
REMARK VINA RESULT:      -5.2      2.587      6.542
REMARK  Name = ZINC95485999
REMARK  10 active torsions:
REMARK  status: ('A' for Active; 'I' for Inactive)
REMARK    1  A    between atoms: C1_1  and  C2_2
REMARK    2  A    between atoms: C6_6  and  C22_30
REMARK    3  A    between atoms: C6_6  and  O5_31
REMARK    4  A    between atoms: C8_8  and  O4_29
REMARK    5  A    between atoms: C10_12  and  O2_24
REMARK    6  A    between atoms: C11_14  and  O1_16
REMARK    7  A    between atoms: O1_16  and  C12_17
REMARK    8  A    between atoms: C12_17  and  C13_18
REMARK    9  A    between atoms: C19_25  and  C20_27
REMARK   10  A    between atoms: C19_25  and  C21_28
REMARK                            x       y       z     vdW  Elec       q    Type
REMARK                         _______ _______ _______ _____ _____    ______ ____
ROOT
ATOM      1  C   UNL     1      50.684  19.428  20.733  0.00  0.00    +0.041 C 
ATOM      2  C   UNL     1      50.049  18.892  19.446  0.00  0.00    -0.065 C 
ATOM      3  C   UNL     1      49.187  19.996  18.820  0.00  0.00    +0.047 C 
ATOM      4  C   UNL     1      50.075  21.151  18.365  0.00  0.00    +0.007 C 
ATOM      5  C   UNL     1      51.038  20.667  17.286  0.00  0.00    -0.004 C 
ATOM      6  C   UNL     1      51.907  19.514  17.792  0.00  0.00    +0.156 C 
ATOM      9  C   UNL     1      52.989  20.045  18.725  0.00  0.00    +0.019 C 
ATOM     10  C   UNL     1      49.131  17.721  19.823  0.00  0.00    +0.130 C 
ATOM     19  C   UNL     1      49.856  16.403  19.996  0.00  0.00    +0.163 C 
ATOM     22  C   UNL     1      50.944  16.124  18.961  0.00  0.00    -0.033 C 
ATOM     23  C   UNL     1      50.436  16.335  17.522  0.00  0.00    +0.131 C 
ATOM     24  C   UNL     1      51.462  15.789  16.514  0.00  0.00    +0.019 C 
ATOM     25  C   UNL     1      49.108  15.633  17.255  0.00  0.00    +0.053 C 
ATOM     26  O   UNL     1      50.326  17.755  17.368  0.00  0.00    -0.329 OA
ATOM     27  C   UNL     1      51.943  17.327  19.077  0.00  0.00    +0.153 C 
ATOM     30  C   UNL     1      51.076  18.418  18.419  0.00  0.00    +0.162 C 
ENDROOT
BRANCH   6   7
ATOM      7  O   UNL     1      52.568  18.956  16.635  0.00  0.00    -0.538 OA
ATOM      8  H   UNL     1      52.071  18.249  16.202  0.00  0.00    +0.364 HD
ENDBRANCH   6   7
BRANCH  19  20
ATOM     20  O   UNL     1      48.923  15.321  20.071  0.00  0.00    -0.546 OA
ATOM     21  H   UNL     1      48.692  14.941  19.213  0.00  0.00    +0.373 HD
ENDBRANCH  19  20
BRANCH  27  28
ATOM     28  O   UNL     1      53.161  17.066  18.381  0.00  0.00    -0.522 OA
ATOM     29  H   UNL     1      53.886  16.778  18.951  0.00  0.00    +0.373 HD
ENDBRANCH  27  28
BRANCH  10  11
ATOM     11  O   UNL     1      48.038  17.625  18.920  0.00  0.00    -0.331 OA
BRANCH  11  12
ATOM     12  C   UNL     1      46.766  17.498  19.558  0.00  0.00    +0.206 C 
BRANCH  12  13
ATOM     13  C   UNL     1      46.143  18.861  19.713  0.00  0.00    -0.088 A 
ATOM     14  C   UNL     1      46.111  19.470  20.954  0.00  0.00    +0.024 A 
ATOM     15  C   UNL     1      45.539  20.721  21.096  0.00  0.00    -0.001 A 
ATOM     16  C   UNL     1      45.001  21.363  19.997  0.00  0.00    +0.009 A 
ATOM     17  C   UNL     1      45.035  20.756  18.755  0.00  0.00    -0.001 A 
ATOM     18  C   UNL     1      45.609  19.507  18.614  0.00  0.00    +0.026 A 
ENDBRANCH  12  13
ENDBRANCH  11  12
ENDBRANCH  10  11
TORSDOF 6
ENDMDL
MODEL 9
REMARK VINA RESULT:      -5.2     20.263     22.691
REMARK  Name = ZINC95485999
REMARK  10 active torsions:
REMARK  status: ('A' for Active; 'I' for Inactive)
REMARK    1  A    between atoms: C1_1  and  C2_2
REMARK    2  A    between atoms: C6_6  and  C22_30
REMARK    3  A    between atoms: C6_6  and  O5_31
REMARK    4  A    between atoms: C8_8  and  O4_29
REMARK    5  A    between atoms: C10_12  and  O2_24
REMARK    6  A    between atoms: C11_14  and  O1_16
REMARK    7  A    between atoms: O1_16  and  C12_17
REMARK    8  A    between atoms: C12_17  and  C13_18
REMARK    9  A    between atoms: C19_25  and  C20_27
REMARK   10  A    between atoms: C19_25  and  C21_28
REMARK                            x       y       z     vdW  Elec       q    Type
REMARK                         _______ _______ _______ _____ _____    ______ ____
ROOT
ATOM      1  C   UNL     1      55.141  35.376   4.732  0.00  0.00    +0.041 C 
ATOM      2  C   UNL     1      55.016  33.955   4.175  0.00  0.00    -0.065 C 
ATOM      3  C   UNL     1      55.478  32.959   5.248  0.00  0.00    +0.047 C 
ATOM      4  C   UNL     1      54.520  32.997   6.436  0.00  0.00    +0.007 C 
ATOM      5  C   UNL     1      53.127  32.564   5.989  0.00  0.00    -0.004 C 
ATOM      6  C   UNL     1      52.598  33.461   4.869  0.00  0.00    +0.156 C 
ATOM      9  C   UNL     1      52.157  34.804   5.438  0.00  0.00    +0.019 C 
ATOM     10  C   UNL     1      55.959  33.834   2.970  0.00  0.00    +0.130 C 
ATOM     19  C   UNL     1      55.379  34.373   1.679  0.00  0.00    +0.163 C 
ATOM     22  C   UNL     1      53.908  34.038   1.444  0.00  0.00    -0.033 C 
ATOM     23  C   UNL     1      53.622  32.537   1.638  0.00  0.00    +0.131 C 
ATOM     24  C   UNL     1      52.209  32.199   1.133  0.00  0.00    +0.019 C 
ATOM     25  C   UNL     1      54.607  31.646   0.887  0.00  0.00    +0.053 C 
ATOM     26  O   UNL     1      53.686  32.324   3.053  0.00  0.00    -0.329 OA
ATOM     27  C   UNL     1      53.146  34.624   2.682  0.00  0.00    +0.153 C 
ATOM     30  C   UNL     1      53.595  33.598   3.742  0.00  0.00    +0.162 C 
ENDROOT
BRANCH   6   7
ATOM      7  O   UNL     1      51.423  32.809   4.338  0.00  0.00    -0.538 OA
ATOM      8  H   UNL     1      50.723  32.670   4.990  0.00  0.00    +0.364 HD
ENDBRANCH   6   7
BRANCH  19  20
ATOM     20  O   UNL     1      56.185  33.984   0.564  0.00  0.00    -0.546 OA
ATOM     21  H   UNL     1      55.934  33.134   0.175  0.00  0.00    +0.373 HD
ENDBRANCH  19  20
BRANCH  27  28
ATOM     28  O   UNL     1      51.736  34.646   2.468  0.00  0.00    -0.522 OA
ATOM     29  H   UNL     1      51.362  35.535   2.403  0.00  0.00    +0.373 HD
ENDBRANCH  27  28
BRANCH  10  11
ATOM     11  O   UNL     1      56.439  32.502   2.835  0.00  0.00    -0.331 OA
BRANCH  11  12
ATOM     12  C   UNL     1      57.863  32.392   2.862  0.00  0.00    +0.206 C 
BRANCH  12  13
ATOM     13  C   UNL     1      58.251  30.953   3.083  0.00  0.00    -0.088 A 
ATOM     14  C   UNL     1      57.880  29.987   2.166  0.00  0.00    +0.024 A 
ATOM     15  C   UNL     1      58.237  28.667   2.370  0.00  0.00    -0.001 A 
ATOM     16  C   UNL     1      58.966  28.313   3.489  0.00  0.00    +0.009 A 
ATOM     17  C   UNL     1      59.338  29.278   4.406  0.00  0.00    -0.001 A 
ATOM     18  C   UNL     1      58.985  30.599   4.200  0.00  0.00    +0.026 A 
ENDBRANCH  12  13
ENDBRANCH  11  12
ENDBRANCH  10  11
TORSDOF 6
ENDMDL
