MODEL 1
REMARK VINA RESULT:      -6.9      0.000      0.000
REMARK  Name = ZINC95486205
REMARK  8 active torsions:
REMARK  status: ('A' for Active; 'I' for Inactive)
REMARK    1  A    between atoms: C1_1  and  C2_2
REMARK    2  A    between atoms: C4_4  and  C24_28
REMARK    3  A    between atoms: C8_8  and  O2_26
REMARK    4  A    between atoms: C9_9  and  C12_12
REMARK    5  A    between atoms: C18_18  and  C22_24
REMARK    6  A    between atoms: C18_18  and  O1_25
REMARK    7  A    between atoms: C19_20  and  C21_23
REMARK    8  A    between atoms: O2_26  and  C23_27
REMARK                            x       y       z     vdW  Elec       q    Type
REMARK                         _______ _______ _______ _____ _____    ______ ____
ROOT
ATOM     13  C   UNL     1      44.654  18.840  19.866  0.00  0.00    -0.032 A 
ATOM     14  C   UNL     1      44.121  18.026  20.864  0.00  0.00    +0.027 A 
ATOM     15  C   UNL     1      44.378  16.672  20.850  0.00  0.00    +0.001 A 
ATOM     16  C   UNL     1      45.165  16.114  19.851  0.00  0.00    -0.070 A 
ATOM     17  C   UNL     1      45.699  16.916  18.863  0.00  0.00    -0.107 A 
ATOM     18  C   UNL     1      46.567  16.355  17.768  0.00  0.00    +0.337 C 
ATOM     21  C   UNL     1      48.032  16.674  18.072  0.00  0.00    +0.040 C 
ATOM     22  N   UNL     1      46.399  14.901  17.672  0.00  0.00    -0.692 NA
ATOM     23  H   UNL     1      45.493  14.666  17.297  0.00  0.00    +0.348 HD
ATOM     24  C   UNL     1      46.601  14.277  18.989  0.00  0.00    +0.173 C 
ATOM     25  C   UNL     1      46.701  12.759  18.829  0.00  0.00    +0.042 C 
ATOM     26  C   UNL     1      45.410  14.627  19.881  0.00  0.00    +0.047 C 
ATOM     27  C   UNL     1      45.439  18.276  18.863  0.00  0.00    +0.067 A 
ENDROOT
BRANCH  13  12
ATOM      1  C   UNL     1      48.598  21.125  22.297  0.00  0.00    +0.090 C 
ATOM      2  C   UNL     1      47.332  21.623  21.648  0.00  0.00    -0.064 A 
ATOM      3  C   UNL     1      47.057  22.989  21.639  0.00  0.00    -0.007 A 
ATOM      4  C   UNL     1      45.923  23.471  21.060  0.00  0.00    -0.056 A 
ATOM      5  C   UNL     1      45.643  24.952  21.063  0.00  0.00    +0.095 C 
ATOM      6  C   UNL     1      45.015  22.581  20.462  0.00  0.00    -0.086 A 
ATOM      7  C   UNL     1      43.834  23.047  19.854  0.00  0.00    +0.073 A 
ATOM      8  C   UNL     1      42.969  22.168  19.280  0.00  0.00    -0.062 A 
ATOM      9  C   UNL     1      43.229  20.796  19.279  0.00  0.00    +0.147 A 
ATOM     12  C   UNL     1      44.382  20.296  19.868  0.00  0.00    -0.091 A 
ATOM     28  C   UNL     1      45.297  21.194  20.470  0.00  0.00    +0.009 A 
ATOM     29  C   UNL     1      46.477  20.733  21.072  0.00  0.00    +0.003 A 
BRANCH   9  10
ATOM     10  O   UNL     1      42.346  19.945  18.698  0.00  0.00    -0.304 OA
ATOM     11  C   UNL     1      41.057  20.469  18.371  0.00  0.00    +0.238 C 
ENDBRANCH   9  10
ENDBRANCH  13  12
BRANCH  18  19
ATOM     19  O   UNL     1      46.203  16.954  16.523  0.00  0.00    -0.551 OA
ATOM     20  H   UNL     1      45.591  16.423  15.995  0.00  0.00    +0.384 HD
ENDBRANCH  18  19
TORSDOF 3
ENDMDL
MODEL 2
REMARK VINA RESULT:      -6.6      1.693      3.654
REMARK  Name = ZINC95486205
REMARK  8 active torsions:
REMARK  status: ('A' for Active; 'I' for Inactive)
REMARK    1  A    between atoms: C1_1  and  C2_2
REMARK    2  A    between atoms: C4_4  and  C24_28
REMARK    3  A    between atoms: C8_8  and  O2_26
REMARK    4  A    between atoms: C9_9  and  C12_12
REMARK    5  A    between atoms: C18_18  and  C22_24
REMARK    6  A    between atoms: C18_18  and  O1_25
REMARK    7  A    between atoms: C19_20  and  C21_23
REMARK    8  A    between atoms: O2_26  and  C23_27
REMARK                            x       y       z     vdW  Elec       q    Type
REMARK                         _______ _______ _______ _____ _____    ______ ____
ROOT
ATOM     13  C   UNL     1      46.242  17.615  19.752  0.00  0.00    -0.032 A 
ATOM     14  C   UNL     1      45.556  16.763  20.618  0.00  0.00    +0.027 A 
ATOM     15  C   UNL     1      45.313  15.460  20.241  0.00  0.00    +0.001 A 
ATOM     16  C   UNL     1      45.748  14.988  19.009  0.00  0.00    -0.070 A 
ATOM     17  C   UNL     1      46.430  15.827  18.150  0.00  0.00    -0.107 A 
ATOM     18  C   UNL     1      46.929  15.354  16.810  0.00  0.00    +0.337 C 
ATOM     21  C   UNL     1      48.434  15.095  16.895  0.00  0.00    +0.040 C 
ATOM     22  N   UNL     1      46.247  14.117  16.415  0.00  0.00    -0.692 NA
ATOM     23  H   UNL     1      45.284  14.296  16.175  0.00  0.00    +0.348 HD
ATOM     24  C   UNL     1      46.345  13.115  17.488  0.00  0.00    +0.173 C 
ATOM     25  C   UNL     1      45.883  11.754  16.965  0.00  0.00    +0.042 C 
ATOM     26  C   UNL     1      45.451  13.556  18.646  0.00  0.00    +0.047 C 
ATOM     27  C   UNL     1      46.671  17.140  18.516  0.00  0.00    +0.067 A 
ENDROOT
BRANCH  13  12
ATOM      1  C   UNL     1      42.017  20.345  18.579  0.00  0.00    +0.090 C 
ATOM      2  C   UNL     1      43.352  20.685  19.191  0.00  0.00    -0.064 A 
ATOM      3  C   UNL     1      43.620  21.999  19.567  0.00  0.00    -0.007 A 
ATOM      4  C   UNL     1      44.816  22.338  20.123  0.00  0.00    -0.056 A 
ATOM      5  C   UNL     1      45.088  23.767  20.520  0.00  0.00    +0.095 C 
ATOM      6  C   UNL     1      45.795  21.350  20.323  0.00  0.00    -0.086 A 
ATOM      7  C   UNL     1      47.041  21.667  20.897  0.00  0.00    +0.073 A 
ATOM      8  C   UNL     1      47.974  20.695  21.082  0.00  0.00    -0.062 A 
ATOM      9  C   UNL     1      47.721  19.372  20.712  0.00  0.00    +0.147 A 
ATOM     12  C   UNL     1      46.506  19.019  20.143  0.00  0.00    -0.091 A 
ATOM     28  C   UNL     1      45.519  20.015  19.942  0.00  0.00    +0.009 A 
ATOM     29  C   UNL     1      44.276  19.702  19.376  0.00  0.00    +0.003 A 
BRANCH   9  10
ATOM     10  O   UNL     1      48.673  18.425  20.910  0.00  0.00    -0.304 OA
ATOM     11  C   UNL     1      49.877  18.546  20.149  0.00  0.00    +0.238 C 
ENDBRANCH   9  10
ENDBRANCH  13  12
BRANCH  18  19
ATOM     19  O   UNL     1      46.679  16.363  15.831  0.00  0.00    -0.551 OA
ATOM     20  H   UNL     1      45.763  16.672  15.809  0.00  0.00    +0.384 HD
ENDBRANCH  18  19
TORSDOF 3
ENDMDL
MODEL 3
REMARK VINA RESULT:      -6.3      2.698      5.647
REMARK  Name = ZINC95486205
REMARK  8 active torsions:
REMARK  status: ('A' for Active; 'I' for Inactive)
REMARK    1  A    between atoms: C1_1  and  C2_2
REMARK    2  A    between atoms: C4_4  and  C24_28
REMARK    3  A    between atoms: C8_8  and  O2_26
REMARK    4  A    between atoms: C9_9  and  C12_12
REMARK    5  A    between atoms: C18_18  and  C22_24
REMARK    6  A    between atoms: C18_18  and  O1_25
REMARK    7  A    between atoms: C19_20  and  C21_23
REMARK    8  A    between atoms: O2_26  and  C23_27
REMARK                            x       y       z     vdW  Elec       q    Type
REMARK                         _______ _______ _______ _____ _____    ______ ____
ROOT
ATOM     13  C   UNL     1      46.380  18.208  19.378  0.00  0.00    -0.032 A 
ATOM     14  C   UNL     1      46.113  17.271  20.375  0.00  0.00    +0.027 A 
ATOM     15  C   UNL     1      44.903  17.302  21.034  0.00  0.00    +0.001 A 
ATOM     16  C   UNL     1      43.947  18.257  20.711  0.00  0.00    -0.070 A 
ATOM     17  C   UNL     1      44.205  19.184  19.721  0.00  0.00    -0.107 A 
ATOM     18  C   UNL     1      43.194  20.229  19.331  0.00  0.00    +0.337 C 
ATOM     21  C   UNL     1      42.520  19.815  18.021  0.00  0.00    +0.040 C 
ATOM     22  N   UNL     1      42.173  20.374  20.374  0.00  0.00    -0.692 NA
ATOM     23  H   UNL     1      42.556  20.818  21.195  0.00  0.00    +0.348 HD
ATOM     24  C   UNL     1      41.595  19.062  20.707  0.00  0.00    +0.173 C 
ATOM     25  C   UNL     1      40.354  19.253  21.581  0.00  0.00    +0.042 C 
ATOM     26  C   UNL     1      42.643  18.248  21.466  0.00  0.00    +0.047 C 
ATOM     27  C   UNL     1      45.421  19.167  19.060  0.00  0.00    +0.067 A 
ENDROOT
BRANCH  13  12
ATOM      1  C   UNL     1      49.568  21.373  21.926  0.00  0.00    +0.090 C 
ATOM      2  C   UNL     1      49.704  20.510  20.699  0.00  0.00    -0.064 A 
ATOM      3  C   UNL     1      50.917  20.476  20.013  0.00  0.00    -0.007 A 
ATOM      4  C   UNL     1      51.071  19.706  18.901  0.00  0.00    -0.056 A 
ATOM      5  C   UNL     1      52.391  19.685  18.173  0.00  0.00    +0.095 C 
ATOM      6  C   UNL     1      49.995  18.932  18.436  0.00  0.00    -0.086 A 
ATOM      7  C   UNL     1      50.121  18.125  17.290  0.00  0.00    +0.073 A 
ATOM      8  C   UNL     1      49.067  17.384  16.857  0.00  0.00    -0.062 A 
ATOM      9  C   UNL     1      47.844  17.405  17.532  0.00  0.00    +0.147 A 
ATOM     12  C   UNL     1      47.678  18.188  18.665  0.00  0.00    -0.091 A 
ATOM     28  C   UNL     1      48.763  18.967  19.134  0.00  0.00    +0.009 A 
ATOM     29  C   UNL     1      48.642  19.769  20.278  0.00  0.00    +0.003 A 
BRANCH   9  10
ATOM     10  O   UNL     1      46.810  16.654  17.074  0.00  0.00    -0.304 OA
ATOM     11  C   UNL     1      47.072  15.271  16.823  0.00  0.00    +0.238 C 
ENDBRANCH   9  10
ENDBRANCH  13  12
BRANCH  18  19
ATOM     19  O   UNL     1      43.856  21.481  19.144  0.00  0.00    -0.551 OA
ATOM     20  H   UNL     1      44.178  21.625  18.243  0.00  0.00    +0.384 HD
ENDBRANCH  18  19
TORSDOF 3
ENDMDL
MODEL 4
REMARK VINA RESULT:      -6.1      2.206      4.267
REMARK  Name = ZINC95486205
REMARK  8 active torsions:
REMARK  status: ('A' for Active; 'I' for Inactive)
REMARK    1  A    between atoms: C1_1  and  C2_2
REMARK    2  A    between atoms: C4_4  and  C24_28
REMARK    3  A    between atoms: C8_8  and  O2_26
REMARK    4  A    between atoms: C9_9  and  C12_12
REMARK    5  A    between atoms: C18_18  and  C22_24
REMARK    6  A    between atoms: C18_18  and  O1_25
REMARK    7  A    between atoms: C19_20  and  C21_23
REMARK    8  A    between atoms: O2_26  and  C23_27
REMARK                            x       y       z     vdW  Elec       q    Type
REMARK                         _______ _______ _______ _____ _____    ______ ____
ROOT
ATOM     13  C   UNL     1      47.000  17.839  18.626  0.00  0.00    -0.032 A 
ATOM     14  C   UNL     1      46.967  17.764  17.234  0.00  0.00    +0.027 A 
ATOM     15  C   UNL     1      46.832  16.538  16.620  0.00  0.00    +0.001 A 
ATOM     16  C   UNL     1      46.726  15.378  17.377  0.00  0.00    -0.070 A 
ATOM     17  C   UNL     1      46.754  15.447  18.755  0.00  0.00    -0.107 A 
ATOM     18  C   UNL     1      46.631  14.216  19.614  0.00  0.00    +0.337 C 
ATOM     21  C   UNL     1      45.212  14.137  20.181  0.00  0.00    +0.040 C 
ATOM     22  N   UNL     1      46.904  13.009  18.826  0.00  0.00    -0.692 NA
ATOM     23  H   UNL     1      47.883  12.945  18.591  0.00  0.00    +0.348 HD
ATOM     24  C   UNL     1      46.069  12.992  17.614  0.00  0.00    +0.173 C 
ATOM     25  C   UNL     1      46.154  11.616  16.951  0.00  0.00    +0.042 C 
ATOM     26  C   UNL     1      46.586  14.062  16.654  0.00  0.00    +0.047 C 
ATOM     27  C   UNL     1      46.898  16.673  19.381  0.00  0.00    +0.067 A 
ENDROOT
BRANCH  13  12
ATOM      1  C   UNL     1      42.359  20.108  18.582  0.00  0.00    +0.090 C 
ATOM      2  C   UNL     1      43.717  20.501  19.106  0.00  0.00    -0.064 A 
ATOM      3  C   UNL     1      43.878  21.730  19.741  0.00  0.00    -0.007 A 
ATOM      4  C   UNL     1      45.091  22.115  20.225  0.00  0.00    -0.056 A 
ATOM      5  C   UNL     1      45.245  23.450  20.907  0.00  0.00    +0.095 C 
ATOM      6  C   UNL     1      46.198  21.261  20.085  0.00  0.00    -0.086 A 
ATOM      7  C   UNL     1      47.465  21.627  20.575  0.00  0.00    +0.073 A 
ATOM      8  C   UNL     1      48.524  20.786  20.429  0.00  0.00    -0.062 A 
ATOM      9  C   UNL     1      48.380  19.550  19.796  0.00  0.00    +0.147 A 
ATOM     12  C   UNL     1      47.148  19.151  19.298  0.00  0.00    -0.091 A 
ATOM     28  C   UNL     1      46.032  20.011  19.440  0.00  0.00    +0.009 A 
ATOM     29  C   UNL     1      44.767  19.647  18.957  0.00  0.00    +0.003 A 
BRANCH   9  10
ATOM     10  O   UNL     1      49.456  18.732  19.665  0.00  0.00    -0.304 OA
ATOM     11  C   UNL     1      50.484  19.150  18.764  0.00  0.00    +0.238 C 
ENDBRANCH   9  10
ENDBRANCH  13  12
BRANCH  18  19
ATOM     19  O   UNL     1      47.565  14.297  20.691  0.00  0.00    -0.551 OA
ATOM     20  H   UNL     1      47.279  13.842  21.495  0.00  0.00    +0.384 HD
ENDBRANCH  18  19
TORSDOF 3
ENDMDL
MODEL 5
REMARK VINA RESULT:      -5.9      4.245      8.280
REMARK  Name = ZINC95486205
REMARK  8 active torsions:
REMARK  status: ('A' for Active; 'I' for Inactive)
REMARK    1  A    between atoms: C1_1  and  C2_2
REMARK    2  A    between atoms: C4_4  and  C24_28
REMARK    3  A    between atoms: C8_8  and  O2_26
REMARK    4  A    between atoms: C9_9  and  C12_12
REMARK    5  A    between atoms: C18_18  and  C22_24
REMARK    6  A    between atoms: C18_18  and  O1_25
REMARK    7  A    between atoms: C19_20  and  C21_23
REMARK    8  A    between atoms: O2_26  and  C23_27
REMARK                            x       y       z     vdW  Elec       q    Type
REMARK                         _______ _______ _______ _____ _____    ______ ____
ROOT
ATOM     13  C   UNL     1      49.278  17.386  18.337  0.00  0.00    -0.032 A 
ATOM     14  C   UNL     1      49.086  17.553  19.708  0.00  0.00    +0.027 A 
ATOM     15  C   UNL     1      49.793  18.525  20.382  0.00  0.00    +0.001 A 
ATOM     16  C   UNL     1      50.692  19.340  19.707  0.00  0.00    -0.070 A 
ATOM     17  C   UNL     1      50.883  19.181  18.349  0.00  0.00    -0.107 A 
ATOM     18  C   UNL     1      51.840  20.050  17.575  0.00  0.00    +0.337 C 
ATOM     21  C   UNL     1      51.048  21.103  16.798  0.00  0.00    +0.040 C 
ATOM     22  N   UNL     1      52.775  20.722  18.484  0.00  0.00    -0.692 NA
ATOM     23  H   UNL     1      53.433  20.065  18.875  0.00  0.00    +0.348 HD
ATOM     24  C   UNL     1      52.038  21.425  19.546  0.00  0.00    +0.173 C 
ATOM     25  C   UNL     1      52.991  22.341  20.315  0.00  0.00    +0.042 C 
ATOM     26  C   UNL     1      51.443  20.384  20.494  0.00  0.00    +0.047 C 
ATOM     27  C   UNL     1      50.185  18.202  17.664  0.00  0.00    +0.067 A 
ENDROOT
BRANCH  13  12
ATOM      1  C   UNL     1      52.216  13.137  18.295  0.00  0.00    +0.090 C 
ATOM      2  C   UNL     1      50.855  13.480  17.744  0.00  0.00    -0.064 A 
ATOM      3  C   UNL     1      50.132  12.513  17.050  0.00  0.00    -0.007 A 
ATOM      4  C   UNL     1      48.900  12.792  16.540  0.00  0.00    -0.056 A 
ATOM      5  C   UNL     1      48.135  11.732  15.789  0.00  0.00    +0.095 C 
ATOM      6  C   UNL     1      48.347  14.071  16.717  0.00  0.00    -0.086 A 
ATOM      7  C   UNL     1      47.077  14.391  16.204  0.00  0.00    +0.073 A 
ATOM      8  C   UNL     1      46.560  15.636  16.386  0.00  0.00    -0.062 A 
ATOM      9  C   UNL     1      47.271  16.617  17.080  0.00  0.00    +0.147 A 
ATOM     12  C   UNL     1      48.527  16.343  17.602  0.00  0.00    -0.091 A 
ATOM     28  C   UNL     1      49.084  15.052  17.424  0.00  0.00    +0.009 A 
ATOM     29  C   UNL     1      50.347  14.729  17.938  0.00  0.00    +0.003 A 
BRANCH   9  10
ATOM     10  O   UNL     1      46.728  17.851  17.245  0.00  0.00    -0.304 OA
ATOM     11  C   UNL     1      45.690  17.978  18.219  0.00  0.00    +0.238 C 
ENDBRANCH   9  10
ENDBRANCH  13  12
BRANCH  18  19
ATOM     19  O   UNL     1      52.575  19.241  16.656  0.00  0.00    -0.551 OA
ATOM     20  H   UNL     1      52.794  18.362  16.994  0.00  0.00    +0.384 HD
ENDBRANCH  18  19
TORSDOF 3
ENDMDL
MODEL 6
REMARK VINA RESULT:      -5.9      3.038      4.876
REMARK  Name = ZINC95486205
REMARK  8 active torsions:
REMARK  status: ('A' for Active; 'I' for Inactive)
REMARK    1  A    between atoms: C1_1  and  C2_2
REMARK    2  A    between atoms: C4_4  and  C24_28
REMARK    3  A    between atoms: C8_8  and  O2_26
REMARK    4  A    between atoms: C9_9  and  C12_12
REMARK    5  A    between atoms: C18_18  and  C22_24
REMARK    6  A    between atoms: C18_18  and  O1_25
REMARK    7  A    between atoms: C19_20  and  C21_23
REMARK    8  A    between atoms: O2_26  and  C23_27
REMARK                            x       y       z     vdW  Elec       q    Type
REMARK                         _______ _______ _______ _____ _____    ______ ____
ROOT
ATOM     13  C   UNL     1      47.985  16.404  18.857  0.00  0.00    -0.032 A 
ATOM     14  C   UNL     1      47.787  15.658  20.018  0.00  0.00    +0.027 A 
ATOM     15  C   UNL     1      47.455  14.324  19.924  0.00  0.00    +0.001 A 
ATOM     16  C   UNL     1      47.320  13.717  18.682  0.00  0.00    -0.070 A 
ATOM     17  C   UNL     1      47.519  14.450  17.529  0.00  0.00    -0.107 A 
ATOM     18  C   UNL     1      47.394  13.828  16.163  0.00  0.00    +0.337 C 
ATOM     21  C   UNL     1      48.792  13.567  15.598  0.00  0.00    +0.040 C 
ATOM     22  N   UNL     1      46.659  12.562  16.239  0.00  0.00    -0.692 NA
ATOM     23  H   UNL     1      45.682  12.723  16.433  0.00  0.00    +0.348 HD
ATOM     24  C   UNL     1      47.260  11.683  17.254  0.00  0.00    +0.173 C 
ATOM     25  C   UNL     1      46.670  10.277  17.132  0.00  0.00    +0.042 C 
ATOM     26  C   UNL     1      46.952  12.256  18.636  0.00  0.00    +0.047 C 
ATOM     27  C   UNL     1      47.844  15.793  17.613  0.00  0.00    +0.067 A 
ENDROOT
BRANCH  13  12
ATOM      1  C   UNL     1      53.141  16.713  18.815  0.00  0.00    +0.090 C 
ATOM      2  C   UNL     1      52.028  17.726  18.894  0.00  0.00    -0.064 A 
ATOM      3  C   UNL     1      52.338  19.081  18.978  0.00  0.00    -0.007 A 
ATOM      4  C   UNL     1      51.355  20.021  19.051  0.00  0.00    -0.056 A 
ATOM      5  C   UNL     1      51.712  21.483  19.143  0.00  0.00    +0.095 C 
ATOM      6  C   UNL     1      50.008  19.622  19.041  0.00  0.00    -0.086 A 
ATOM      7  C   UNL     1      48.969  20.567  19.113  0.00  0.00    +0.073 A 
ATOM      8  C   UNL     1      47.672  20.159  19.102  0.00  0.00    -0.062 A 
ATOM      9  C   UNL     1      47.342  18.804  19.018  0.00  0.00    +0.147 A 
ATOM     12  C   UNL     1      48.338  17.840  18.945  0.00  0.00    -0.091 A 
ATOM     28  C   UNL     1      49.695  18.243  18.954  0.00  0.00    +0.009 A 
ATOM     29  C   UNL     1      50.733  17.304  18.877  0.00  0.00    +0.003 A 
BRANCH   9  10
ATOM     10  O   UNL     1      46.038  18.428  19.009  0.00  0.00    -0.304 OA
ATOM     11  C   UNL     1      45.117  19.295  18.344  0.00  0.00    +0.238 C 
ENDBRANCH   9  10
ENDBRANCH  13  12
BRANCH  18  19
ATOM     19  O   UNL     1      46.698  14.727  15.298  0.00  0.00    -0.551 OA
ATOM     20  H   UNL     1      47.207  15.512  15.054  0.00  0.00    +0.384 HD
ENDBRANCH  18  19
TORSDOF 3
ENDMDL
MODEL 7
REMARK VINA RESULT:      -5.7      3.955      5.530
REMARK  Name = ZINC95486205
REMARK  8 active torsions:
REMARK  status: ('A' for Active; 'I' for Inactive)
REMARK    1  A    between atoms: C1_1  and  C2_2
REMARK    2  A    between atoms: C4_4  and  C24_28
REMARK    3  A    between atoms: C8_8  and  O2_26
REMARK    4  A    between atoms: C9_9  and  C12_12
REMARK    5  A    between atoms: C18_18  and  C22_24
REMARK    6  A    between atoms: C18_18  and  O1_25
REMARK    7  A    between atoms: C19_20  and  C21_23
REMARK    8  A    between atoms: O2_26  and  C23_27
REMARK                            x       y       z     vdW  Elec       q    Type
REMARK                         _______ _______ _______ _____ _____    ______ ____
ROOT
ATOM     13  C   UNL     1      48.599  17.180  18.585  0.00  0.00    -0.032 A 
ATOM     14  C   UNL     1      47.507  17.443  17.759  0.00  0.00    +0.027 A 
ATOM     15  C   UNL     1      46.970  16.429  16.996  0.00  0.00    +0.001 A 
ATOM     16  C   UNL     1      47.507  15.149  17.045  0.00  0.00    -0.070 A 
ATOM     17  C   UNL     1      48.585  14.883  17.864  0.00  0.00    -0.107 A 
ATOM     18  C   UNL     1      49.191  13.507  17.957  0.00  0.00    +0.337 C 
ATOM     21  C   UNL     1      48.726  12.838  19.251  0.00  0.00    +0.040 C 
ATOM     22  N   UNL     1      48.780  12.685  16.813  0.00  0.00    -0.692 NA
ATOM     23  H   UNL     1      49.224  13.001  15.964  0.00  0.00    +0.348 HD
ATOM     24  C   UNL     1      47.315  12.697  16.678  0.00  0.00    +0.173 C 
ATOM     25  C   UNL     1      46.883  11.630  15.671  0.00  0.00    +0.042 C 
ATOM     26  C   UNL     1      46.884  14.078  16.185  0.00  0.00    +0.047 C 
ATOM     27  C   UNL     1      49.137  15.897  18.628  0.00  0.00    +0.067 A 
ENDROOT
BRANCH  13  12
ATOM      1  C   UNL     1      52.189  19.513  15.696  0.00  0.00    +0.090 C 
ATOM      2  C   UNL     1      51.676  19.713  17.099  0.00  0.00    -0.064 A 
ATOM      3  C   UNL     1      52.216  20.725  17.890  0.00  0.00    -0.007 A 
ATOM      4  C   UNL     1      51.773  20.931  19.161  0.00  0.00    -0.056 A 
ATOM      5  C   UNL     1      52.372  22.031  20.001  0.00  0.00    +0.095 C 
ATOM      6  C   UNL     1      50.758  20.114  19.686  0.00  0.00    -0.086 A 
ATOM      7  C   UNL     1      50.277  20.301  20.995  0.00  0.00    +0.073 A 
ATOM      8  C   UNL     1      49.294  19.499  21.483  0.00  0.00    -0.062 A 
ATOM      9  C   UNL     1      48.741  18.480  20.704  0.00  0.00    +0.147 A 
ATOM     12  C   UNL     1      49.187  18.262  19.408  0.00  0.00    -0.091 A 
ATOM     28  C   UNL     1      50.210  19.087  18.880  0.00  0.00    +0.009 A 
ATOM     29  C   UNL     1      50.687  18.906  17.574  0.00  0.00    +0.003 A 
BRANCH   9  10
ATOM     10  O   UNL     1      47.761  17.696  21.220  0.00  0.00    -0.304 OA
ATOM     11  C   UNL     1      46.519  18.331  21.534  0.00  0.00    +0.238 C 
ENDBRANCH   9  10
ENDBRANCH  13  12
BRANCH  18  19
ATOM     19  O   UNL     1      50.615  13.618  17.969  0.00  0.00    -0.551 OA
ATOM     20  H   UNL     1      51.077  12.771  17.917  0.00  0.00    +0.384 HD
ENDBRANCH  18  19
TORSDOF 3
ENDMDL
MODEL 8
REMARK VINA RESULT:      -5.5      3.398      6.975
REMARK  Name = ZINC95486205
REMARK  8 active torsions:
REMARK  status: ('A' for Active; 'I' for Inactive)
REMARK    1  A    between atoms: C1_1  and  C2_2
REMARK    2  A    between atoms: C4_4  and  C24_28
REMARK    3  A    between atoms: C8_8  and  O2_26
REMARK    4  A    between atoms: C9_9  and  C12_12
REMARK    5  A    between atoms: C18_18  and  C22_24
REMARK    6  A    between atoms: C18_18  and  O1_25
REMARK    7  A    between atoms: C19_20  and  C21_23
REMARK    8  A    between atoms: O2_26  and  C23_27
REMARK                            x       y       z     vdW  Elec       q    Type
REMARK                         _______ _______ _______ _____ _____    ______ ____
ROOT
ATOM     13  C   UNL     1      47.519  18.082  19.409  0.00  0.00    -0.032 A 
ATOM     14  C   UNL     1      46.769  17.859  18.254  0.00  0.00    +0.027 A 
ATOM     15  C   UNL     1      45.614  18.580  18.042  0.00  0.00    +0.001 A 
ATOM     16  C   UNL     1      45.192  19.527  18.966  0.00  0.00    -0.070 A 
ATOM     17  C   UNL     1      45.933  19.754  20.109  0.00  0.00    -0.107 A 
ATOM     18  C   UNL     1      45.519  20.779  21.131  0.00  0.00    +0.337 C 
ATOM     21  C   UNL     1      46.383  22.032  20.968  0.00  0.00    +0.040 C 
ATOM     22  N   UNL     1      44.108  21.139  20.958  0.00  0.00    -0.692 NA
ATOM     23  H   UNL     1      43.505  20.380  21.236  0.00  0.00    +0.348 HD
ATOM     24  C   UNL     1      43.850  21.532  19.563  0.00  0.00    +0.173 C 
ATOM     25  C   UNL     1      42.462  22.165  19.456  0.00  0.00    +0.042 C 
ATOM     26  C   UNL     1      43.919  20.283  18.686  0.00  0.00    +0.047 C 
ATOM     27  C   UNL     1      47.090  19.029  20.336  0.00  0.00    +0.067 A 
ENDROOT
BRANCH  13  12
ATOM      1  C   UNL     1      51.417  20.795  17.378  0.00  0.00    +0.090 C 
ATOM      2  C   UNL     1      51.319  19.479  18.106  0.00  0.00    -0.064 A 
ATOM      3  C   UNL     1      52.475  18.738  18.344  0.00  0.00    -0.007 A 
ATOM      4  C   UNL     1      52.420  17.546  19.000  0.00  0.00    -0.056 A 
ATOM      5  C   UNL     1      53.682  16.759  19.245  0.00  0.00    +0.095 C 
ATOM      6  C   UNL     1      51.182  17.053  19.445  0.00  0.00    -0.086 A 
ATOM      7  C   UNL     1      51.090  15.826  20.126  0.00  0.00    +0.073 A 
ATOM      8  C   UNL     1      49.882  15.367  20.548  0.00  0.00    -0.062 A 
ATOM      9  C   UNL     1      48.713  16.096  20.319  0.00  0.00    +0.147 A 
ATOM     12  C   UNL     1      48.760  17.312  19.651  0.00  0.00    -0.091 A 
ATOM     28  C   UNL     1      50.008  17.808  19.203  0.00  0.00    +0.009 A 
ATOM     29  C   UNL     1      50.103  19.034  18.528  0.00  0.00    +0.003 A 
BRANCH   9  10
ATOM     10  O   UNL     1      47.522  15.612  20.753  0.00  0.00    -0.304 OA
ATOM     11  C   UNL     1      47.026  14.436  20.109  0.00  0.00    +0.238 C 
ENDBRANCH   9  10
ENDBRANCH  13  12
BRANCH  18  19
ATOM     19  O   UNL     1      45.711  20.243  22.441  0.00  0.00    -0.551 OA
ATOM     20  H   UNL     1      44.902  20.191  22.968  0.00  0.00    +0.384 HD
ENDBRANCH  18  19
TORSDOF 3
ENDMDL
MODEL 9
REMARK VINA RESULT:      -5.5      1.929      3.019
REMARK  Name = ZINC95486205
REMARK  8 active torsions:
REMARK  status: ('A' for Active; 'I' for Inactive)
REMARK    1  A    between atoms: C1_1  and  C2_2
REMARK    2  A    between atoms: C4_4  and  C24_28
REMARK    3  A    between atoms: C8_8  and  O2_26
REMARK    4  A    between atoms: C9_9  and  C12_12
REMARK    5  A    between atoms: C18_18  and  C22_24
REMARK    6  A    between atoms: C18_18  and  O1_25
REMARK    7  A    between atoms: C19_20  and  C21_23
REMARK    8  A    between atoms: O2_26  and  C23_27
REMARK                            x       y       z     vdW  Elec       q    Type
REMARK                         _______ _______ _______ _____ _____    ______ ____
ROOT
ATOM     13  C   UNL     1      46.190  17.700  19.023  0.00  0.00    -0.032 A 
ATOM     14  C   UNL     1      46.362  17.835  17.646  0.00  0.00    +0.027 A 
ATOM     15  C   UNL     1      46.583  16.716  16.873  0.00  0.00    +0.001 A 
ATOM     16  C   UNL     1      46.634  15.455  17.454  0.00  0.00    -0.070 A 
ATOM     17  C   UNL     1      46.461  15.316  18.817  0.00  0.00    -0.107 A 
ATOM     18  C   UNL     1      46.496  13.967  19.487  0.00  0.00    +0.337 C 
ATOM     21  C   UNL     1      45.067  13.522  19.801  0.00  0.00    +0.040 C 
ATOM     22  N   UNL     1      47.131  12.975  18.613  0.00  0.00    -0.692 NA
ATOM     23  H   UNL     1      48.122  13.143  18.535  0.00  0.00    +0.348 HD
ATOM     24  C   UNL     1      46.490  12.979  17.288  0.00  0.00    +0.173 C 
ATOM     25  C   UNL     1      46.963  11.766  16.485  0.00  0.00    +0.042 C 
ATOM     26  C   UNL     1      46.883  14.265  16.563  0.00  0.00    +0.047 C 
ATOM     27  C   UNL     1      46.247  16.435  19.603  0.00  0.00    +0.067 A 
ENDROOT
BRANCH  13  12
ATOM      1  C   UNL     1      50.820  19.648  20.229  0.00  0.00    +0.090 C 
ATOM      2  C   UNL     1      49.400  20.038  20.548  0.00  0.00    -0.064 A 
ATOM      3  C   UNL     1      49.157  21.159  21.339  0.00  0.00    -0.007 A 
ATOM      4  C   UNL     1      47.885  21.537  21.646  0.00  0.00    -0.056 A 
ATOM      5  C   UNL     1      47.644  22.753  22.504  0.00  0.00    +0.095 C 
ATOM      6  C   UNL     1      46.800  20.789  21.159  0.00  0.00    -0.086 A 
ATOM      7  C   UNL     1      45.474  21.154  21.456  0.00  0.00    +0.073 A 
ATOM      8  C   UNL     1      44.438  20.415  20.975  0.00  0.00    -0.062 A 
ATOM      9  C   UNL     1      44.663  19.289  20.181  0.00  0.00    +0.147 A 
ATOM     12  C   UNL     1      45.956  18.895  19.865  0.00  0.00    -0.091 A 
ATOM     28  C   UNL     1      47.049  19.650  20.355  0.00  0.00    +0.009 A 
ATOM     29  C   UNL     1      48.371  19.293  20.056  0.00  0.00    +0.003 A 
BRANCH   9  10
ATOM     10  O   UNL     1      43.608  18.572  19.716  0.00  0.00    -0.304 OA
ATOM     11  C   UNL     1      42.303  19.032  20.073  0.00  0.00    +0.238 C 
ENDBRANCH   9  10
ENDBRANCH  13  12
BRANCH  18  19
ATOM     19  O   UNL     1      47.237  14.065  20.704  0.00  0.00    -0.551 OA
ATOM     20  H   UNL     1      47.163  14.924  21.142  0.00  0.00    +0.384 HD
ENDBRANCH  18  19
TORSDOF 3
ENDMDL
