MODEL 1
REMARK VINA RESULT:      -6.4      0.000      0.000
REMARK  Name = ZINC04098748
REMARK  7 active torsions:
REMARK  status: ('A' for Active; 'I' for Inactive)
REMARK    1  A    between atoms: C1_1  and  C2_2
REMARK    2  A    between atoms: C2_2  and  C23_31
REMARK    3  A    between atoms: C15_18  and  O6_28
REMARK    4  A    between atoms: C16_19  and  O5_26
REMARK    5  A    between atoms: C19_22  and  O4_25
REMARK    6  A    between atoms: O5_26  and  C21_27
REMARK    7  A    between atoms: O6_28  and  C22_29
REMARK                            x       y       z     vdW  Elec       q    Type
REMARK                         _______ _______ _______ _____ _____    ______ ____
ROOT
ATOM      1  C   UNL     1      48.241  12.145  17.697  0.00  0.00    +0.038 C 
ATOM      2  C   UNL     1      47.011  12.598  16.909  0.00  0.00    +0.146 C 
ATOM      3  C   UNL     1      46.822  11.681  15.699  0.00  0.00    +0.086 C 
ATOM      4  C   UNL     1      45.796  12.510  17.792  0.00  0.00    -0.055 C 
ATOM      5  C   UNL     1      45.435  13.550  18.539  0.00  0.00    +0.061 C 
ATOM      6  C   UNL     1      46.234  14.789  18.447  0.00  0.00    -0.178 A 
ATOM      7  C   UNL     1      47.133  14.927  17.380  0.00  0.00    +0.211 A 
ATOM      8  C   UNL     1      47.911  16.072  17.266  0.00  0.00    -0.041 A 
ATOM      9  C   UNL     1      47.799  17.081  18.195  0.00  0.00    +0.167 A 
ATOM     10  C   UNL     1      46.898  16.959  19.260  0.00  0.00    -0.285 A 
ATOM     11  C   UNL     1      46.778  18.019  20.267  0.00  0.00    +0.397 C 
ATOM     12  O   UNL     1      47.543  18.961  20.269  0.00  0.00    -0.437 OA
ATOM     13  C   UNL     1      45.678  17.921  21.291  0.00  0.00    +0.125 C 
ATOM     16  C   UNL     1      44.469  18.676  20.817  0.00  0.00    -0.205 A 
ATOM     17  C   UNL     1      44.644  19.856  20.113  0.00  0.00    +0.018 A 
ATOM     18  C   UNL     1      43.549  20.576  19.670  0.00  0.00    +0.072 A 
ATOM     21  C   UNL     1      42.264  20.113  19.934  0.00  0.00    +0.156 A 
ATOM     24  C   UNL     1      42.084  18.936  20.662  0.00  0.00    -0.057 A 
ATOM     25  C   UNL     1      43.190  18.207  21.091  0.00  0.00    +0.178 A 
ATOM     26  O   UNL     1      42.984  17.046  21.757  0.00  0.00    -0.302 OA
ATOM     27  C   UNL     1      44.054  16.376  22.395  0.00  0.00    +0.315 C 
ATOM     28  C   UNL     1      45.339  16.471  21.579  0.00  0.00    +0.187 C 
ATOM     29  O   UNL     1      45.216  15.695  20.397  0.00  0.00    -0.287 OA
ATOM     30  C   UNL     1      46.097  15.811  19.386  0.00  0.00    +0.235 A 
ATOM     31  O   UNL     1      47.210  13.937  16.455  0.00  0.00    -0.296 OA
ENDROOT
BRANCH  13  14
ATOM     14  O   UNL     1      46.138  18.524  22.502  0.00  0.00    -0.531 OA
ATOM     15  H   UNL     1      45.448  18.984  22.999  0.00  0.00    +0.396 HD
ENDBRANCH  13  14
BRANCH  18  19
ATOM     19  O   UNL     1      43.729  21.735  18.978  0.00  0.00    -0.302 OA
ATOM     20  C   UNL     1      43.968  22.917  19.744  0.00  0.00    +0.238 C 
ENDBRANCH  18  19
BRANCH  21  22
ATOM     22  O   UNL     1      41.183  20.817  19.505  0.00  0.00    -0.296 OA
ATOM     23  C   UNL     1      40.551  20.369  18.304  0.00  0.00    +0.246 C 
ENDBRANCH  21  22
TORSDOF 3
ENDMDL
MODEL 2
REMARK VINA RESULT:      -6.3      4.566      8.955
REMARK  Name = ZINC04098748
REMARK  7 active torsions:
REMARK  status: ('A' for Active; 'I' for Inactive)
REMARK    1  A    between atoms: C1_1  and  C2_2
REMARK    2  A    between atoms: C2_2  and  C23_31
REMARK    3  A    between atoms: C15_18  and  O6_28
REMARK    4  A    between atoms: C16_19  and  O5_26
REMARK    5  A    between atoms: C19_22  and  O4_25
REMARK    6  A    between atoms: O5_26  and  C21_27
REMARK    7  A    between atoms: O6_28  and  C22_29
REMARK                            x       y       z     vdW  Elec       q    Type
REMARK                         _______ _______ _______ _____ _____    ______ ____
ROOT
ATOM      1  C   UNL     1      44.855  22.852  20.215  0.00  0.00    +0.038 C 
ATOM      2  C   UNL     1      44.791  21.330  20.080  0.00  0.00    +0.146 C 
ATOM      3  C   UNL     1      43.330  20.879  20.143  0.00  0.00    +0.086 C 
ATOM      4  C   UNL     1      45.378  20.924  18.755  0.00  0.00    -0.055 C 
ATOM      5  C   UNL     1      46.678  20.663  18.651  0.00  0.00    +0.061 C 
ATOM      6  C   UNL     1      47.510  20.750  19.869  0.00  0.00    -0.178 A 
ATOM      7  C   UNL     1      46.867  20.799  21.115  0.00  0.00    +0.211 A 
ATOM      8  C   UNL     1      47.613  20.893  22.282  0.00  0.00    -0.041 A 
ATOM      9  C   UNL     1      48.988  20.931  22.223  0.00  0.00    +0.167 A 
ATOM     10  C   UNL     1      49.641  20.872  20.987  0.00  0.00    -0.285 A 
ATOM     11  C   UNL     1      51.105  20.926  20.907  0.00  0.00    +0.397 C 
ATOM     12  O   UNL     1      51.771  21.150  21.897  0.00  0.00    -0.437 OA
ATOM     13  C   UNL     1      51.765  20.687  19.575  0.00  0.00    +0.125 C 
ATOM     16  C   UNL     1      52.131  19.237  19.439  0.00  0.00    -0.205 A 
ATOM     17  C   UNL     1      52.573  18.545  20.555  0.00  0.00    +0.018 A 
ATOM     18  C   UNL     1      52.924  17.210  20.458  0.00  0.00    +0.072 A 
ATOM     21  C   UNL     1      52.834  16.559  19.231  0.00  0.00    +0.156 A 
ATOM     24  C   UNL     1      52.410  17.259  18.101  0.00  0.00    -0.057 A 
ATOM     25  C   UNL     1      52.042  18.597  18.208  0.00  0.00    +0.178 A 
ATOM     26  O   UNL     1      51.593  19.238  17.104  0.00  0.00    -0.302 OA
ATOM     27  C   UNL     1      51.408  20.641  17.103  0.00  0.00    +0.315 C 
ATOM     28  C   UNL     1      50.864  21.132  18.440  0.00  0.00    +0.187 C 
ATOM     29  O   UNL     1      49.524  20.694  18.604  0.00  0.00    -0.287 OA
ATOM     30  C   UNL     1      48.902  20.769  19.796  0.00  0.00    +0.235 A 
ATOM     31  O   UNL     1      45.513  20.731  21.157  0.00  0.00    -0.296 OA
ENDROOT
BRANCH  13  14
ATOM     14  O   UNL     1      52.966  21.460  19.524  0.00  0.00    -0.531 OA
ATOM     15  H   UNL     1      53.046  22.110  20.236  0.00  0.00    +0.396 HD
ENDBRANCH  13  14
BRANCH  18  19
ATOM     19  O   UNL     1      53.358  16.536  21.559  0.00  0.00    -0.302 OA
ATOM     20  C   UNL     1      54.134  17.272  22.505  0.00  0.00    +0.238 C 
ENDBRANCH  18  19
BRANCH  21  22
ATOM     22  O   UNL     1      53.180  15.248  19.128  0.00  0.00    -0.296 OA
ATOM     23  C   UNL     1      52.114  14.298  19.062  0.00  0.00    +0.246 C 
ENDBRANCH  21  22
TORSDOF 3
ENDMDL
MODEL 3
REMARK VINA RESULT:      -5.8      4.624      7.931
REMARK  Name = ZINC04098748
REMARK  7 active torsions:
REMARK  status: ('A' for Active; 'I' for Inactive)
REMARK    1  A    between atoms: C1_1  and  C2_2
REMARK    2  A    between atoms: C2_2  and  C23_31
REMARK    3  A    between atoms: C15_18  and  O6_28
REMARK    4  A    between atoms: C16_19  and  O5_26
REMARK    5  A    between atoms: C19_22  and  O4_25
REMARK    6  A    between atoms: O5_26  and  C21_27
REMARK    7  A    between atoms: O6_28  and  C22_29
REMARK                            x       y       z     vdW  Elec       q    Type
REMARK                         _______ _______ _______ _____ _____    ______ ____
ROOT
ATOM      1  C   UNL     1      52.743  20.323  17.977  0.00  0.00    +0.038 C 
ATOM      2  C   UNL     1      51.623  20.152  16.950  0.00  0.00    +0.146 C 
ATOM      3  C   UNL     1      51.514  21.424  16.107  0.00  0.00    +0.086 C 
ATOM      4  C   UNL     1      51.947  18.989  16.051  0.00  0.00    -0.055 C 
ATOM      5  C   UNL     1      51.546  17.762  16.375  0.00  0.00    +0.061 C 
ATOM      6  C   UNL     1      50.753  17.587  17.608  0.00  0.00    -0.178 A 
ATOM      7  C   UNL     1      50.201  18.724  18.216  0.00  0.00    +0.211 A 
ATOM      8  C   UNL     1      49.460  18.602  19.384  0.00  0.00    -0.041 A 
ATOM      9  C   UNL     1      49.255  17.363  19.947  0.00  0.00    +0.167 A 
ATOM     10  C   UNL     1      49.791  16.219  19.345  0.00  0.00    -0.285 A 
ATOM     11  C   UNL     1      49.594  14.893  19.940  0.00  0.00    +0.397 C 
ATOM     12  O   UNL     1      49.073  14.776  21.031  0.00  0.00    -0.437 OA
ATOM     13  C   UNL     1      50.041  13.680  19.169  0.00  0.00    +0.125 C 
ATOM     16  C   UNL     1      48.894  13.136  18.364  0.00  0.00    -0.205 A 
ATOM     17  C   UNL     1      47.617  13.173  18.899  0.00  0.00    +0.018 A 
ATOM     18  C   UNL     1      46.543  12.673  18.185  0.00  0.00    +0.072 A 
ATOM     21  C   UNL     1      46.747  12.127  16.921  0.00  0.00    +0.156 A 
ATOM     24  C   UNL     1      48.037  12.067  16.389  0.00  0.00    -0.057 A 
ATOM     25  C   UNL     1      49.110  12.588  17.106  0.00  0.00    +0.178 A 
ATOM     26  O   UNL     1      50.342  12.556  16.545  0.00  0.00    -0.302 OA
ATOM     27  C   UNL     1      51.493  12.874  17.303  0.00  0.00    +0.315 C 
ATOM     28  C   UNL     1      51.222  14.014  18.279  0.00  0.00    +0.187 C 
ATOM     29  O   UNL     1      51.041  15.225  17.563  0.00  0.00    -0.287 OA
ATOM     30  C   UNL     1      50.538  16.323  18.158  0.00  0.00    +0.235 A 
ATOM     31  O   UNL     1      50.388  19.934  17.632  0.00  0.00    -0.296 OA
ENDROOT
BRANCH  13  14
ATOM     14  O   UNL     1      50.450  12.679  20.102  0.00  0.00    -0.531 OA
ATOM     15  H   UNL     1      51.083  12.042  19.744  0.00  0.00    +0.396 HD
ENDBRANCH  13  14
BRANCH  18  19
ATOM     19  O   UNL     1      45.291  12.713  18.717  0.00  0.00    -0.302 OA
ATOM     20  C   UNL     1      45.098  13.548  19.860  0.00  0.00    +0.238 C 
ENDBRANCH  18  19
BRANCH  21  22
ATOM     22  O   UNL     1      45.698  11.630  16.215  0.00  0.00    -0.296 OA
ATOM     23  C   UNL     1      45.951  10.491  15.390  0.00  0.00    +0.246 C 
ENDBRANCH  21  22
TORSDOF 3
ENDMDL
MODEL 4
REMARK VINA RESULT:      -5.4      1.808      7.521
REMARK  Name = ZINC04098748
REMARK  7 active torsions:
REMARK  status: ('A' for Active; 'I' for Inactive)
REMARK    1  A    between atoms: C1_1  and  C2_2
REMARK    2  A    between atoms: C2_2  and  C23_31
REMARK    3  A    between atoms: C15_18  and  O6_28
REMARK    4  A    between atoms: C16_19  and  O5_26
REMARK    5  A    between atoms: C19_22  and  O4_25
REMARK    6  A    between atoms: O5_26  and  C21_27
REMARK    7  A    between atoms: O6_28  and  C22_29
REMARK                            x       y       z     vdW  Elec       q    Type
REMARK                         _______ _______ _______ _____ _____    ______ ____
ROOT
ATOM      1  C   UNL     1      44.700  22.214  21.660  0.00  0.00    +0.038 C 
ATOM      2  C   UNL     1      44.531  21.966  20.161  0.00  0.00    +0.146 C 
ATOM      3  C   UNL     1      43.800  23.154  19.532  0.00  0.00    +0.086 C 
ATOM      4  C   UNL     1      45.888  21.827  19.525  0.00  0.00    -0.055 C 
ATOM      5  C   UNL     1      46.467  20.633  19.440  0.00  0.00    +0.061 C 
ATOM      6  C   UNL     1      45.731  19.458  19.950  0.00  0.00    -0.178 A 
ATOM      7  C   UNL     1      44.361  19.593  20.216  0.00  0.00    +0.211 A 
ATOM      8  C   UNL     1      43.636  18.516  20.708  0.00  0.00    -0.041 A 
ATOM      9  C   UNL     1      44.256  17.308  20.930  0.00  0.00    +0.167 A 
ATOM     10  C   UNL     1      45.621  17.157  20.659  0.00  0.00    -0.285 A 
ATOM     11  C   UNL     1      46.300  15.881  20.904  0.00  0.00    +0.397 C 
ATOM     12  O   UNL     1      45.723  14.971  21.464  0.00  0.00    -0.437 OA
ATOM     13  C   UNL     1      47.722  15.717  20.437  0.00  0.00    +0.125 C 
ATOM     16  C   UNL     1      47.742  15.098  19.068  0.00  0.00    -0.205 A 
ATOM     17  C   UNL     1      46.803  14.130  18.751  0.00  0.00    +0.018 A 
ATOM     18  C   UNL     1      46.803  13.538  17.501  0.00  0.00    +0.072 A 
ATOM     21  C   UNL     1      47.752  13.916  16.556  0.00  0.00    +0.156 A 
ATOM     24  C   UNL     1      48.714  14.875  16.880  0.00  0.00    -0.057 A 
ATOM     25  C   UNL     1      48.699  15.479  18.135  0.00  0.00    +0.178 A 
ATOM     26  O   UNL     1      49.616  16.438  18.405  0.00  0.00    -0.302 OA
ATOM     27  C   UNL     1      49.783  16.932  19.719  0.00  0.00    +0.315 C 
ATOM     28  C   UNL     1      48.448  17.048  20.446  0.00  0.00    +0.187 C 
ATOM     29  O   UNL     1      47.678  18.093  19.873  0.00  0.00    -0.287 OA
ATOM     30  C   UNL     1      46.368  18.235  20.153  0.00  0.00    +0.235 A 
ATOM     31  O   UNL     1      43.758  20.782  19.964  0.00  0.00    -0.296 OA
ENDROOT
BRANCH  13  14
ATOM     14  O   UNL     1      48.392  14.834  21.339  0.00  0.00    -0.531 OA
ATOM     15  H   UNL     1      47.886  14.629  22.138  0.00  0.00    +0.396 HD
ENDBRANCH  13  14
BRANCH  18  19
ATOM     19  O   UNL     1      45.877  12.588  17.196  0.00  0.00    -0.302 OA
ATOM     20  C   UNL     1      44.713  12.527  18.023  0.00  0.00    +0.238 C 
ENDBRANCH  18  19
BRANCH  21  22
ATOM     22  O   UNL     1      47.760  13.336  15.327  0.00  0.00    -0.296 OA
ATOM     23  C   UNL     1      49.019  12.869  14.837  0.00  0.00    +0.246 C 
ENDBRANCH  21  22
TORSDOF 3
ENDMDL
MODEL 5
REMARK VINA RESULT:      -5.3      2.080      7.732
REMARK  Name = ZINC04098748
REMARK  7 active torsions:
REMARK  status: ('A' for Active; 'I' for Inactive)
REMARK    1  A    between atoms: C1_1  and  C2_2
REMARK    2  A    between atoms: C2_2  and  C23_31
REMARK    3  A    between atoms: C15_18  and  O6_28
REMARK    4  A    between atoms: C16_19  and  O5_26
REMARK    5  A    between atoms: C19_22  and  O4_25
REMARK    6  A    between atoms: O5_26  and  C21_27
REMARK    7  A    between atoms: O6_28  and  C22_29
REMARK                            x       y       z     vdW  Elec       q    Type
REMARK                         _______ _______ _______ _____ _____    ______ ____
ROOT
ATOM      1  C   UNL     1      43.871  20.694  20.808  0.00  0.00    +0.038 C 
ATOM      2  C   UNL     1      43.411  19.906  19.580  0.00  0.00    +0.146 C 
ATOM      3  C   UNL     1      42.082  20.478  19.083  0.00  0.00    +0.086 C 
ATOM      4  C   UNL     1      44.444  20.036  18.493  0.00  0.00    -0.055 C 
ATOM      5  C   UNL     1      45.444  19.163  18.413  0.00  0.00    +0.061 C 
ATOM      6  C   UNL     1      45.488  18.056  19.391  0.00  0.00    -0.178 A 
ATOM      7  C   UNL     1      44.341  17.792  20.153  0.00  0.00    +0.211 A 
ATOM      8  C   UNL     1      44.347  16.769  21.091  0.00  0.00    -0.041 A 
ATOM      9  C   UNL     1      45.476  16.002  21.272  0.00  0.00    +0.167 A 
ATOM     10  C   UNL     1      46.624  16.249  20.511  0.00  0.00    -0.285 A 
ATOM     11  C   UNL     1      47.839  15.451  20.703  0.00  0.00    +0.397 C 
ATOM     12  O   UNL     1      47.915  14.648  21.610  0.00  0.00    -0.437 OA
ATOM     13  C   UNL     1      48.986  15.639  19.746  0.00  0.00    +0.125 C 
ATOM     16  C   UNL     1      48.890  14.638  18.630  0.00  0.00    -0.205 A 
ATOM     17  C   UNL     1      48.435  13.360  18.908  0.00  0.00    +0.018 A 
ATOM     18  C   UNL     1      48.343  12.415  17.902  0.00  0.00    +0.072 A 
ATOM     21  C   UNL     1      48.711  12.750  16.602  0.00  0.00    +0.156 A 
ATOM     24  C   UNL     1      49.191  14.031  16.323  0.00  0.00    -0.057 A 
ATOM     25  C   UNL     1      49.265  14.982  17.337  0.00  0.00    +0.178 A 
ATOM     26  O   UNL     1      49.693  16.229  17.027  0.00  0.00    -0.302 OA
ATOM     27  C   UNL     1      49.988  17.168  18.042  0.00  0.00    +0.315 C 
ATOM     28  C   UNL     1      49.010  17.057  19.207  0.00  0.00    +0.187 C 
ATOM     29  O   UNL     1      47.727  17.508  18.802  0.00  0.00    -0.287 OA
ATOM     30  C   UNL     1      46.633  17.276  19.551  0.00  0.00    +0.235 A 
ATOM     31  O   UNL     1      43.227  18.537  19.941  0.00  0.00    -0.296 OA
ENDROOT
BRANCH  13  14
ATOM     14  O   UNL     1      50.205  15.407  20.454  0.00  0.00    -0.531 OA
ATOM     15  H   UNL     1      50.083  15.020  21.331  0.00  0.00    +0.396 HD
ENDBRANCH  13  14
BRANCH  18  19
ATOM     19  O   UNL     1      47.895  11.160  18.183  0.00  0.00    -0.302 OA
ATOM     20  C   UNL     1      48.806  10.277  18.837  0.00  0.00    +0.238 C 
ENDBRANCH  18  19
BRANCH  21  22
ATOM     22  O   UNL     1      48.626  11.825  15.609  0.00  0.00    -0.296 OA
ATOM     23  C   UNL     1      47.545  11.962  14.685  0.00  0.00    +0.246 C 
ENDBRANCH  21  22
TORSDOF 3
ENDMDL
MODEL 6
REMARK VINA RESULT:      -5.2      2.704      4.005
REMARK  Name = ZINC04098748
REMARK  7 active torsions:
REMARK  status: ('A' for Active; 'I' for Inactive)
REMARK    1  A    between atoms: C1_1  and  C2_2
REMARK    2  A    between atoms: C2_2  and  C23_31
REMARK    3  A    between atoms: C15_18  and  O6_28
REMARK    4  A    between atoms: C16_19  and  O5_26
REMARK    5  A    between atoms: C19_22  and  O4_25
REMARK    6  A    between atoms: O5_26  and  C21_27
REMARK    7  A    between atoms: O6_28  and  C22_29
REMARK                            x       y       z     vdW  Elec       q    Type
REMARK                         _______ _______ _______ _____ _____    ______ ____
ROOT
ATOM      1  C   UNL     1      50.697  11.260  15.515  0.00  0.00    +0.038 C 
ATOM      2  C   UNL     1      50.323  12.467  14.654  0.00  0.00    +0.146 C 
ATOM      3  C   UNL     1      50.691  12.180  13.196  0.00  0.00    +0.086 C 
ATOM      4  C   UNL     1      48.840  12.706  14.753  0.00  0.00    -0.055 C 
ATOM      5  C   UNL     1      48.353  13.502  15.700  0.00  0.00    +0.061 C 
ATOM      6  C   UNL     1      49.303  14.163  16.618  0.00  0.00    -0.178 A 
ATOM      7  C   UNL     1      50.663  14.174  16.276  0.00  0.00    +0.211 A 
ATOM      8  C   UNL     1      51.589  14.775  17.118  0.00  0.00    -0.041 A 
ATOM      9  C   UNL     1      51.177  15.369  18.289  0.00  0.00    +0.167 A 
ATOM     10  C   UNL     1      49.821  15.373  18.637  0.00  0.00    -0.285 A 
ATOM     11  C   UNL     1      49.368  15.989  19.888  0.00  0.00    +0.397 C 
ATOM     12  O   UNL     1      50.170  16.393  20.705  0.00  0.00    -0.437 OA
ATOM     13  C   UNL     1      47.888  16.120  20.135  0.00  0.00    +0.125 C 
ATOM     16  C   UNL     1      47.410  17.467  19.673  0.00  0.00    -0.205 A 
ATOM     17  C   UNL     1      48.232  18.569  19.844  0.00  0.00    +0.018 A 
ATOM     18  C   UNL     1      47.816  19.824  19.435  0.00  0.00    +0.072 A 
ATOM     21  C   UNL     1      46.563  19.980  18.849  0.00  0.00    +0.156 A 
ATOM     24  C   UNL     1      45.724  18.874  18.695  0.00  0.00    -0.057 A 
ATOM     25  C   UNL     1      46.155  17.612  19.094  0.00  0.00    +0.178 A 
ATOM     26  O   UNL     1      45.338  16.553  18.892  0.00  0.00    -0.302 OA
ATOM     27  C   UNL     1      45.629  15.291  19.461  0.00  0.00    +0.315 C 
ATOM     28  C   UNL     1      47.127  15.004  19.445  0.00  0.00    +0.187 C 
ATOM     29  O   UNL     1      47.561  14.792  18.111  0.00  0.00    -0.287 OA
ATOM     30  C   UNL     1      48.869  14.777  17.792  0.00  0.00    +0.235 A 
ATOM     31  O   UNL     1      51.049  13.611  15.104  0.00  0.00    -0.296 OA
ENDROOT
BRANCH  13  14
ATOM     14  O   UNL     1      47.656  16.019  21.541  0.00  0.00    -0.531 OA
ATOM     15  H   UNL     1      47.775  16.851  22.020  0.00  0.00    +0.396 HD
ENDBRANCH  13  14
BRANCH  18  19
ATOM     19  O   UNL     1      48.628  20.902  19.606  0.00  0.00    -0.302 OA
ATOM     20  C   UNL     1      49.836  20.933  18.843  0.00  0.00    +0.238 C 
ENDBRANCH  18  19
BRANCH  21  22
ATOM     22  O   UNL     1      46.146  21.210  18.447  0.00  0.00    -0.296 OA
ATOM     23  C   UNL     1      45.153  21.852  19.250  0.00  0.00    +0.246 C 
ENDBRANCH  21  22
TORSDOF 3
ENDMDL
MODEL 7
REMARK VINA RESULT:      -5.1      1.991      2.791
REMARK  Name = ZINC04098748
REMARK  7 active torsions:
REMARK  status: ('A' for Active; 'I' for Inactive)
REMARK    1  A    between atoms: C1_1  and  C2_2
REMARK    2  A    between atoms: C2_2  and  C23_31
REMARK    3  A    between atoms: C15_18  and  O6_28
REMARK    4  A    between atoms: C16_19  and  O5_26
REMARK    5  A    between atoms: C19_22  and  O4_25
REMARK    6  A    between atoms: O5_26  and  C21_27
REMARK    7  A    between atoms: O6_28  and  C22_29
REMARK                            x       y       z     vdW  Elec       q    Type
REMARK                         _______ _______ _______ _____ _____    ______ ____
ROOT
ATOM      1  C   UNL     1      47.244  10.374  17.394  0.00  0.00    +0.038 C 
ATOM      2  C   UNL     1      46.689  11.414  16.419  0.00  0.00    +0.146 C 
ATOM      3  C   UNL     1      46.375  10.736  15.083  0.00  0.00    +0.086 C 
ATOM      4  C   UNL     1      45.424  12.001  16.986  0.00  0.00    -0.055 C 
ATOM      5  C   UNL     1      45.478  13.076  17.767  0.00  0.00    +0.061 C 
ATOM      6  C   UNL     1      46.797  13.688  18.028  0.00  0.00    -0.178 A 
ATOM      7  C   UNL     1      47.879  13.313  17.218  0.00  0.00    +0.211 A 
ATOM      8  C   UNL     1      49.137  13.857  17.439  0.00  0.00    -0.041 A 
ATOM      9  C   UNL     1      49.328  14.773  18.449  0.00  0.00    +0.167 A 
ATOM     10  C   UNL     1      48.254  15.163  19.257  0.00  0.00    -0.285 A 
ATOM     11  C   UNL     1      48.444  16.127  20.346  0.00  0.00    +0.397 C 
ATOM     12  O   UNL     1      49.556  16.507  20.649  0.00  0.00    -0.437 OA
ATOM     13  C   UNL     1      47.231  16.643  21.074  0.00  0.00    +0.125 C 
ATOM     16  C   UNL     1      46.768  17.928  20.448  0.00  0.00    -0.205 A 
ATOM     17  C   UNL     1      47.710  18.823  19.969  0.00  0.00    +0.018 A 
ATOM     18  C   UNL     1      47.314  20.017  19.394  0.00  0.00    +0.072 A 
ATOM     21  C   UNL     1      45.959  20.322  19.297  0.00  0.00    +0.156 A 
ATOM     24  C   UNL     1      45.008  19.431  19.799  0.00  0.00    -0.057 A 
ATOM     25  C   UNL     1      45.413  18.224  20.361  0.00  0.00    +0.178 A 
ATOM     26  O   UNL     1      44.466  17.361  20.799  0.00  0.00    -0.302 OA
ATOM     27  C   UNL     1      44.817  16.225  21.563  0.00  0.00    +0.315 C 
ATOM     28  C   UNL     1      46.124  15.607  21.077  0.00  0.00    +0.187 C 
ATOM     29  O   UNL     1      45.930  15.012  19.804  0.00  0.00    -0.287 OA
ATOM     30  C   UNL     1      46.971  14.629  19.042  0.00  0.00    +0.235 A 
ATOM     31  O   UNL     1      47.668  12.432  16.209  0.00  0.00    -0.296 OA
ENDROOT
BRANCH  13  14
ATOM     14  O   UNL     1      47.600  16.911  22.428  0.00  0.00    -0.531 OA
ATOM     15  H   UNL     1      48.356  16.395  22.739  0.00  0.00    +0.396 HD
ENDBRANCH  13  14
BRANCH  18  19
ATOM     19  O   UNL     1      48.245  20.892  18.926  0.00  0.00    -0.302 OA
ATOM     20  C   UNL     1      49.612  20.608  19.227  0.00  0.00    +0.238 C 
ENDBRANCH  18  19
BRANCH  21  22
ATOM     22  O   UNL     1      45.562  21.495  18.737  0.00  0.00    -0.296 OA
ATOM     23  C   UNL     1      44.791  22.378  19.555  0.00  0.00    +0.246 C 
ENDBRANCH  21  22
TORSDOF 3
ENDMDL
MODEL 8
REMARK VINA RESULT:      -4.9      4.931      9.334
REMARK  Name = ZINC04098748
REMARK  7 active torsions:
REMARK  status: ('A' for Active; 'I' for Inactive)
REMARK    1  A    between atoms: C1_1  and  C2_2
REMARK    2  A    between atoms: C2_2  and  C23_31
REMARK    3  A    between atoms: C15_18  and  O6_28
REMARK    4  A    between atoms: C16_19  and  O5_26
REMARK    5  A    between atoms: C19_22  and  O4_25
REMARK    6  A    between atoms: O5_26  and  C21_27
REMARK    7  A    between atoms: O6_28  and  C22_29
REMARK                            x       y       z     vdW  Elec       q    Type
REMARK                         _______ _______ _______ _____ _____    ______ ____
ROOT
ATOM      1  C   UNL     1      50.824  20.126  19.724  0.00  0.00    +0.038 C 
ATOM      2  C   UNL     1      51.118  19.831  18.252  0.00  0.00    +0.146 C 
ATOM      3  C   UNL     1      51.387  21.147  17.518  0.00  0.00    +0.086 C 
ATOM      4  C   UNL     1      52.337  18.953  18.156  0.00  0.00    -0.055 C 
ATOM      5  C   UNL     1      52.211  17.630  18.174  0.00  0.00    +0.061 C 
ATOM      6  C   UNL     1      50.852  17.056  18.254  0.00  0.00    -0.178 A 
ATOM      7  C   UNL     1      49.757  17.895  18.003  0.00  0.00    +0.211 A 
ATOM      8  C   UNL     1      48.463  17.397  18.080  0.00  0.00    -0.041 A 
ATOM      9  C   UNL     1      48.249  16.075  18.395  0.00  0.00    +0.167 A 
ATOM     10  C   UNL     1      49.333  15.224  18.638  0.00  0.00    -0.285 A 
ATOM     11  C   UNL     1      49.121  13.817  18.990  0.00  0.00    +0.397 C 
ATOM     12  O   UNL     1      48.002  13.394  19.201  0.00  0.00    -0.437 OA
ATOM     13  C   UNL     1      50.315  12.904  19.072  0.00  0.00    +0.125 C 
ATOM     16  C   UNL     1      50.521  12.211  17.755  0.00  0.00    -0.205 A 
ATOM     17  C   UNL     1      49.414  11.824  17.016  0.00  0.00    +0.018 A 
ATOM     18  C   UNL     1      49.573  11.178  15.803  0.00  0.00    +0.072 A 
ATOM     21  C   UNL     1      50.852  10.914  15.322  0.00  0.00    +0.156 A 
ATOM     24  C   UNL     1      51.969  11.283  16.075  0.00  0.00    -0.057 A 
ATOM     25  C   UNL     1      51.802  11.947  17.287  0.00  0.00    +0.178 A 
ATOM     26  O   UNL     1      52.904  12.332  17.973  0.00  0.00    -0.302 OA
ATOM     27  C   UNL     1      52.801  12.818  19.298  0.00  0.00    +0.315 C 
ATOM     28  C   UNL     1      51.554  13.675  19.483  0.00  0.00    +0.187 C 
ATOM     29  O   UNL     1      51.699  14.894  18.771  0.00  0.00    -0.287 OA
ATOM     30  C   UNL     1      50.650  15.710  18.556  0.00  0.00    +0.235 A 
ATOM     31  O   UNL     1      49.987  19.189  17.664  0.00  0.00    -0.296 OA
ENDROOT
BRANCH  13  14
ATOM     14  O   UNL     1      50.054  11.910  20.066  0.00  0.00    -0.531 OA
ATOM     15  H   UNL     1      50.716  11.874  20.769  0.00  0.00    +0.396 HD
ENDBRANCH  13  14
BRANCH  18  19
ATOM     19  O   UNL     1      48.481  10.801  15.083  0.00  0.00    -0.302 OA
ATOM     20  C   UNL     1      47.404  11.735  14.999  0.00  0.00    +0.238 C 
ENDBRANCH  18  19
BRANCH  21  22
ATOM     22  O   UNL     1      51.016  10.277  14.133  0.00  0.00    -0.296 OA
ATOM     23  C   UNL     1      51.182  11.097  12.974  0.00  0.00    +0.246 C 
ENDBRANCH  21  22
TORSDOF 3
ENDMDL
MODEL 9
REMARK VINA RESULT:      -4.9      2.755      4.348
REMARK  Name = ZINC04098748
REMARK  7 active torsions:
REMARK  status: ('A' for Active; 'I' for Inactive)
REMARK    1  A    between atoms: C1_1  and  C2_2
REMARK    2  A    between atoms: C2_2  and  C23_31
REMARK    3  A    between atoms: C15_18  and  O6_28
REMARK    4  A    between atoms: C16_19  and  O5_26
REMARK    5  A    between atoms: C19_22  and  O4_25
REMARK    6  A    between atoms: O5_26  and  C21_27
REMARK    7  A    between atoms: O6_28  and  C22_29
REMARK                            x       y       z     vdW  Elec       q    Type
REMARK                         _______ _______ _______ _____ _____    ______ ____
ROOT
ATOM      1  C   UNL     1      50.994  11.248  14.557  0.00  0.00    +0.038 C 
ATOM      2  C   UNL     1      50.399  12.557  14.036  0.00  0.00    +0.146 C 
ATOM      3  C   UNL     1      50.729  12.704  12.549  0.00  0.00    +0.086 C 
ATOM      4  C   UNL     1      48.904  12.526  14.211  0.00  0.00    -0.055 C 
ATOM      5  C   UNL     1      48.354  12.974  15.336  0.00  0.00    +0.061 C 
ATOM      6  C   UNL     1      49.241  13.526  16.380  0.00  0.00    -0.178 A 
ATOM      7  C   UNL     1      50.565  13.837  16.035  0.00  0.00    +0.211 A 
ATOM      8  C   UNL     1      51.434  14.347  16.990  0.00  0.00    -0.041 A 
ATOM      9  C   UNL     1      50.999  14.557  18.279  0.00  0.00    +0.167 A 
ATOM     10  C   UNL     1      49.678  14.260  18.633  0.00  0.00    -0.285 A 
ATOM     11  C   UNL     1      49.204  14.465  20.006  0.00  0.00    +0.397 C 
ATOM     12  O   UNL     1      49.979  14.774  20.889  0.00  0.00    -0.437 OA
ATOM     13  C   UNL     1      47.737  14.296  20.297  0.00  0.00    +0.125 C 
ATOM     16  C   UNL     1      47.040  15.623  20.199  0.00  0.00    -0.205 A 
ATOM     17  C   UNL     1      47.695  16.763  20.635  0.00  0.00    +0.018 A 
ATOM     18  C   UNL     1      47.076  17.998  20.564  0.00  0.00    +0.072 A 
ATOM     21  C   UNL     1      45.785  18.095  20.053  0.00  0.00    +0.156 A 
ATOM     24  C   UNL     1      45.113  16.945  19.634  0.00  0.00    -0.057 A 
ATOM     25  C   UNL     1      45.749  15.708  19.693  0.00  0.00    +0.178 A 
ATOM     26  O   UNL     1      45.089  14.617  19.238  0.00  0.00    -0.302 OA
ATOM     27  C   UNL     1      45.595  13.316  19.464  0.00  0.00    +0.315 C 
ATOM     28  C   UNL     1      47.115  13.282  19.356  0.00  0.00    +0.187 C 
ATOM     29  O   UNL     1      47.506  13.480  18.006  0.00  0.00    -0.287 OA
ATOM     30  C   UNL     1      48.783  13.751  17.677  0.00  0.00    +0.235 A 
ATOM     31  O   UNL     1      50.969  13.652  14.753  0.00  0.00    -0.296 OA
ENDROOT
BRANCH  13  14
ATOM     14  O   UNL     1      47.597  13.812  21.634  0.00  0.00    -0.531 OA
ATOM     15  H   UNL     1      47.101  14.404  22.216  0.00  0.00    +0.396 HD
ENDBRANCH  13  14
BRANCH  18  19
ATOM     19  O   UNL     1      47.726  19.114  20.994  0.00  0.00    -0.302 OA
ATOM     20  C   UNL     1      48.715  19.665  20.122  0.00  0.00    +0.238 C 
ENDBRANCH  18  19
BRANCH  21  22
ATOM     22  O   UNL     1      45.168  19.305  19.983  0.00  0.00    -0.296 OA
ATOM     23  C   UNL     1      44.513  19.630  18.756  0.00  0.00    +0.246 C 
ENDBRANCH  21  22
TORSDOF 3
ENDMDL
