MODEL 1
REMARK VINA RESULT:      -5.5      0.000      0.000
REMARK  Name = ZINC95486102
REMARK  7 active torsions:
REMARK  status: ('A' for Active; 'I' for Inactive)
REMARK    1  A    between atoms: C2_2  and  C3_3
REMARK    2  A    between atoms: C13_20  and  O6_25
REMARK    3  A    between atoms: C14_22  and  O5_24
REMARK    4  A    between atoms: O6_25  and  C15_26
REMARK    5  A    between atoms: C15_26  and  C16_28
REMARK    6  A    between atoms: C16_28  and  C17_29
REMARK    7  A    between atoms: C17_29  and  O8_30
REMARK                            x       y       z     vdW  Elec       q    Type
REMARK                         _______ _______ _______ _____ _____    ______ ____
ROOT
ATOM      3  C   UNL     1      46.512  21.020  20.514  0.00  0.00    -0.043 C 
ATOM      4  C   UNL     1      46.365  20.131  21.751  0.00  0.00    +0.269 C 
ATOM      5  O   UNL     1      47.581  20.138  22.505  0.00  0.00    -0.347 OA
ATOM      6  C   UNL     1      48.692  19.744  21.830  0.00  0.00    +0.522 C 
ATOM      7  C   UNL     1      48.881  20.327  20.481  0.00  0.00    -0.213 C 
ATOM      8  C   UNL     1      50.078  20.712  20.045  0.00  0.00    +0.182 C 
ATOM      9  O   UNL     1      49.486  18.956  22.306  0.00  0.00    -0.435 OA
ATOM     10  C   UNL     1      45.183  21.068  19.768  0.00  0.00    +0.186 C 
ATOM     13  C   UNL     1      44.815  19.730  19.160  0.00  0.00    +0.165 C 
ATOM     21  C   UNL     1      45.943  19.312  18.232  0.00  0.00    +0.011 C 
ATOM     22  C   UNL     1      45.849  17.884  17.667  0.00  0.00    +0.061 C 
ATOM     23  C   UNL     1      47.328  17.516  17.537  0.00  0.00    +0.483 C 
ATOM     24  O   UNL     1      48.054  18.354  18.303  0.00  0.00    -0.316 OA
ATOM     25  O   UNL     1      47.771  16.629  16.845  0.00  0.00    -0.436 OA
ATOM     26  C   UNL     1      47.195  19.104  19.135  0.00  0.00    +0.165 C 
ATOM     27  C   UNL     1      47.639  20.464  19.622  0.00  0.00    +0.105 C 
ENDROOT
BRANCH   3   2
ATOM      1  C   UNL     1      46.080  23.081  21.752  0.00  0.00    +0.043 C 
ATOM      2  C   UNL     1      46.878  22.414  20.955  0.00  0.00    -0.020 C 
ENDBRANCH   3   2
BRANCH  10  11
ATOM     11  O   UNL     1      45.272  22.033  18.719  0.00  0.00    -0.545 OA
ATOM     12  H   UNL     1      44.491  22.069  18.150  0.00  0.00    +0.387 HD
ENDBRANCH  10  11
BRANCH  13  14
ATOM     14  O   UNL     1      43.595  19.842  18.423  0.00  0.00    -0.335 OA
BRANCH  14  15
ATOM     15  C   UNL     1      42.454  19.827  19.129  0.00  0.00    +0.467 C 
ATOM     20  O   UNL     1      42.458  19.451  20.277  0.00  0.00    -0.498 OA
BRANCH  15  16
ATOM     16  C   UNL     1      41.166  20.278  18.490  0.00  0.00    +0.121 C 
BRANCH  16  17
ATOM     17  C   UNL     1      41.055  21.800  18.585  0.00  0.00    +0.202 C 
BRANCH  17  18
ATOM     18  O   UNL     1      42.224  22.324  19.220  0.00  0.00    -0.573 OA
ATOM     19  H   UNL     1      42.290  22.110  20.161  0.00  0.00    +0.391 HD
ENDBRANCH  17  18
ENDBRANCH  16  17
ENDBRANCH  15  16
ENDBRANCH  14  15
ENDBRANCH  13  14
TORSDOF 7
ENDMDL
MODEL 2
REMARK VINA RESULT:      -5.3      1.770      4.097
REMARK  Name = ZINC95486102
REMARK  7 active torsions:
REMARK  status: ('A' for Active; 'I' for Inactive)
REMARK    1  A    between atoms: C2_2  and  C3_3
REMARK    2  A    between atoms: C13_20  and  O6_25
REMARK    3  A    between atoms: C14_22  and  O5_24
REMARK    4  A    between atoms: O6_25  and  C15_26
REMARK    5  A    between atoms: C15_26  and  C16_28
REMARK    6  A    between atoms: C16_28  and  C17_29
REMARK    7  A    between atoms: C17_29  and  O8_30
REMARK                            x       y       z     vdW  Elec       q    Type
REMARK                         _______ _______ _______ _____ _____    ______ ____
ROOT
ATOM      3  C   UNL     1      45.754  17.805  19.799  0.00  0.00    -0.043 C 
ATOM      4  C   UNL     1      46.045  18.041  18.315  0.00  0.00    +0.269 C 
ATOM      5  O   UNL     1      47.418  17.750  18.034  0.00  0.00    -0.347 OA
ATOM      6  C   UNL     1      48.326  18.452  18.761  0.00  0.00    +0.522 C 
ATOM      7  C   UNL     1      48.072  18.542  20.219  0.00  0.00    -0.213 C 
ATOM      8  C   UNL     1      49.057  18.444  21.108  0.00  0.00    +0.182 C 
ATOM      9  O   UNL     1      49.293  18.979  18.244  0.00  0.00    -0.435 OA
ATOM     10  C   UNL     1      44.271  18.038  20.063  0.00  0.00    +0.186 C 
ATOM     13  C   UNL     1      43.874  19.489  19.885  0.00  0.00    +0.165 C 
ATOM     21  C   UNL     1      44.730  20.325  20.821  0.00  0.00    +0.011 C 
ATOM     22  C   UNL     1      44.616  21.850  20.648  0.00  0.00    +0.061 C 
ATOM     23  C   UNL     1      46.026  22.301  21.031  0.00  0.00    +0.483 C 
ATOM     24  O   UNL     1      46.856  21.241  20.961  0.00  0.00    -0.316 OA
ATOM     25  O   UNL     1      46.339  23.422  21.360  0.00  0.00    -0.436 OA
ATOM     26  C   UNL     1      46.199  20.163  20.330  0.00  0.00    +0.165 C 
ATOM     27  C   UNL     1      46.632  18.749  20.644  0.00  0.00    +0.105 C 
ENDROOT
BRANCH   3   2
ATOM      1  C   UNL     1      45.525  15.392  19.496  0.00  0.00    +0.043 C 
ATOM      2  C   UNL     1      46.097  16.378  20.143  0.00  0.00    -0.020 C 
ENDBRANCH   3   2
BRANCH  10  11
ATOM     11  O   UNL     1      43.970  17.648  21.404  0.00  0.00    -0.545 OA
ATOM     12  H   UNL     1      44.669  17.133  21.830  0.00  0.00    +0.387 HD
ENDBRANCH  10  11
BRANCH  13  14
ATOM     14  O   UNL     1      42.491  19.665  20.202  0.00  0.00    -0.335 OA
BRANCH  14  15
ATOM     15  C   UNL     1      41.701  20.150  19.232  0.00  0.00    +0.467 C 
ATOM     20  O   UNL     1      42.101  20.195  18.093  0.00  0.00    -0.498 OA
BRANCH  15  16
ATOM     16  C   UNL     1      40.316  20.641  19.563  0.00  0.00    +0.121 C 
BRANCH  16  17
ATOM     17  C   UNL     1      39.706  21.317  18.334  0.00  0.00    +0.202 C 
BRANCH  17  18
ATOM     18  O   UNL     1      40.422  22.520  18.048  0.00  0.00    -0.573 OA
ATOM     19  H   UNL     1      41.263  22.600  18.519  0.00  0.00    +0.391 HD
ENDBRANCH  17  18
ENDBRANCH  16  17
ENDBRANCH  15  16
ENDBRANCH  14  15
ENDBRANCH  13  14
TORSDOF 7
ENDMDL
MODEL 3
REMARK VINA RESULT:      -5.3      2.242      5.746
REMARK  Name = ZINC95486102
REMARK  7 active torsions:
REMARK  status: ('A' for Active; 'I' for Inactive)
REMARK    1  A    between atoms: C2_2  and  C3_3
REMARK    2  A    between atoms: C13_20  and  O6_25
REMARK    3  A    between atoms: C14_22  and  O5_24
REMARK    4  A    between atoms: O6_25  and  C15_26
REMARK    5  A    between atoms: C15_26  and  C16_28
REMARK    6  A    between atoms: C16_28  and  C17_29
REMARK    7  A    between atoms: C17_29  and  O8_30
REMARK                            x       y       z     vdW  Elec       q    Type
REMARK                         _______ _______ _______ _____ _____    ______ ____
ROOT
ATOM      3  C   UNL     1      46.664  20.091  20.096  0.00  0.00    -0.043 C 
ATOM      4  C   UNL     1      46.196  21.086  19.031  0.00  0.00    +0.269 C 
ATOM      5  O   UNL     1      44.781  21.277  19.130  0.00  0.00    -0.347 OA
ATOM      6  C   UNL     1      44.029  20.151  19.017  0.00  0.00    +0.522 C 
ATOM      7  C   UNL     1      44.480  18.979  19.804  0.00  0.00    -0.213 C 
ATOM      8  C   UNL     1      43.618  18.185  20.434  0.00  0.00    +0.182 C 
ATOM      9  O   UNL     1      43.042  20.108  18.308  0.00  0.00    -0.435 OA
ATOM     10  C   UNL     1      48.183  19.964  20.032  0.00  0.00    +0.186 C 
ATOM     13  C   UNL     1      48.653  19.308  18.749  0.00  0.00    +0.165 C 
ATOM     21  C   UNL     1      47.990  17.945  18.651  0.00  0.00    +0.011 C 
ATOM     22  C   UNL     1      48.187  17.200  17.320  0.00  0.00    +0.061 C 
ATOM     23  C   UNL     1      46.874  16.420  17.216  0.00  0.00    +0.483 C 
ATOM     24  O   UNL     1      45.971  16.978  18.046  0.00  0.00    -0.316 OA
ATOM     25  O   UNL     1      46.688  15.452  16.517  0.00  0.00    -0.436 OA
ATOM     26  C   UNL     1      46.461  18.212  18.524  0.00  0.00    +0.165 C 
ATOM     27  C   UNL     1      45.976  18.733  19.857  0.00  0.00    +0.105 C 
ENDROOT
BRANCH   3   2
ATOM      1  C   UNL     1      46.634  21.811  21.829  0.00  0.00    +0.043 C 
ATOM      2  C   UNL     1      46.272  20.608  21.456  0.00  0.00    -0.020 C 
ENDBRANCH   3   2
BRANCH  10  11
ATOM     11  O   UNL     1      48.631  19.174  21.134  0.00  0.00    -0.545 OA
ATOM     12  H   UNL     1      49.568  18.940  21.095  0.00  0.00    +0.387 HD
ENDBRANCH  10  11
BRANCH  13  14
ATOM     14  O   UNL     1      50.074  19.158  18.764  0.00  0.00    -0.335 OA
BRANCH  14  15
ATOM     15  C   UNL     1      50.785  20.015  18.016  0.00  0.00    +0.467 C 
ATOM     20  O   UNL     1      50.442  21.170  17.930  0.00  0.00    -0.498 OA
BRANCH  15  16
ATOM     16  C   UNL     1      52.012  19.538  17.282  0.00  0.00    +0.121 C 
BRANCH  16  17
ATOM     17  C   UNL     1      51.965  20.032  15.836  0.00  0.00    +0.202 C 
BRANCH  17  18
ATOM     18  O   UNL     1      52.364  21.404  15.788  0.00  0.00    -0.573 OA
ATOM     19  H   UNL     1      52.855  21.698  16.568  0.00  0.00    +0.391 HD
ENDBRANCH  17  18
ENDBRANCH  16  17
ENDBRANCH  15  16
ENDBRANCH  14  15
ENDBRANCH  13  14
TORSDOF 7
ENDMDL
MODEL 4
REMARK VINA RESULT:      -5.1      2.061      5.578
REMARK  Name = ZINC95486102
REMARK  7 active torsions:
REMARK  status: ('A' for Active; 'I' for Inactive)
REMARK    1  A    between atoms: C2_2  and  C3_3
REMARK    2  A    between atoms: C13_20  and  O6_25
REMARK    3  A    between atoms: C14_22  and  O5_24
REMARK    4  A    between atoms: O6_25  and  C15_26
REMARK    5  A    between atoms: C15_26  and  C16_28
REMARK    6  A    between atoms: C16_28  and  C17_29
REMARK    7  A    between atoms: C17_29  and  O8_30
REMARK                            x       y       z     vdW  Elec       q    Type
REMARK                         _______ _______ _______ _____ _____    ______ ____
ROOT
ATOM      3  C   UNL     1      45.353  20.443  20.639  0.00  0.00    -0.043 C 
ATOM      4  C   UNL     1      44.930  20.999  19.277  0.00  0.00    +0.269 C 
ATOM      5  O   UNL     1      43.511  21.183  19.245  0.00  0.00    -0.347 OA
ATOM      6  C   UNL     1      42.770  20.073  19.498  0.00  0.00    +0.522 C 
ATOM      7  C   UNL     1      43.190  19.255  20.661  0.00  0.00    -0.213 C 
ATOM      8  C   UNL     1      42.303  18.711  21.490  0.00  0.00    +0.182 C 
ATOM      9  O   UNL     1      41.816  19.767  18.808  0.00  0.00    -0.435 OA
ATOM     10  C   UNL     1      46.874  20.332  20.685  0.00  0.00    +0.186 C 
ATOM     13  C   UNL     1      47.405  19.283  19.731  0.00  0.00    +0.165 C 
ATOM     21  C   UNL     1      46.753  17.957  20.084  0.00  0.00    +0.011 C 
ATOM     22  C   UNL     1      47.014  16.801  19.103  0.00  0.00    +0.061 C 
ATOM     23  C   UNL     1      45.712  16.008  19.221  0.00  0.00    +0.483 C 
ATOM     24  O   UNL     1      44.768  16.800  19.768  0.00  0.00    -0.316 OA
ATOM     25  O   UNL     1      45.561  14.854  18.894  0.00  0.00    -0.436 OA
ATOM     26  C   UNL     1      45.230  18.133  19.809  0.00  0.00    +0.165 C 
ATOM     27  C   UNL     1      44.682  19.073  20.857  0.00  0.00    +0.105 C 
ENDROOT
BRANCH   3   2
ATOM      1  C   UNL     1      45.230  22.657  21.661  0.00  0.00    +0.043 C 
ATOM      2  C   UNL     1      44.897  21.391  21.718  0.00  0.00    -0.020 C 
ENDBRANCH   3   2
BRANCH  10  11
ATOM     11  O   UNL     1      47.274  19.982  22.011  0.00  0.00    -0.545 OA
ATOM     12  H   UNL     1      46.706  19.323  22.433  0.00  0.00    +0.387 HD
ENDBRANCH  10  11
BRANCH  13  14
ATOM     14  O   UNL     1      48.825  19.176  19.855  0.00  0.00    -0.335 OA
BRANCH  14  15
ATOM     15  C   UNL     1      49.561  19.586  18.811  0.00  0.00    +0.467 C 
ATOM     20  O   UNL     1      49.900  18.796  17.963  0.00  0.00    -0.498 OA
BRANCH  15  16
ATOM     16  C   UNL     1      49.965  21.034  18.696  0.00  0.00    +0.121 C 
BRANCH  16  17
ATOM     17  C   UNL     1      51.483  21.127  18.530  0.00  0.00    +0.202 C 
BRANCH  17  18
ATOM     18  O   UNL     1      51.804  21.228  17.140  0.00  0.00    -0.573 OA
ATOM     19  H   UNL     1      52.520  21.848  16.946  0.00  0.00    +0.391 HD
ENDBRANCH  17  18
ENDBRANCH  16  17
ENDBRANCH  15  16
ENDBRANCH  14  15
ENDBRANCH  13  14
TORSDOF 7
ENDMDL
MODEL 5
REMARK VINA RESULT:      -4.9      3.026      5.988
REMARK  Name = ZINC95486102
REMARK  7 active torsions:
REMARK  status: ('A' for Active; 'I' for Inactive)
REMARK    1  A    between atoms: C2_2  and  C3_3
REMARK    2  A    between atoms: C13_20  and  O6_25
REMARK    3  A    between atoms: C14_22  and  O5_24
REMARK    4  A    between atoms: O6_25  and  C15_26
REMARK    5  A    between atoms: C15_26  and  C16_28
REMARK    6  A    between atoms: C16_28  and  C17_29
REMARK    7  A    between atoms: C17_29  and  O8_30
REMARK                            x       y       z     vdW  Elec       q    Type
REMARK                         _______ _______ _______ _____ _____    ______ ____
ROOT
ATOM      3  C   UNL     1      50.820  18.038  18.334  0.00  0.00    -0.043 C 
ATOM      4  C   UNL     1      50.798  18.174  16.809  0.00  0.00    +0.269 C 
ATOM      5  O   UNL     1      51.713  19.194  16.397  0.00  0.00    -0.347 OA
ATOM      6  C   UNL     1      51.502  20.423  16.935  0.00  0.00    +0.522 C 
ATOM      7  C   UNL     1      51.255  20.466  18.396  0.00  0.00    -0.213 C 
ATOM      8  C   UNL     1      51.779  21.416  19.167  0.00  0.00    +0.182 C 
ATOM      9  O   UNL     1      51.514  21.432  16.256  0.00  0.00    -0.435 OA
ATOM     10  C   UNL     1      49.903  16.892  18.749  0.00  0.00    +0.186 C 
ATOM     13  C   UNL     1      48.444  17.192  18.474  0.00  0.00    +0.165 C 
ATOM     21  C   UNL     1      48.082  18.470  19.211  0.00  0.00    +0.011 C 
ATOM     22  C   UNL     1      46.692  19.051  18.900  0.00  0.00    +0.061 C 
ATOM     23  C   UNL     1      46.951  20.550  19.064  0.00  0.00    +0.483 C 
ATOM     24  O   UNL     1      48.279  20.771  19.002  0.00  0.00    -0.316 OA
ATOM     25  O   UNL     1      46.102  21.393  19.238  0.00  0.00    -0.436 OA
ATOM     26  C   UNL     1      48.938  19.601  18.567  0.00  0.00    +0.165 C 
ATOM     27  C   UNL     1      50.376  19.371  18.968  0.00  0.00    +0.105 C 
ENDROOT
BRANCH   3   2
ATOM      1  C   UNL     1      52.776  16.582  18.457  0.00  0.00    +0.043 C 
ATOM      2  C   UNL     1      52.226  17.727  18.777  0.00  0.00    -0.020 C 
ENDBRANCH   3   2
BRANCH  10  11
ATOM     11  O   UNL     1      50.060  16.654  20.149  0.00  0.00    -0.545 OA
ATOM     12  H   UNL     1      50.445  17.397  20.633  0.00  0.00    +0.387 HD
ENDBRANCH  10  11
BRANCH  13  14
ATOM     14  O   UNL     1      47.623  16.116  18.934  0.00  0.00    -0.335 OA
BRANCH  14  15
ATOM     15  C   UNL     1      46.931  15.437  18.006  0.00  0.00    +0.467 C 
ATOM     20  O   UNL     1      46.477  16.016  17.048  0.00  0.00    -0.498 OA
BRANCH  15  16
ATOM     16  C   UNL     1      46.719  13.953  18.159  0.00  0.00    +0.121 C 
BRANCH  16  17
ATOM     17  C   UNL     1      45.454  13.702  18.982  0.00  0.00    +0.202 C 
BRANCH  17  18
ATOM     18  O   UNL     1      44.999  14.934  19.545  0.00  0.00    -0.573 OA
ATOM     19  H   UNL     1      44.274  14.835  20.177  0.00  0.00    +0.391 HD
ENDBRANCH  17  18
ENDBRANCH  16  17
ENDBRANCH  15  16
ENDBRANCH  14  15
ENDBRANCH  13  14
TORSDOF 7
ENDMDL
MODEL 6
REMARK VINA RESULT:      -4.7      2.222      5.552
REMARK  Name = ZINC95486102
REMARK  7 active torsions:
REMARK  status: ('A' for Active; 'I' for Inactive)
REMARK    1  A    between atoms: C2_2  and  C3_3
REMARK    2  A    between atoms: C13_20  and  O6_25
REMARK    3  A    between atoms: C14_22  and  O5_24
REMARK    4  A    between atoms: O6_25  and  C15_26
REMARK    5  A    between atoms: C15_26  and  C16_28
REMARK    6  A    between atoms: C16_28  and  C17_29
REMARK    7  A    between atoms: C17_29  and  O8_30
REMARK                            x       y       z     vdW  Elec       q    Type
REMARK                         _______ _______ _______ _____ _____    ______ ____
ROOT
ATOM      3  C   UNL     1      47.150  19.802  19.624  0.00  0.00    -0.043 C 
ATOM      4  C   UNL     1      46.225  20.327  18.524  0.00  0.00    +0.269 C 
ATOM      5  O   UNL     1      45.754  21.635  18.865  0.00  0.00    -0.347 OA
ATOM      6  C   UNL     1      45.100  21.731  20.052  0.00  0.00    +0.522 C 
ATOM      7  C   UNL     1      45.737  21.059  21.209  0.00  0.00    -0.213 C 
ATOM      8  C   UNL     1      45.760  21.616  22.417  0.00  0.00    +0.182 C 
ATOM      9  O   UNL     1      44.049  22.335  20.158  0.00  0.00    -0.435 OA
ATOM     10  C   UNL     1      47.708  18.445  19.205  0.00  0.00    +0.186 C 
ATOM     13  C   UNL     1      46.637  17.375  19.148  0.00  0.00    +0.165 C 
ATOM     21  C   UNL     1      45.983  17.294  20.517  0.00  0.00    +0.011 C 
ATOM     22  C   UNL     1      44.735  16.399  20.609  0.00  0.00    +0.061 C 
ATOM     23  C   UNL     1      43.924  17.126  21.684  0.00  0.00    +0.483 C 
ATOM     24  O   UNL     1      44.393  18.384  21.805  0.00  0.00    -0.316 OA
ATOM     25  O   UNL     1      43.025  16.642  22.330  0.00  0.00    -0.436 OA
ATOM     26  C   UNL     1      45.282  18.666  20.746  0.00  0.00    +0.165 C 
ATOM     27  C   UNL     1      46.363  19.703  20.945  0.00  0.00    +0.105 C 
ENDROOT
BRANCH   3   2
ATOM      1  C   UNL     1      49.213  20.875  18.878  0.00  0.00    +0.043 C 
ATOM      2  C   UNL     1      48.293  20.767  19.805  0.00  0.00    -0.020 C 
ENDBRANCH   3   2
BRANCH  10  11
ATOM     11  O   UNL     1      48.702  18.040  20.148  0.00  0.00    -0.545 OA
ATOM     12  H   UNL     1      49.476  18.619  20.176  0.00  0.00    +0.387 HD
ENDBRANCH  10  11
BRANCH  13  14
ATOM     14  O   UNL     1      47.219  16.113  18.811  0.00  0.00    -0.335 OA
BRANCH  14  15
ATOM     15  C   UNL     1      47.232  15.777  17.512  0.00  0.00    +0.467 C 
ATOM     20  O   UNL     1      46.419  16.250  16.756  0.00  0.00    -0.498 OA
BRANCH  15  16
ATOM     16  C   UNL     1      48.263  14.805  16.996  0.00  0.00    +0.121 C 
BRANCH  16  17
ATOM     17  C   UNL     1      47.559  13.595  16.381  0.00  0.00    +0.202 C 
BRANCH  17  18
ATOM     18  O   UNL     1      47.143  13.912  15.050  0.00  0.00    -0.573 OA
ATOM     19  H   UNL     1      47.165  13.161  14.441  0.00  0.00    +0.391 HD
ENDBRANCH  17  18
ENDBRANCH  16  17
ENDBRANCH  15  16
ENDBRANCH  14  15
ENDBRANCH  13  14
TORSDOF 7
ENDMDL
MODEL 7
REMARK VINA RESULT:      -4.5      3.241      6.740
REMARK  Name = ZINC95486102
REMARK  7 active torsions:
REMARK  status: ('A' for Active; 'I' for Inactive)
REMARK    1  A    between atoms: C2_2  and  C3_3
REMARK    2  A    between atoms: C13_20  and  O6_25
REMARK    3  A    between atoms: C14_22  and  O5_24
REMARK    4  A    between atoms: O6_25  and  C15_26
REMARK    5  A    between atoms: C15_26  and  C16_28
REMARK    6  A    between atoms: C16_28  and  C17_29
REMARK    7  A    between atoms: C17_29  and  O8_30
REMARK                            x       y       z     vdW  Elec       q    Type
REMARK                         _______ _______ _______ _____ _____    ______ ____
ROOT
ATOM      3  C   UNL     1      47.422  16.084  18.569  0.00  0.00    -0.043 C 
ATOM      4  C   UNL     1      48.316  15.359  19.578  0.00  0.00    +0.269 C 
ATOM      5  O   UNL     1      47.514  14.768  20.605  0.00  0.00    -0.347 OA
ATOM      6  C   UNL     1      46.713  15.626  21.289  0.00  0.00    +0.522 C 
ATOM      7  C   UNL     1      45.937  16.590  20.474  0.00  0.00    -0.213 C 
ATOM      8  C   UNL     1      44.675  16.895  20.765  0.00  0.00    +0.182 C 
ATOM      9  O   UNL     1      46.639  15.604  22.503  0.00  0.00    -0.435 OA
ATOM     10  C   UNL     1      48.284  16.635  17.438  0.00  0.00    +0.186 C 
ATOM     13  C   UNL     1      49.207  17.742  17.904  0.00  0.00    +0.165 C 
ATOM     21  C   UNL     1      48.351  18.838  18.516  0.00  0.00    +0.011 C 
ATOM     22  C   UNL     1      49.118  19.966  19.227  0.00  0.00    +0.061 C 
ATOM     23  C   UNL     1      48.130  20.351  20.330  0.00  0.00    +0.483 C 
ATOM     24  O   UNL     1      47.244  19.348  20.489  0.00  0.00    -0.316 OA
ATOM     25  O   UNL     1      48.135  21.393  20.943  0.00  0.00    -0.436 OA
ATOM     26  C   UNL     1      47.676  18.211  19.773  0.00  0.00    +0.165 C 
ATOM     27  C   UNL     1      46.654  17.209  19.290  0.00  0.00    +0.105 C 
ENDROOT
BRANCH   3   2
ATOM      1  C   UNL     1      46.856  14.010  17.410  0.00  0.00    +0.043 C 
ATOM      2  C   UNL     1      46.432  15.102  17.998  0.00  0.00    -0.020 C 
ENDBRANCH   3   2
BRANCH  10  11
ATOM     11  O   UNL     1      47.434  17.155  16.415  0.00  0.00    -0.545 OA
ATOM     12  H   UNL     1      47.689  16.893  15.520  0.00  0.00    +0.387 HD
ENDBRANCH  10  11
BRANCH  13  14
ATOM     14  O   UNL     1      49.948  18.264  16.798  0.00  0.00    -0.335 OA
BRANCH  14  15
ATOM     15  C   UNL     1      51.286  18.259  16.905  0.00  0.00    +0.467 C 
ATOM     20  O   UNL     1      51.837  17.404  17.556  0.00  0.00    -0.498 OA
BRANCH  15  16
ATOM     16  C   UNL     1      52.101  19.322  16.214  0.00  0.00    +0.121 C 
BRANCH  16  17
ATOM     17  C   UNL     1      51.793  20.685  16.835  0.00  0.00    +0.202 C 
BRANCH  17  18
ATOM     18  O   UNL     1      51.776  21.682  15.811  0.00  0.00    -0.573 OA
ATOM     19  H   UNL     1      52.221  21.416  14.995  0.00  0.00    +0.391 HD
ENDBRANCH  17  18
ENDBRANCH  16  17
ENDBRANCH  15  16
ENDBRANCH  14  15
ENDBRANCH  13  14
TORSDOF 7
ENDMDL
MODEL 8
REMARK VINA RESULT:      -4.5      2.230      5.771
REMARK  Name = ZINC95486102
REMARK  7 active torsions:
REMARK  status: ('A' for Active; 'I' for Inactive)
REMARK    1  A    between atoms: C2_2  and  C3_3
REMARK    2  A    between atoms: C13_20  and  O6_25
REMARK    3  A    between atoms: C14_22  and  O5_24
REMARK    4  A    between atoms: O6_25  and  C15_26
REMARK    5  A    between atoms: C15_26  and  C16_28
REMARK    6  A    between atoms: C16_28  and  C17_29
REMARK    7  A    between atoms: C17_29  and  O8_30
REMARK                            x       y       z     vdW  Elec       q    Type
REMARK                         _______ _______ _______ _____ _____    ______ ____
ROOT
ATOM      3  C   UNL     1      46.201  20.275  20.222  0.00  0.00    -0.043 C 
ATOM      4  C   UNL     1      45.739  20.849  18.880  0.00  0.00    +0.269 C 
ATOM      5  O   UNL     1      44.353  21.199  18.950  0.00  0.00    -0.347 OA
ATOM      6  C   UNL     1      43.511  20.190  19.292  0.00  0.00    +0.522 C 
ATOM      7  C   UNL     1      43.923  19.352  20.443  0.00  0.00    -0.213 C 
ATOM      8  C   UNL     1      43.047  18.933  21.353  0.00  0.00    +0.182 C 
ATOM      9  O   UNL     1      42.477  19.985  18.686  0.00  0.00    -0.435 OA
ATOM     10  C   UNL     1      47.697  19.986  20.157  0.00  0.00    +0.186 C 
ATOM     13  C   UNL     1      48.026  18.862  19.196  0.00  0.00    +0.165 C 
ATOM     21  C   UNL     1      47.254  17.630  19.637  0.00  0.00    +0.011 C 
ATOM     22  C   UNL     1      47.301  16.432  18.673  0.00  0.00    +0.061 C 
ATOM     23  C   UNL     1      45.928  15.800  18.914  0.00  0.00    +0.483 C 
ATOM     24  O   UNL     1      45.130  16.710  19.507  0.00  0.00    -0.316 OA
ATOM     25  O   UNL     1      45.620  14.666  18.633  0.00  0.00    -0.436 OA
ATOM     26  C   UNL     1      45.745  17.979  19.473  0.00  0.00    +0.165 C 
ATOM     27  C   UNL     1      45.395  18.999  20.532  0.00  0.00    +0.105 C 
ENDROOT
BRANCH   3   2
ATOM      1  C   UNL     1      46.444  22.499  21.201  0.00  0.00    +0.043 C 
ATOM      2  C   UNL     1      45.944  21.293  21.304  0.00  0.00    -0.020 C 
ENDBRANCH   3   2
BRANCH  10  11
ATOM     11  O   UNL     1      48.157  19.619  21.458  0.00  0.00    -0.545 OA
ATOM     12  H   UNL     1      48.229  18.664  21.595  0.00  0.00    +0.387 HD
ENDBRANCH  10  11
BRANCH  13  14
ATOM     14  O   UNL     1      49.429  18.590  19.216  0.00  0.00    -0.335 OA
BRANCH  14  15
ATOM     15  C   UNL     1      50.134  18.947  18.132  0.00  0.00    +0.467 C 
ATOM     20  O   UNL     1      50.670  20.029  18.089  0.00  0.00    -0.498 OA
BRANCH  15  16
ATOM     16  C   UNL     1      50.256  17.999  16.966  0.00  0.00    +0.121 C 
BRANCH  16  17
ATOM     17  C   UNL     1      51.022  16.750  17.403  0.00  0.00    +0.202 C 
BRANCH  17  18
ATOM     18  O   UNL     1      52.390  16.866  17.002  0.00  0.00    -0.573 OA
ATOM     19  H   UNL     1      52.644  16.261  16.292  0.00  0.00    +0.391 HD
ENDBRANCH  17  18
ENDBRANCH  16  17
ENDBRANCH  15  16
ENDBRANCH  14  15
ENDBRANCH  13  14
TORSDOF 7
ENDMDL
MODEL 9
REMARK VINA RESULT:      -4.5      3.471      6.185
REMARK  Name = ZINC95486102
REMARK  7 active torsions:
REMARK  status: ('A' for Active; 'I' for Inactive)
REMARK    1  A    between atoms: C2_2  and  C3_3
REMARK    2  A    between atoms: C13_20  and  O6_25
REMARK    3  A    between atoms: C14_22  and  O5_24
REMARK    4  A    between atoms: O6_25  and  C15_26
REMARK    5  A    between atoms: C15_26  and  C16_28
REMARK    6  A    between atoms: C16_28  and  C17_29
REMARK    7  A    between atoms: C17_29  and  O8_30
REMARK                            x       y       z     vdW  Elec       q    Type
REMARK                         _______ _______ _______ _____ _____    ______ ____
ROOT
ATOM      3  C   UNL     1      47.466  17.268  19.050  0.00  0.00    -0.043 C 
ATOM      4  C   UNL     1      48.086  16.876  20.394  0.00  0.00    +0.269 C 
ATOM      5  O   UNL     1      47.804  17.881  21.373  0.00  0.00    -0.347 OA
ATOM      6  C   UNL     1      48.224  19.135  21.064  0.00  0.00    +0.522 C 
ATOM      7  C   UNL     1      47.922  19.608  19.692  0.00  0.00    -0.213 C 
ATOM      8  C   UNL     1      47.525  20.855  19.453  0.00  0.00    +0.182 C 
ATOM      9  O   UNL     1      48.815  19.830  21.868  0.00  0.00    -0.435 OA
ATOM     10  C   UNL     1      47.704  16.150  18.042  0.00  0.00    +0.186 C 
ATOM     13  C   UNL     1      49.169  15.994  17.687  0.00  0.00    +0.165 C 
ATOM     21  C   UNL     1      49.663  17.325  17.147  0.00  0.00    +0.011 C 
ATOM     22  C   UNL     1      51.180  17.429  16.914  0.00  0.00    +0.061 C 
ATOM     23  C   UNL     1      51.425  18.913  17.197  0.00  0.00    +0.483 C 
ATOM     24  O   UNL     1      50.379  19.401  17.892  0.00  0.00    -0.316 OA
ATOM     25  O   UNL     1      52.391  19.544  16.838  0.00  0.00    -0.436 OA
ATOM     26  C   UNL     1      49.556  18.339  18.325  0.00  0.00    +0.165 C 
ATOM     27  C   UNL     1      48.088  18.596  18.575  0.00  0.00    +0.105 C 
ENDROOT
BRANCH   3   2
ATOM      1  C   UNL     1      45.245  16.472  19.677  0.00  0.00    +0.043 C 
ATOM      2  C   UNL     1      45.983  17.459  19.232  0.00  0.00    -0.020 C 
ENDBRANCH   3   2
BRANCH  10  11
ATOM     11  O   UNL     1      46.978  16.439  16.846  0.00  0.00    -0.545 OA
ATOM     12  H   UNL     1      46.646  17.346  16.797  0.00  0.00    +0.387 HD
ENDBRANCH  10  11
BRANCH  13  14
ATOM     14  O   UNL     1      49.331  14.976  16.697  0.00  0.00    -0.335 OA
BRANCH  14  15
ATOM     15  C   UNL     1      49.381  13.707  17.130  0.00  0.00    +0.467 C 
ATOM     20  O   UNL     1      50.286  13.347  17.844  0.00  0.00    -0.498 OA
BRANCH  15  16
ATOM     16  C   UNL     1      48.308  12.729  16.724  0.00  0.00    +0.121 C 
BRANCH  16  17
ATOM     17  C   UNL     1      47.915  12.980  15.267  0.00  0.00    +0.202 C 
BRANCH  17  18
ATOM     18  O   UNL     1      47.038  14.107  15.198  0.00  0.00    -0.573 OA
ATOM     19  H   UNL     1      47.284  14.834  15.787  0.00  0.00    +0.391 HD
ENDBRANCH  17  18
ENDBRANCH  16  17
ENDBRANCH  15  16
ENDBRANCH  14  15
ENDBRANCH  13  14
TORSDOF 7
ENDMDL
