MODEL 1
REMARK VINA RESULT:      -6.4      0.000      0.000
REMARK  Name = ZINC00006256
REMARK  0 active torsions:
REMARK  status: ('A' for Active; 'I' for Inactive)
REMARK                            x       y       z     vdW  Elec       q    Type
REMARK                         _______ _______ _______ _____ _____    ______ ____
ROOT
ATOM      1  C   UNL     1      40.662  19.608  18.862  0.00  0.00    +0.052 A 
ATOM      2  C   UNL     1      40.380  20.866  18.352  0.00  0.00    +0.013 A 
ATOM      3  C   UNL     1      41.231  21.923  18.587  0.00  0.00    +0.089 A 
ATOM      4  C   UNL     1      42.391  21.725  19.341  0.00  0.00    -0.148 A 
ATOM      5  C   UNL     1      42.680  20.446  19.853  0.00  0.00    -0.003 A 
ATOM      6  C   UNL     1      43.902  20.230  20.647  0.00  0.00    -0.027 A 
ATOM      7  C   UNL     1      44.782  21.301  20.897  0.00  0.00    -0.053 A 
ATOM      8  C   UNL     1      45.954  21.081  21.665  0.00  0.00    -0.021 A 
ATOM      9  C   UNL     1      46.227  19.796  22.166  0.00  0.00    +0.068 A 
ATOM     10  C   UNL     1      45.368  18.765  21.915  0.00  0.00    +0.061 A 
ATOM     11  O   UNL     1      45.416  17.452  22.286  0.00  0.00    -0.298 OA
ATOM     12  C   UNL     1      44.498  16.771  21.411  0.00  0.00    +0.444 C 
ATOM     13  O   UNL     1      43.535  17.784  21.064  0.00  0.00    -0.292 OA
ATOM     14  C   UNL     1      46.808  22.169  21.896  0.00  0.00    +0.045 A 
ATOM     15  C   UNL     1      46.473  23.401  21.369  0.00  0.00    +0.249 A 
ATOM     16  N   UNL     1      45.378  23.581  20.659  0.00  0.00    -0.416 NA
ATOM     17  C   UNL     1      44.528  22.598  20.403  0.00  0.00    +0.094 A 
ATOM     18  C   UNL     1      44.202  18.968  21.158  0.00  0.00    +0.083 A 
ATOM     19  C   UNL     1      43.312  22.843  19.603  0.00  0.00    +0.443 C 
ATOM     20  O   UNL     1      43.074  23.954  19.165  0.00  0.00    -0.412 OA
ATOM     21  C   UNL     1      41.803  19.390  19.603  0.00  0.00    +0.031 A 
ENDROOT
TORSDOF 0
ENDMDL
MODEL 2
REMARK VINA RESULT:      -6.3     21.527     23.349
REMARK  Name = ZINC00006256
REMARK  0 active torsions:
REMARK  status: ('A' for Active; 'I' for Inactive)
REMARK                            x       y       z     vdW  Elec       q    Type
REMARK                         _______ _______ _______ _____ _____    ______ ____
ROOT
ATOM      1  C   UNL     1      57.443  33.369   5.629  0.00  0.00    +0.052 A 
ATOM      2  C   UNL     1      58.057  32.788   4.529  0.00  0.00    +0.013 A 
ATOM      3  C   UNL     1      57.306  32.330   3.469  0.00  0.00    +0.089 A 
ATOM      4  C   UNL     1      55.915  32.458   3.498  0.00  0.00    -0.148 A 
ATOM      5  C   UNL     1      55.292  33.055   4.612  0.00  0.00    -0.003 A 
ATOM      6  C   UNL     1      53.826  33.194   4.648  0.00  0.00    -0.027 A 
ATOM      7  C   UNL     1      53.044  32.731   3.573  0.00  0.00    -0.053 A 
ATOM      8  C   UNL     1      51.633  32.869   3.621  0.00  0.00    -0.021 A 
ATOM      9  C   UNL     1      51.030  33.470   4.741  0.00  0.00    +0.068 A 
ATOM     10  C   UNL     1      51.799  33.917   5.776  0.00  0.00    +0.061 A 
ATOM     11  O   UNL     1      51.452  34.524   6.950  0.00  0.00    -0.298 OA
ATOM     12  C   UNL     1      52.661  35.131   7.441  0.00  0.00    +0.444 C 
ATOM     13  O   UNL     1      53.709  34.309   6.893  0.00  0.00    -0.292 OA
ATOM     14  C   UNL     1      50.885  32.396   2.534  0.00  0.00    +0.045 A 
ATOM     15  C   UNL     1      51.549  31.820   1.469  0.00  0.00    +0.249 A 
ATOM     16  N   UNL     1      52.861  31.702   1.447  0.00  0.00    -0.416 NA
ATOM     17  C   UNL     1      53.629  32.127   2.440  0.00  0.00    +0.094 A 
ATOM     18  C   UNL     1      53.198  33.785   5.744  0.00  0.00    +0.083 A 
ATOM     19  C   UNL     1      55.096  31.975   2.375  0.00  0.00    +0.443 C 
ATOM     20  O   UNL     1      55.621  31.459   1.406  0.00  0.00    -0.412 OA
ATOM     21  C   UNL     1      56.073  33.510   5.675  0.00  0.00    +0.031 A 
ENDROOT
TORSDOF 0
ENDMDL
MODEL 3
REMARK VINA RESULT:      -5.8      5.767      8.133
REMARK  Name = ZINC00006256
REMARK  0 active torsions:
REMARK  status: ('A' for Active; 'I' for Inactive)
REMARK                            x       y       z     vdW  Elec       q    Type
REMARK                         _______ _______ _______ _____ _____    ______ ____
ROOT
ATOM      1  C   UNL     1      51.262  21.151  18.795  0.00  0.00    +0.052 A 
ATOM      2  C   UNL     1      52.382  20.416  18.440  0.00  0.00    +0.013 A 
ATOM      3  C   UNL     1      52.257  19.115  18.006  0.00  0.00    +0.089 A 
ATOM      4  C   UNL     1      50.990  18.533  17.918  0.00  0.00    -0.148 A 
ATOM      5  C   UNL     1      49.851  19.282  18.272  0.00  0.00    -0.003 A 
ATOM      6  C   UNL     1      48.512  18.675  18.180  0.00  0.00    -0.027 A 
ATOM      7  C   UNL     1      48.367  17.345  17.739  0.00  0.00    -0.053 A 
ATOM      8  C   UNL     1      47.072  16.771  17.656  0.00  0.00    -0.021 A 
ATOM      9  C   UNL     1      45.947  17.536  18.013  0.00  0.00    +0.068 A 
ATOM     10  C   UNL     1      46.101  18.825  18.436  0.00  0.00    +0.061 A 
ATOM     11  O   UNL     1      45.178  19.752  18.829  0.00  0.00    -0.298 OA
ATOM     12  C   UNL     1      45.855  21.021  18.761  0.00  0.00    +0.444 C 
ATOM     13  O   UNL     1      47.239  20.686  18.972  0.00  0.00    -0.292 OA
ATOM     14  C   UNL     1      46.964  15.445  17.214  0.00  0.00    +0.045 A 
ATOM     15  C   UNL     1      48.114  14.758  16.881  0.00  0.00    +0.249 A 
ATOM     16  N   UNL     1      49.307  15.313  16.966  0.00  0.00    -0.416 NA
ATOM     17  C   UNL     1      49.482  16.561  17.376  0.00  0.00    +0.094 A 
ATOM     18  C   UNL     1      47.377  19.406  18.525  0.00  0.00    +0.083 A 
ATOM     19  C   UNL     1      50.836  17.143  17.457  0.00  0.00    +0.443 C 
ATOM     20  O   UNL     1      51.811  16.485  17.146  0.00  0.00    -0.412 OA
ATOM     21  C   UNL     1      50.003  20.598  18.709  0.00  0.00    +0.031 A 
ENDROOT
TORSDOF 0
ENDMDL
MODEL 4
REMARK VINA RESULT:      -5.8     21.361     23.201
REMARK  Name = ZINC00006256
REMARK  0 active torsions:
REMARK  status: ('A' for Active; 'I' for Inactive)
REMARK                            x       y       z     vdW  Elec       q    Type
REMARK                         _______ _______ _______ _____ _____    ______ ____
ROOT
ATOM      1  C   UNL     1      51.088  32.398   1.563  0.00  0.00    +0.052 A 
ATOM      2  C   UNL     1      51.845  31.884   0.521  0.00  0.00    +0.013 A 
ATOM      3  C   UNL     1      53.210  31.748   0.648  0.00  0.00    +0.089 A 
ATOM      4  C   UNL     1      53.836  32.125   1.838  0.00  0.00    -0.148 A 
ATOM      5  C   UNL     1      53.067  32.640   2.899  0.00  0.00    -0.003 A 
ATOM      6  C   UNL     1      53.721  33.039   4.158  0.00  0.00    -0.027 A 
ATOM      7  C   UNL     1      55.115  32.907   4.303  0.00  0.00    -0.053 A 
ATOM      8  C   UNL     1      55.733  33.295   5.519  0.00  0.00    -0.021 A 
ATOM      9  C   UNL     1      54.947  33.806   6.568  0.00  0.00    +0.068 A 
ATOM     10  C   UNL     1      53.596  33.927   6.416  0.00  0.00    +0.061 A 
ATOM     11  O   UNL     1      52.638  34.386   7.274  0.00  0.00    -0.298 OA
ATOM     12  C   UNL     1      51.388  33.901   6.749  0.00  0.00    +0.444 C 
ATOM     13  O   UNL     1      51.631  33.774   5.337  0.00  0.00    -0.292 OA
ATOM     14  C   UNL     1      57.123  33.151   5.631  0.00  0.00    +0.045 A 
ATOM     15  C   UNL     1      57.828  32.640   4.558  0.00  0.00    +0.249 A 
ATOM     16  N   UNL     1      57.231  32.286   3.438  0.00  0.00    -0.416 NA
ATOM     17  C   UNL     1      55.922  32.396   3.265  0.00  0.00    +0.094 A 
ATOM     18  C   UNL     1      52.970  33.548   5.216  0.00  0.00    +0.083 A 
ATOM     19  C   UNL     1      55.294  31.988   1.993  0.00  0.00    +0.443 C 
ATOM     20  O   UNL     1      55.971  31.542   1.084  0.00  0.00    -0.412 OA
ATOM     21  C   UNL     1      51.685  32.770   2.747  0.00  0.00    +0.031 A 
ENDROOT
TORSDOF 0
ENDMDL
MODEL 5
REMARK VINA RESULT:      -5.6      5.774      7.676
REMARK  Name = ZINC00006256
REMARK  0 active torsions:
REMARK  status: ('A' for Active; 'I' for Inactive)
REMARK                            x       y       z     vdW  Elec       q    Type
REMARK                         _______ _______ _______ _____ _____    ______ ____
ROOT
ATOM      1  C   UNL     1      52.212  19.902  17.680  0.00  0.00    +0.052 A 
ATOM      2  C   UNL     1      51.681  21.033  18.281  0.00  0.00    +0.013 A 
ATOM      3  C   UNL     1      50.384  21.034  18.745  0.00  0.00    +0.089 A 
ATOM      4  C   UNL     1      49.600  19.885  18.616  0.00  0.00    -0.148 A 
ATOM      5  C   UNL     1      50.142  18.735  18.012  0.00  0.00    -0.003 A 
ATOM      6  C   UNL     1      49.321  17.519  17.874  0.00  0.00    -0.027 A 
ATOM      7  C   UNL     1      47.993  17.505  18.343  0.00  0.00    -0.053 A 
ATOM      8  C   UNL     1      47.213  16.329  18.202  0.00  0.00    -0.021 A 
ATOM      9  C   UNL     1      47.773  15.189  17.598  0.00  0.00    +0.068 A 
ATOM     10  C   UNL     1      49.062  15.215  17.150  0.00  0.00    +0.061 A 
ATOM     11  O   UNL     1      49.815  14.252  16.541  0.00  0.00    -0.298 OA
ATOM     12  C   UNL     1      51.180  14.689  16.675  0.00  0.00    +0.444 C 
ATOM     13  O   UNL     1      51.078  16.122  16.753  0.00  0.00    -0.292 OA
ATOM     14  C   UNL     1      45.894  16.349  18.680  0.00  0.00    +0.045 A 
ATOM     15  C   UNL     1      45.415  17.506  19.263  0.00  0.00    +0.249 A 
ATOM     16  N   UNL     1      46.160  18.587  19.382  0.00  0.00    -0.416 NA
ATOM     17  C   UNL     1      47.413  18.637  18.953  0.00  0.00    +0.094 A 
ATOM     18  C   UNL     1      49.847  16.373  17.280  0.00  0.00    +0.083 A 
ATOM     19  C   UNL     1      48.212  19.868  19.106  0.00  0.00    +0.443 C 
ATOM     20  O   UNL     1      47.731  20.856  19.632  0.00  0.00    -0.412 OA
ATOM     21  C   UNL     1      51.458  18.757  17.548  0.00  0.00    +0.031 A 
ENDROOT
TORSDOF 0
ENDMDL
MODEL 6
REMARK VINA RESULT:      -5.5     21.338     23.154
REMARK  Name = ZINC00006256
REMARK  0 active torsions:
REMARK  status: ('A' for Active; 'I' for Inactive)
REMARK                            x       y       z     vdW  Elec       q    Type
REMARK                         _______ _______ _______ _____ _____    ______ ____
ROOT
ATOM      1  C   UNL     1      54.370  31.652   0.242  0.00  0.00    +0.052 A 
ATOM      2  C   UNL     1      53.018  31.661  -0.068  0.00  0.00    +0.013 A 
ATOM      3  C   UNL     1      52.086  32.027   0.879  0.00  0.00    +0.089 A 
ATOM      4  C   UNL     1      52.507  32.398   2.159  0.00  0.00    -0.148 A 
ATOM      5  C   UNL     1      53.880  32.395   2.470  0.00  0.00    -0.003 A 
ATOM      6  C   UNL     1      54.330  32.787   3.817  0.00  0.00    -0.027 A 
ATOM      7  C   UNL     1      53.390  33.162   4.796  0.00  0.00    -0.053 A 
ATOM      8  C   UNL     1      53.836  33.536   6.090  0.00  0.00    -0.021 A 
ATOM      9  C   UNL     1      55.212  33.529   6.381  0.00  0.00    +0.068 A 
ATOM     10  C   UNL     1      56.114  33.165   5.423  0.00  0.00    +0.061 A 
ATOM     11  O   UNL     1      57.476  33.081   5.465  0.00  0.00    -0.298 OA
ATOM     12  C   UNL     1      57.902  33.056   4.090  0.00  0.00    +0.444 C 
ATOM     13  O   UNL     1      56.784  32.478   3.391  0.00  0.00    -0.292 OA
ATOM     14  C   UNL     1      52.874  33.904   7.041  0.00  0.00    +0.045 A 
ATOM     15  C   UNL     1      51.541  33.887   6.680  0.00  0.00    +0.249 A 
ATOM     16  N   UNL     1      51.151  33.537   5.470  0.00  0.00    -0.416 NA
ATOM     17  C   UNL     1      52.006  33.177   4.524  0.00  0.00    +0.094 A 
ATOM     18  C   UNL     1      55.687  32.790   4.137  0.00  0.00    +0.083 A 
ATOM     19  C   UNL     1      51.526  32.791   3.183  0.00  0.00    +0.443 C 
ATOM     20  O   UNL     1      50.336  32.800   2.926  0.00  0.00    -0.412 OA
ATOM     21  C   UNL     1      54.806  32.020   1.496  0.00  0.00    +0.031 A 
ENDROOT
TORSDOF 0
ENDMDL
MODEL 7
REMARK VINA RESULT:      -5.5      1.523      4.504
REMARK  Name = ZINC00006256
REMARK  0 active torsions:
REMARK  status: ('A' for Active; 'I' for Inactive)
REMARK                            x       y       z     vdW  Elec       q    Type
REMARK                         _______ _______ _______ _____ _____    ______ ____
ROOT
ATOM      1  C   UNL     1      44.728  16.509  20.562  0.00  0.00    +0.052 A 
ATOM      2  C   UNL     1      45.919  16.340  21.252  0.00  0.00    +0.013 A 
ATOM      3  C   UNL     1      46.654  17.432  21.658  0.00  0.00    +0.089 A 
ATOM      4  C   UNL     1      46.194  18.720  21.377  0.00  0.00    -0.148 A 
ATOM      5  C   UNL     1      44.981  18.892  20.682  0.00  0.00    -0.003 A 
ATOM      6  C   UNL     1      44.489  20.249  20.384  0.00  0.00    -0.027 A 
ATOM      7  C   UNL     1      45.230  21.375  20.791  0.00  0.00    -0.053 A 
ATOM      8  C   UNL     1      44.746  22.676  20.497  0.00  0.00    -0.021 A 
ATOM      9  C   UNL     1      43.532  22.827  19.803  0.00  0.00    +0.068 A 
ATOM     10  C   UNL     1      42.822  21.728  19.416  0.00  0.00    +0.061 A 
ATOM     11  O   UNL     1      41.638  21.620  18.744  0.00  0.00    -0.298 OA
ATOM     12  C   UNL     1      41.182  20.275  18.982  0.00  0.00    +0.444 C 
ATOM     13  O   UNL     1      42.395  19.532  19.202  0.00  0.00    -0.292 OA
ATOM     14  C   UNL     1      45.509  23.776  20.916  0.00  0.00    +0.045 A 
ATOM     15  C   UNL     1      46.690  23.547  21.594  0.00  0.00    +0.249 A 
ATOM     16  N   UNL     1      47.119  22.329  21.856  0.00  0.00    -0.416 NA
ATOM     17  C   UNL     1      46.449  21.246  21.488  0.00  0.00    +0.094 A 
ATOM     18  C   UNL     1      43.289  20.433  19.698  0.00  0.00    +0.083 A 
ATOM     19  C   UNL     1      46.966  19.899  21.802  0.00  0.00    +0.443 C 
ATOM     20  O   UNL     1      48.015  19.765  22.405  0.00  0.00    -0.412 OA
ATOM     21  C   UNL     1      44.253  17.772  20.280  0.00  0.00    +0.031 A 
ENDROOT
TORSDOF 0
ENDMDL
MODEL 8
REMARK VINA RESULT:      -5.4      6.172      8.324
REMARK  Name = ZINC00006256
REMARK  0 active torsions:
REMARK  status: ('A' for Active; 'I' for Inactive)
REMARK                            x       y       z     vdW  Elec       q    Type
REMARK                         _______ _______ _______ _____ _____    ______ ____
ROOT
ATOM      1  C   UNL     1      51.496  21.214  16.683  0.00  0.00    +0.052 A 
ATOM      2  C   UNL     1      52.175  20.375  15.812  0.00  0.00    +0.013 A 
ATOM      3  C   UNL     1      52.076  19.007  15.940  0.00  0.00    +0.089 A 
ATOM      4  C   UNL     1      51.281  18.460  16.951  0.00  0.00    -0.148 A 
ATOM      5  C   UNL     1      50.586  19.313  17.830  0.00  0.00    -0.003 A 
ATOM      6  C   UNL     1      49.744  18.743  18.897  0.00  0.00    -0.027 A 
ATOM      7  C   UNL     1      49.634  17.347  19.041  0.00  0.00    -0.053 A 
ATOM      8  C   UNL     1      48.822  16.811  20.073  0.00  0.00    -0.021 A 
ATOM      9  C   UNL     1      48.134  17.679  20.940  0.00  0.00    +0.068 A 
ATOM     10  C   UNL     1      48.247  19.031  20.788  0.00  0.00    +0.061 A 
ATOM     11  O   UNL     1      47.687  20.058  21.492  0.00  0.00    -0.298 OA
ATOM     12  C   UNL     1      47.819  21.218  20.649  0.00  0.00    +0.444 C 
ATOM     13  O   UNL     1      48.982  20.935  19.851  0.00  0.00    -0.292 OA
ATOM     14  C   UNL     1      48.734  15.416  20.189  0.00  0.00    +0.045 A 
ATOM     15  C   UNL     1      49.438  14.628  19.299  0.00  0.00    +0.249 A 
ATOM     16  N   UNL     1      50.186  15.150  18.347  0.00  0.00    -0.416 NA
ATOM     17  C   UNL     1      50.314  16.459  18.182  0.00  0.00    +0.094 A 
ATOM     18  C   UNL     1      49.050  19.577  19.772  0.00  0.00    +0.083 A 
ATOM     19  C   UNL     1      51.163  17.001  17.103  0.00  0.00    +0.443 C 
ATOM     20  O   UNL     1      51.757  16.252  16.348  0.00  0.00    -0.412 OA
ATOM     21  C   UNL     1      50.701  20.696  17.682  0.00  0.00    +0.031 A 
ENDROOT
TORSDOF 0
ENDMDL
MODEL 9
REMARK VINA RESULT:      -5.4      5.648      6.563
REMARK  Name = ZINC00006256
REMARK  0 active torsions:
REMARK  status: ('A' for Active; 'I' for Inactive)
REMARK                            x       y       z     vdW  Elec       q    Type
REMARK                         _______ _______ _______ _____ _____    ______ ____
ROOT
ATOM      1  C   UNL     1      45.108  19.249  18.392  0.00  0.00    +0.052 A 
ATOM      2  C   UNL     1      45.539  20.481  18.858  0.00  0.00    +0.013 A 
ATOM      3  C   UNL     1      46.882  20.729  19.040  0.00  0.00    +0.089 A 
ATOM      4  C   UNL     1      47.817  19.734  18.746  0.00  0.00    -0.148 A 
ATOM      5  C   UNL     1      47.379  18.484  18.266  0.00  0.00    -0.003 A 
ATOM      6  C   UNL     1      48.359  17.431  17.953  0.00  0.00    -0.027 A 
ATOM      7  C   UNL     1      49.736  17.669  18.134  0.00  0.00    -0.053 A 
ATOM      8  C   UNL     1      50.669  16.645  17.830  0.00  0.00    -0.021 A 
ATOM      9  C   UNL     1      50.212  15.405  17.350  0.00  0.00    +0.068 A 
ATOM     10  C   UNL     1      48.876  15.187  17.177  0.00  0.00    +0.061 A 
ATOM     11  O   UNL     1      48.200  14.087  16.731  0.00  0.00    -0.298 OA
ATOM     12  C   UNL     1      46.891  14.561  16.367  0.00  0.00    +0.444 C 
ATOM     13  O   UNL     1      46.691  15.709  17.213  0.00  0.00    -0.292 OA
ATOM     14  C   UNL     1      52.032  16.915  18.022  0.00  0.00    +0.045 A 
ATOM     15  C   UNL     1      52.405  18.157  18.496  0.00  0.00    +0.249 A 
ATOM     16  N   UNL     1      51.517  19.093  18.771  0.00  0.00    -0.416 NA
ATOM     17  C   UNL     1      50.215  18.905  18.613  0.00  0.00    +0.094 A 
ATOM     18  C   UNL     1      47.938  16.190  17.475  0.00  0.00    +0.083 A 
ATOM     19  C   UNL     1      49.256  19.980  18.934  0.00  0.00    +0.443 C 
ATOM     20  O   UNL     1      49.649  21.056  19.346  0.00  0.00    -0.412 OA
ATOM     21  C   UNL     1      46.013  18.255  18.091  0.00  0.00    +0.031 A 
ENDROOT
TORSDOF 0
ENDMDL
