MODEL 1
REMARK VINA RESULT:      -6.8      0.000      0.000
REMARK  Name = ZINC95486197
REMARK  15 active torsions:
REMARK  status: ('A' for Active; 'I' for Inactive)
REMARK    1  A    between atoms: C1_1  and  C2_2
REMARK    2  A    between atoms: C2_2  and  C3_3
REMARK    3  A    between atoms: C2_2  and  C4_4
REMARK    4  A    between atoms: C4_4  and  C5_5
REMARK    5  A    between atoms: C4_4  and  C6_6
REMARK    6  A    between atoms: C4_4  and  O5_40
REMARK    7  A    between atoms: C11_13  and  C30_39
REMARK    8  A    between atoms: C12_14  and  C18_22
REMARK    9  A    between atoms: C15_17  and  C16_18
REMARK   10  A    between atoms: C15_17  and  C17_19
REMARK   11  A    between atoms: C22_27  and  C29_38
REMARK   12  A    between atoms: C24_29  and  O4_37
REMARK   13  A    between atoms: C25_31  and  O3_36
REMARK   14  A    between atoms: C26_33  and  C27_34
REMARK   15  A    between atoms: C26_33  and  C28_35
REMARK                            x       y       z     vdW  Elec       q    Type
REMARK                         _______ _______ _______ _____ _____    ______ ____
ROOT
ATOM      6  C   UNL     1      44.494  20.175  19.268  0.00  0.00    +0.047 C 
ATOM      7  C   UNL     1      45.116  18.854  19.666  0.00  0.00    -0.119 C 
ATOM      8  C   UNL     1      44.401  17.958  20.282  0.00  0.00    -0.017 C 
ATOM      9  C   UNL     1      44.911  16.604  20.705  0.00  0.00    +0.064 C 
ATOM     10  C   UNL     1      46.113  16.224  19.835  0.00  0.00    +0.013 C 
ATOM     11  C   UNL     1      47.134  17.347  19.912  0.00  0.00    -0.017 C 
ATOM     12  C   UNL     1      47.408  17.707  21.386  0.00  0.00    +0.017 C 
ATOM     13  C   UNL     1      48.465  16.981  19.279  0.00  0.00    +0.013 C 
ATOM     14  C   UNL     1      48.952  15.589  19.638  0.00  0.00    +0.013 C 
ATOM     15  C   UNL     1      47.913  14.490  19.469  0.00  0.00    +0.010 C 
ATOM     16  C   UNL     1      47.808  13.980  18.051  0.00  0.00    -0.034 C 
ATOM     17  C   UNL     1      49.107  13.215  17.708  0.00  0.00    +0.027 C 
ATOM     18  C   UNL     1      47.647  15.092  17.016  0.00  0.00    +0.031 C 
ATOM     19  C   UNL     1      46.658  12.983  17.869  0.00  0.00    +0.139 C 
ATOM     22  C   UNL     1      45.361  13.585  18.404  0.00  0.00    +0.138 C 
ATOM     25  C   UNL     1      45.519  13.808  19.903  0.00  0.00    +0.044 C 
ATOM     26  C   UNL     1      46.622  14.839  20.188  0.00  0.00    -0.023 C 
ATOM     27  C   UNL     1      46.891  14.711  21.705  0.00  0.00    +0.024 C 
ATOM     28  C   UNL     1      46.547  18.601  19.256  0.00  0.00    -0.001 C 
ATOM     29  C   UNL     1      46.504  18.390  17.734  0.00  0.00    +0.026 C 
ATOM     30  C   UNL     1      47.428  19.813  19.524  0.00  0.00    +0.041 C 
ATOM     31  C   UNL     1      46.810  21.088  18.953  0.00  0.00    +0.072 C 
ATOM     32  C   UNL     1      45.440  21.339  19.571  0.00  0.00    -0.038 C 
ATOM     36  C   UNL     1      44.849  22.621  18.962  0.00  0.00    +0.108 C 
ENDROOT
BRANCH  32  33
ATOM     33  C   UNL     1      45.556  21.527  21.061  0.00  0.00    +0.471 C 
ATOM     34  O   UNL     1      46.034  20.642  21.751  0.00  0.00    -0.312 OA
ATOM     35  O   UNL     1      45.175  22.564  21.576  0.00  0.00    -0.488 OA
ENDBRANCH  32  33
BRANCH   6   3
ATOM      3  C   UNL     1      43.167  20.439  19.981  0.00  0.00    +0.142 C 
ATOM     37  C   UNL     1      42.646  21.824  19.592  0.00  0.00    +0.094 C 
BRANCH   3   2
ATOM      1  C   UNL     1      41.212  19.085  20.745  0.00  0.00    +0.023 C 
ATOM      2  C   UNL     1      42.146  19.376  19.570  0.00  0.00    -0.029 C 
ATOM     38  C   UNL     1      41.328  19.889  18.383  0.00  0.00    +0.031 C 
ENDBRANCH   3   2
BRANCH   3   4
ATOM      4  O   UNL     1      43.368  20.386  21.395  0.00  0.00    -0.519 OA
ATOM      5  H   UNL     1      42.681  20.832  21.908  0.00  0.00    +0.379 HD
ENDBRANCH   3   4
ENDBRANCH   6   3
BRANCH  19  20
ATOM     20  O   UNL     1      46.959  11.775  18.570  0.00  0.00    -0.552 OA
ATOM     21  H   UNL     1      47.904  11.611  18.681  0.00  0.00    +0.378 HD
ENDBRANCH  19  20
BRANCH  22  23
ATOM     23  O   UNL     1      44.284  12.672  18.169  0.00  0.00    -0.568 OA
ATOM     24  H   UNL     1      43.933  12.262  18.973  0.00  0.00    +0.376 HD
ENDBRANCH  22  23
TORSDOF 6
ENDMDL
MODEL 2
REMARK VINA RESULT:      -6.5      2.886      7.453
REMARK  Name = ZINC95486197
REMARK  15 active torsions:
REMARK  status: ('A' for Active; 'I' for Inactive)
REMARK    1  A    between atoms: C1_1  and  C2_2
REMARK    2  A    between atoms: C2_2  and  C3_3
REMARK    3  A    between atoms: C2_2  and  C4_4
REMARK    4  A    between atoms: C4_4  and  C5_5
REMARK    5  A    between atoms: C4_4  and  C6_6
REMARK    6  A    between atoms: C4_4  and  O5_40
REMARK    7  A    between atoms: C11_13  and  C30_39
REMARK    8  A    between atoms: C12_14  and  C18_22
REMARK    9  A    between atoms: C15_17  and  C16_18
REMARK   10  A    between atoms: C15_17  and  C17_19
REMARK   11  A    between atoms: C22_27  and  C29_38
REMARK   12  A    between atoms: C24_29  and  O4_37
REMARK   13  A    between atoms: C25_31  and  O3_36
REMARK   14  A    between atoms: C26_33  and  C27_34
REMARK   15  A    between atoms: C26_33  and  C28_35
REMARK                            x       y       z     vdW  Elec       q    Type
REMARK                         _______ _______ _______ _____ _____    ______ ____
ROOT
ATOM      6  C   UNL     1      50.103  18.435  18.686  0.00  0.00    +0.047 C 
ATOM      7  C   UNL     1      48.949  19.053  19.447  0.00  0.00    -0.119 C 
ATOM      8  C   UNL     1      49.043  20.272  19.891  0.00  0.00    -0.017 C 
ATOM      9  C   UNL     1      47.950  20.992  20.640  0.00  0.00    +0.064 C 
ATOM     10  C   UNL     1      46.600  20.354  20.298  0.00  0.00    +0.013 C 
ATOM     11  C   UNL     1      46.692  18.863  20.573  0.00  0.00    -0.017 C 
ATOM     12  C   UNL     1      47.254  18.624  21.990  0.00  0.00    +0.017 C 
ATOM     13  C   UNL     1      45.347  18.163  20.495  0.00  0.00    +0.013 C 
ATOM     14  C   UNL     1      44.222  18.917  21.182  0.00  0.00    +0.013 C 
ATOM     15  C   UNL     1      44.127  20.389  20.812  0.00  0.00    +0.010 C 
ATOM     16  C   UNL     1      43.373  20.635  19.526  0.00  0.00    -0.034 C 
ATOM     17  C   UNL     1      41.883  20.290  19.758  0.00  0.00    +0.027 C 
ATOM     18  C   UNL     1      43.863  19.776  18.361  0.00  0.00    +0.031 C 
ATOM     19  C   UNL     1      43.415  22.104  19.092  0.00  0.00    +0.139 C 
ATOM     22  C   UNL     1      44.860  22.594  19.059  0.00  0.00    +0.138 C 
ATOM     25  C   UNL     1      45.416  22.537  20.477  0.00  0.00    +0.044 C 
ATOM     26  C   UNL     1      45.464  21.088  20.986  0.00  0.00    -0.023 C 
ATOM     27  C   UNL     1      45.720  21.218  22.505  0.00  0.00    +0.024 C 
ATOM     28  C   UNL     1      47.690  18.235  19.594  0.00  0.00    -0.001 C 
ATOM     29  C   UNL     1      47.056  18.205  18.194  0.00  0.00    +0.026 C 
ATOM     30  C   UNL     1      47.999  16.797  19.988  0.00  0.00    +0.041 C 
ATOM     31  C   UNL     1      49.060  16.186  19.074  0.00  0.00    +0.072 C 
ATOM     32  C   UNL     1      50.350  16.995  19.141  0.00  0.00    -0.038 C 
ATOM     36  C   UNL     1      51.384  16.355  18.201  0.00  0.00    +0.108 C 
ENDROOT
BRANCH  32  33
ATOM     33  C   UNL     1      50.908  16.990  20.540  0.00  0.00    +0.471 C 
ATOM     34  O   UNL     1      52.038  16.580  20.743  0.00  0.00    -0.312 OA
ATOM     35  O   UNL     1      50.230  17.396  21.468  0.00  0.00    -0.488 OA
ENDBRANCH  32  33
BRANCH   6   3
ATOM      3  C   UNL     1      51.406  19.219  18.855  0.00  0.00    +0.142 C 
ATOM     37  C   UNL     1      52.510  18.556  18.028  0.00  0.00    +0.094 C 
BRANCH   3   2
ATOM      1  C   UNL     1      52.097  21.597  19.181  0.00  0.00    +0.023 C 
ATOM      2  C   UNL     1      51.202  20.657  18.372  0.00  0.00    -0.029 C 
ATOM     38  C   UNL     1      51.569  20.753  16.890  0.00  0.00    +0.031 C 
ENDBRANCH   3   2
BRANCH   3   4
ATOM      4  O   UNL     1      51.782  19.227  20.233  0.00  0.00    -0.519 OA
ATOM      5  H   UNL     1      51.125  18.834  20.823  0.00  0.00    +0.379 HD
ENDBRANCH   3   4
ENDBRANCH   6   3
BRANCH  19  20
ATOM     20  O   UNL     1      42.654  22.893  20.007  0.00  0.00    -0.552 OA
ATOM     21  H   UNL     1      42.904  22.772  20.933  0.00  0.00    +0.378 HD
ENDBRANCH  19  20
BRANCH  22  23
ATOM     23  O   UNL     1      44.891  23.946  18.590  0.00  0.00    -0.568 OA
ATOM     24  H   UNL     1      45.101  24.596  19.275  0.00  0.00    +0.376 HD
ENDBRANCH  22  23
TORSDOF 6
ENDMDL
MODEL 3
REMARK VINA RESULT:      -6.0      1.733      7.535
REMARK  Name = ZINC95486197
REMARK  15 active torsions:
REMARK  status: ('A' for Active; 'I' for Inactive)
REMARK    1  A    between atoms: C1_1  and  C2_2
REMARK    2  A    between atoms: C2_2  and  C3_3
REMARK    3  A    between atoms: C2_2  and  C4_4
REMARK    4  A    between atoms: C4_4  and  C5_5
REMARK    5  A    between atoms: C4_4  and  C6_6
REMARK    6  A    between atoms: C4_4  and  O5_40
REMARK    7  A    between atoms: C11_13  and  C30_39
REMARK    8  A    between atoms: C12_14  and  C18_22
REMARK    9  A    between atoms: C15_17  and  C16_18
REMARK   10  A    between atoms: C15_17  and  C17_19
REMARK   11  A    between atoms: C22_27  and  C29_38
REMARK   12  A    between atoms: C24_29  and  O4_37
REMARK   13  A    between atoms: C25_31  and  O3_36
REMARK   14  A    between atoms: C26_33  and  C27_34
REMARK   15  A    between atoms: C26_33  and  C28_35
REMARK                            x       y       z     vdW  Elec       q    Type
REMARK                         _______ _______ _______ _____ _____    ______ ____
ROOT
ATOM      6  C   UNL     1      48.808  16.550  18.805  0.00  0.00    +0.047 C 
ATOM      7  C   UNL     1      47.722  17.303  19.542  0.00  0.00    -0.119 C 
ATOM      8  C   UNL     1      47.864  17.576  20.806  0.00  0.00    -0.017 C 
ATOM      9  C   UNL     1      46.858  18.337  21.632  0.00  0.00    +0.064 C 
ATOM     10  C   UNL     1      45.999  19.204  20.706  0.00  0.00    +0.013 C 
ATOM     11  C   UNL     1      45.403  18.311  19.631  0.00  0.00    -0.017 C 
ATOM     12  C   UNL     1      44.733  17.083  20.280  0.00  0.00    +0.017 C 
ATOM     13  C   UNL     1      44.348  19.014  18.796  0.00  0.00    +0.013 C 
ATOM     14  C   UNL     1      43.374  19.845  19.612  0.00  0.00    +0.013 C 
ATOM     15  C   UNL     1      44.027  20.779  20.620  0.00  0.00    +0.010 C 
ATOM     16  C   UNL     1      44.483  22.086  20.015  0.00  0.00    -0.034 C 
ATOM     17  C   UNL     1      43.232  22.906  19.619  0.00  0.00    +0.027 C 
ATOM     18  C   UNL     1      45.330  21.911  18.756  0.00  0.00    +0.031 C 
ATOM     19  C   UNL     1      45.268  22.951  21.008  0.00  0.00    +0.139 C 
ATOM     22  C   UNL     1      46.399  22.132  21.625  0.00  0.00    +0.138 C 
ATOM     25  C   UNL     1      45.782  20.991  22.425  0.00  0.00    +0.044 C 
ATOM     26  C   UNL     1      45.010  20.034  21.503  0.00  0.00    -0.023 C 
ATOM     27  C   UNL     1      44.185  19.149  22.466  0.00  0.00    +0.024 C 
ATOM     28  C   UNL     1      46.532  17.777  18.743  0.00  0.00    -0.001 C 
ATOM     29  C   UNL     1      47.059  18.925  17.868  0.00  0.00    +0.026 C 
ATOM     30  C   UNL     1      46.016  16.690  17.811  0.00  0.00    +0.041 C 
ATOM     31  C   UNL     1      47.147  16.084  16.981  0.00  0.00    +0.072 C 
ATOM     32  C   UNL     1      48.208  15.478  17.892  0.00  0.00    -0.038 C 
ATOM     36  C   UNL     1      49.332  14.891  17.022  0.00  0.00    +0.108 C 
ENDROOT
BRANCH  32  33
ATOM     33  C   UNL     1      47.621  14.369  18.725  0.00  0.00    +0.471 C 
ATOM     34  O   UNL     1      48.097  13.248  18.669  0.00  0.00    -0.312 OA
ATOM     35  O   UNL     1      46.672  14.593  19.457  0.00  0.00    -0.488 OA
ENDBRANCH  32  33
BRANCH   6   3
ATOM      3  C   UNL     1      49.801  15.871  19.751  0.00  0.00    +0.142 C 
ATOM     37  C   UNL     1      50.856  15.124  18.932  0.00  0.00    +0.094 C 
BRANCH   3   2
ATOM      1  C   UNL     1      51.280  16.243  21.729  0.00  0.00    +0.023 C 
ATOM      2  C   UNL     1      50.484  16.930  20.618  0.00  0.00    -0.029 C 
ATOM     38  C   UNL     1      51.431  17.763  19.752  0.00  0.00    +0.031 C 
ENDBRANCH   3   2
BRANCH   3   4
ATOM      4  O   UNL     1      49.103  14.946  20.587  0.00  0.00    -0.519 OA
ATOM      5  H   UNL     1      49.633  14.597  21.316  0.00  0.00    +0.379 HD
ENDBRANCH   3   4
ENDBRANCH   6   3
BRANCH  19  20
ATOM     20  O   UNL     1      44.389  23.417  22.033  0.00  0.00    -0.552 OA
ATOM     21  H   UNL     1      44.761  24.123  22.578  0.00  0.00    +0.378 HD
ENDBRANCH  19  20
BRANCH  22  23
ATOM     23  O   UNL     1      47.165  22.967  22.500  0.00  0.00    -0.568 OA
ATOM     24  H   UNL     1      46.717  23.181  23.331  0.00  0.00    +0.376 HD
ENDBRANCH  22  23
TORSDOF 6
ENDMDL
MODEL 4
REMARK VINA RESULT:      -5.5      3.779      5.491
REMARK  Name = ZINC95486197
REMARK  15 active torsions:
REMARK  status: ('A' for Active; 'I' for Inactive)
REMARK    1  A    between atoms: C1_1  and  C2_2
REMARK    2  A    between atoms: C2_2  and  C3_3
REMARK    3  A    between atoms: C2_2  and  C4_4
REMARK    4  A    between atoms: C4_4  and  C5_5
REMARK    5  A    between atoms: C4_4  and  C6_6
REMARK    6  A    between atoms: C4_4  and  O5_40
REMARK    7  A    between atoms: C11_13  and  C30_39
REMARK    8  A    between atoms: C12_14  and  C18_22
REMARK    9  A    between atoms: C15_17  and  C16_18
REMARK   10  A    between atoms: C15_17  and  C17_19
REMARK   11  A    between atoms: C22_27  and  C29_38
REMARK   12  A    between atoms: C24_29  and  O4_37
REMARK   13  A    between atoms: C25_31  and  O3_36
REMARK   14  A    between atoms: C26_33  and  C27_34
REMARK   15  A    between atoms: C26_33  and  C28_35
REMARK                            x       y       z     vdW  Elec       q    Type
REMARK                         _______ _______ _______ _____ _____    ______ ____
ROOT
ATOM      6  C   UNL     1      51.037  18.943  19.385  0.00  0.00    +0.047 C 
ATOM      7  C   UNL     1      49.998  17.866  19.159  0.00  0.00    -0.119 C 
ATOM      8  C   UNL     1      49.196  17.942  18.138  0.00  0.00    -0.017 C 
ATOM      9  C   UNL     1      48.140  16.917  17.805  0.00  0.00    +0.064 C 
ATOM     10  C   UNL     1      48.523  15.576  18.439  0.00  0.00    +0.013 C 
ATOM     11  C   UNL     1      48.758  15.798  19.924  0.00  0.00    -0.017 C 
ATOM     12  C   UNL     1      47.565  16.560  20.535  0.00  0.00    +0.017 C 
ATOM     13  C   UNL     1      48.914  14.501  20.698  0.00  0.00    +0.013 C 
ATOM     14  C   UNL     1      47.902  13.435  20.317  0.00  0.00    +0.013 C 
ATOM     15  C   UNL     1      47.763  13.198  18.821  0.00  0.00    +0.010 C 
ATOM     16  C   UNL     1      48.811  12.264  18.263  0.00  0.00    -0.034 C 
ATOM     17  C   UNL     1      48.544  10.843  18.814  0.00  0.00    +0.027 C 
ATOM     18  C   UNL     1      50.237  12.645  18.658  0.00  0.00    +0.031 C 
ATOM     19  C   UNL     1      48.748  12.154  16.736  0.00  0.00    +0.139 C 
ATOM     22  C   UNL     1      48.775  13.548  16.115  0.00  0.00    +0.138 C 
ATOM     25  C   UNL     1      47.521  14.293  16.556  0.00  0.00    +0.044 C 
ATOM     26  C   UNL     1      47.517  14.500  18.079  0.00  0.00    -0.023 C 
ATOM     27  C   UNL     1      46.074  14.949  18.406  0.00  0.00    +0.024 C 
ATOM     28  C   UNL     1      49.989  16.692  20.107  0.00  0.00    -0.001 C 
ATOM     29  C   UNL     1      51.246  15.879  19.761  0.00  0.00    +0.026 C 
ATOM     30  C   UNL     1      50.118  17.141  21.555  0.00  0.00    +0.041 C 
ATOM     31  C   UNL     1      51.289  18.105  21.737  0.00  0.00    +0.072 C 
ATOM     32  C   UNL     1      51.103  19.339  20.862  0.00  0.00    -0.038 C 
ATOM     36  C   UNL     1      52.305  20.276  21.064  0.00  0.00    +0.108 C 
ENDROOT
BRANCH  32  33
ATOM     33  C   UNL     1      49.850  20.080  21.248  0.00  0.00    +0.471 C 
ATOM     34  O   UNL     1      49.924  21.215  21.687  0.00  0.00    -0.312 OA
ATOM     35  O   UNL     1      48.762  19.545  21.120  0.00  0.00    -0.488 OA
ENDBRANCH  32  33
BRANCH   6   3
ATOM      3  C   UNL     1      50.765  20.206  18.564  0.00  0.00    +0.142 C 
ATOM     37  C   UNL     1      51.654  21.344  19.070  0.00  0.00    +0.094 C 
BRANCH   3   2
ATOM      1  C   UNL     1      51.334  21.257  16.370  0.00  0.00    +0.023 C 
ATOM      2  C   UNL     1      51.076  19.932  17.091  0.00  0.00    -0.029 C 
ATOM     38  C   UNL     1      52.319  19.046  16.989  0.00  0.00    +0.031 C 
ENDBRANCH   3   2
BRANCH   3   4
ATOM      4  O   UNL     1      49.392  20.576  18.701  0.00  0.00    -0.519 OA
ATOM      5  H   UNL     1      49.242  21.314  19.306  0.00  0.00    +0.379 HD
ENDBRANCH   3   4
ENDBRANCH   6   3
BRANCH  19  20
ATOM     20  O   UNL     1      47.549  11.475  16.356  0.00  0.00    -0.552 OA
ATOM     21  H   UNL     1      47.320  11.576  15.423  0.00  0.00    +0.378 HD
ENDBRANCH  19  20
BRANCH  22  23
ATOM     23  O   UNL     1      48.782  13.430  14.688  0.00  0.00    -0.568 OA
ATOM     24  H   UNL     1      48.389  12.610  14.360  0.00  0.00    +0.376 HD
ENDBRANCH  22  23
TORSDOF 6
ENDMDL
MODEL 5
REMARK VINA RESULT:      -5.4      2.781      5.024
REMARK  Name = ZINC95486197
REMARK  15 active torsions:
REMARK  status: ('A' for Active; 'I' for Inactive)
REMARK    1  A    between atoms: C1_1  and  C2_2
REMARK    2  A    between atoms: C2_2  and  C3_3
REMARK    3  A    between atoms: C2_2  and  C4_4
REMARK    4  A    between atoms: C4_4  and  C5_5
REMARK    5  A    between atoms: C4_4  and  C6_6
REMARK    6  A    between atoms: C4_4  and  O5_40
REMARK    7  A    between atoms: C11_13  and  C30_39
REMARK    8  A    between atoms: C12_14  and  C18_22
REMARK    9  A    between atoms: C15_17  and  C16_18
REMARK   10  A    between atoms: C15_17  and  C17_19
REMARK   11  A    between atoms: C22_27  and  C29_38
REMARK   12  A    between atoms: C24_29  and  O4_37
REMARK   13  A    between atoms: C25_31  and  O3_36
REMARK   14  A    between atoms: C26_33  and  C27_34
REMARK   15  A    between atoms: C26_33  and  C28_35
REMARK                            x       y       z     vdW  Elec       q    Type
REMARK                         _______ _______ _______ _____ _____    ______ ____
ROOT
ATOM      6  C   UNL     1      45.344  20.084  20.619  0.00  0.00    +0.047 C 
ATOM      7  C   UNL     1      46.568  19.521  19.929  0.00  0.00    -0.119 C 
ATOM      8  C   UNL     1      47.467  20.326  19.442  0.00  0.00    -0.017 C 
ATOM      9  C   UNL     1      48.732  19.876  18.755  0.00  0.00    +0.064 C 
ATOM     10  C   UNL     1      49.079  18.457  19.218  0.00  0.00    +0.013 C 
ATOM     11  C   UNL     1      47.868  17.568  18.983  0.00  0.00    -0.017 C 
ATOM     12  C   UNL     1      47.363  17.741  17.536  0.00  0.00    +0.017 C 
ATOM     13  C   UNL     1      48.170  16.094  19.185  0.00  0.00    +0.013 C 
ATOM     14  C   UNL     1      49.480  15.645  18.561  0.00  0.00    +0.013 C 
ATOM     15  C   UNL     1      50.674  16.527  18.892  0.00  0.00    +0.010 C 
ATOM     16  C   UNL     1      51.309  16.199  20.223  0.00  0.00    -0.034 C 
ATOM     17  C   UNL     1      51.986  14.812  20.115  0.00  0.00    +0.027 C 
ATOM     18  C   UNL     1      50.307  16.128  21.374  0.00  0.00    +0.031 C 
ATOM     19  C   UNL     1      52.414  17.190  20.607  0.00  0.00    +0.139 C 
ATOM     22  C   UNL     1      51.883  18.618  20.515  0.00  0.00    +0.138 C 
ATOM     25  C   UNL     1      51.522  18.901  19.062  0.00  0.00    +0.044 C 
ATOM     26  C   UNL     1      50.379  17.986  18.596  0.00  0.00    -0.023 C 
ATOM     27  C   UNL     1      50.356  18.148  17.059  0.00  0.00    +0.024 C 
ATOM     28  C   UNL     1      46.730  18.021  19.903  0.00  0.00    -0.001 C 
ATOM     29  C   UNL     1      47.072  17.621  21.347  0.00  0.00    +0.026 C 
ATOM     30  C   UNL     1      45.428  17.324  19.531  0.00  0.00    +0.041 C 
ATOM     31  C   UNL     1      44.264  17.831  20.381  0.00  0.00    +0.072 C 
ATOM     32  C   UNL     1      44.081  19.333  20.192  0.00  0.00    -0.038 C 
ATOM     36  C   UNL     1      42.911  19.804  21.071  0.00  0.00    +0.108 C 
ENDROOT
BRANCH  32  33
ATOM     33  C   UNL     1      43.759  19.651  18.756  0.00  0.00    +0.471 C 
ATOM     34  O   UNL     1      44.568  19.397  17.880  0.00  0.00    -0.312 OA
ATOM     35  O   UNL     1      42.689  20.161  18.469  0.00  0.00    -0.488 OA
ENDBRANCH  32  33
BRANCH   6   3
ATOM      3  C   UNL     1      45.136  21.572  20.329  0.00  0.00    +0.142 C 
ATOM     37  C   UNL     1      43.753  22.000  20.826  0.00  0.00    +0.094 C 
BRANCH   3   2
ATOM      1  C   UNL     1      45.842  23.870  21.006  0.00  0.00    +0.023 C 
ATOM      2  C   UNL     1      46.212  22.387  21.049  0.00  0.00    -0.029 C 
ATOM     38  C   UNL     1      46.308  21.928  22.505  0.00  0.00    +0.031 C 
ENDBRANCH   3   2
BRANCH   3   4
ATOM      4  O   UNL     1      45.228  21.799  18.921  0.00  0.00    -0.519 OA
ATOM      5  H   UNL     1      45.875  21.238  18.473  0.00  0.00    +0.379 HD
ENDBRANCH   3   4
ENDBRANCH   6   3
BRANCH  19  20
ATOM     20  O   UNL     1      53.528  17.027  19.728  0.00  0.00    -0.552 OA
ATOM     21  H   UNL     1      53.687  16.112  19.461  0.00  0.00    +0.378 HD
ENDBRANCH  19  20
BRANCH  22  23
ATOM     23  O   UNL     1      52.903  19.530  20.939  0.00  0.00    -0.568 OA
ATOM     24  H   UNL     1      52.570  20.286  21.442  0.00  0.00    +0.376 HD
ENDBRANCH  22  23
TORSDOF 6
ENDMDL
MODEL 6
REMARK VINA RESULT:      -5.4      1.966      7.239
REMARK  Name = ZINC95486197
REMARK  15 active torsions:
REMARK  status: ('A' for Active; 'I' for Inactive)
REMARK    1  A    between atoms: C1_1  and  C2_2
REMARK    2  A    between atoms: C2_2  and  C3_3
REMARK    3  A    between atoms: C2_2  and  C4_4
REMARK    4  A    between atoms: C4_4  and  C5_5
REMARK    5  A    between atoms: C4_4  and  C6_6
REMARK    6  A    between atoms: C4_4  and  O5_40
REMARK    7  A    between atoms: C11_13  and  C30_39
REMARK    8  A    between atoms: C12_14  and  C18_22
REMARK    9  A    between atoms: C15_17  and  C16_18
REMARK   10  A    between atoms: C15_17  and  C17_19
REMARK   11  A    between atoms: C22_27  and  C29_38
REMARK   12  A    between atoms: C24_29  and  O4_37
REMARK   13  A    between atoms: C25_31  and  O3_36
REMARK   14  A    between atoms: C26_33  and  C27_34
REMARK   15  A    between atoms: C26_33  and  C28_35
REMARK                            x       y       z     vdW  Elec       q    Type
REMARK                         _______ _______ _______ _____ _____    ______ ____
ROOT
ATOM      6  C   UNL     1      47.398  14.417  20.220  0.00  0.00    +0.047 C 
ATOM      7  C   UNL     1      47.363  15.917  20.023  0.00  0.00    -0.119 C 
ATOM      8  C   UNL     1      47.214  16.412  18.829  0.00  0.00    -0.017 C 
ATOM      9  C   UNL     1      47.144  17.887  18.521  0.00  0.00    +0.064 C 
ATOM     10  C   UNL     1      46.693  18.643  19.775  0.00  0.00    +0.013 C 
ATOM     11  C   UNL     1      47.622  18.269  20.918  0.00  0.00    -0.017 C 
ATOM     12  C   UNL     1      49.090  18.434  20.477  0.00  0.00    +0.017 C 
ATOM     13  C   UNL     1      47.419  19.132  22.151  0.00  0.00    +0.013 C 
ATOM     14  C   UNL     1      47.272  20.612  21.846  0.00  0.00    +0.013 C 
ATOM     15  C   UNL     1      46.272  20.936  20.746  0.00  0.00    +0.010 C 
ATOM     16  C   UNL     1      44.844  20.995  21.235  0.00  0.00    -0.034 C 
ATOM     17  C   UNL     1      44.690  22.233  22.149  0.00  0.00    +0.027 C 
ATOM     18  C   UNL     1      44.429  19.772  22.051  0.00  0.00    +0.031 C 
ATOM     19  C   UNL     1      43.838  21.175  20.092  0.00  0.00    +0.139 C 
ATOM     22  C   UNL     1      44.077  20.113  19.021  0.00  0.00    +0.138 C 
ATOM     25  C   UNL     1      45.463  20.336  18.428  0.00  0.00    +0.044 C 
ATOM     26  C   UNL     1      46.551  20.126  19.492  0.00  0.00    -0.023 C 
ATOM     27  C   UNL     1      47.836  20.700  18.852  0.00  0.00    +0.024 C 
ATOM     28  C   UNL     1      47.429  16.787  21.255  0.00  0.00    -0.001 C 
ATOM     29  C   UNL     1      46.071  16.611  21.952  0.00  0.00    +0.026 C 
ATOM     30  C   UNL     1      48.504  16.309  22.220  0.00  0.00    +0.041 C 
ATOM     31  C   UNL     1      48.379  14.811  22.496  0.00  0.00    +0.072 C 
ATOM     32  C   UNL     1      48.504  14.019  21.200  0.00  0.00    -0.038 C 
ATOM     36  C   UNL     1      48.361  12.522  21.519  0.00  0.00    +0.108 C 
ENDROOT
BRANCH  32  33
ATOM     33  C   UNL     1      49.852  14.246  20.567  0.00  0.00    +0.471 C 
ATOM     34  O   UNL     1      50.612  13.308  20.400  0.00  0.00    -0.312 OA
ATOM     35  O   UNL     1      50.182  15.368  20.222  0.00  0.00    -0.488 OA
ENDBRANCH  32  33
BRANCH   6   3
ATOM      3  C   UNL     1      47.624  13.656  18.911  0.00  0.00    +0.142 C 
ATOM     37  C   UNL     1      47.881  12.179  19.218  0.00  0.00    +0.094 C 
BRANCH   3   2
ATOM      1  C   UNL     1      46.618  13.051  16.706  0.00  0.00    +0.023 C 
ATOM      2  C   UNL     1      46.382  13.785  18.027  0.00  0.00    -0.029 C 
ATOM     38  C   UNL     1      45.180  13.168  18.745  0.00  0.00    +0.031 C 
ENDBRANCH   3   2
BRANCH   3   4
ATOM      4  O   UNL     1      48.753  14.206  18.230  0.00  0.00    -0.519 OA
ATOM      5  H   UNL     1      48.541  14.612  17.380  0.00  0.00    +0.379 HD
ENDBRANCH   3   4
ENDBRANCH   6   3
BRANCH  19  20
ATOM     20  O   UNL     1      43.986  22.478  19.527  0.00  0.00    -0.552 OA
ATOM     21  H   UNL     1      44.007  23.189  20.181  0.00  0.00    +0.378 HD
ENDBRANCH  19  20
BRANCH  22  23
ATOM     23  O   UNL     1      43.091  20.250  17.992  0.00  0.00    -0.568 OA
ATOM     24  H   UNL     1      42.368  19.610  18.052  0.00  0.00    +0.376 HD
ENDBRANCH  22  23
TORSDOF 6
ENDMDL
MODEL 7
REMARK VINA RESULT:      -5.4      4.389      8.496
REMARK  Name = ZINC95486197
REMARK  15 active torsions:
REMARK  status: ('A' for Active; 'I' for Inactive)
REMARK    1  A    between atoms: C1_1  and  C2_2
REMARK    2  A    between atoms: C2_2  and  C3_3
REMARK    3  A    between atoms: C2_2  and  C4_4
REMARK    4  A    between atoms: C4_4  and  C5_5
REMARK    5  A    between atoms: C4_4  and  C6_6
REMARK    6  A    between atoms: C4_4  and  O5_40
REMARK    7  A    between atoms: C11_13  and  C30_39
REMARK    8  A    between atoms: C12_14  and  C18_22
REMARK    9  A    between atoms: C15_17  and  C16_18
REMARK   10  A    between atoms: C15_17  and  C17_19
REMARK   11  A    between atoms: C22_27  and  C29_38
REMARK   12  A    between atoms: C24_29  and  O4_37
REMARK   13  A    between atoms: C25_31  and  O3_36
REMARK   14  A    between atoms: C26_33  and  C27_34
REMARK   15  A    between atoms: C26_33  and  C28_35
REMARK                            x       y       z     vdW  Elec       q    Type
REMARK                         _______ _______ _______ _____ _____    ______ ____
ROOT
ATOM      6  C   UNL     1      48.264  13.215  16.777  0.00  0.00    +0.047 C 
ATOM      7  C   UNL     1      49.216  14.237  17.361  0.00  0.00    -0.119 C 
ATOM      8  C   UNL     1      50.382  14.424  16.816  0.00  0.00    -0.017 C 
ATOM      9  C   UNL     1      51.398  15.428  17.301  0.00  0.00    +0.064 C 
ATOM     10  C   UNL     1      50.680  16.534  18.083  0.00  0.00    +0.013 C 
ATOM     11  C   UNL     1      49.848  15.883  19.175  0.00  0.00    -0.017 C 
ATOM     12  C   UNL     1      50.716  14.893  19.977  0.00  0.00    +0.017 C 
ATOM     13  C   UNL     1      49.278  16.887  20.161  0.00  0.00    +0.013 C 
ATOM     14  C   UNL     1      50.271  17.949  20.598  0.00  0.00    +0.013 C 
ATOM     15  C   UNL     1      51.021  18.623  19.459  0.00  0.00    +0.010 C 
ATOM     16  C   UNL     1      50.247  19.751  18.818  0.00  0.00    -0.034 C 
ATOM     17  C   UNL     1      50.145  20.913  19.834  0.00  0.00    +0.027 C 
ATOM     18  C   UNL     1      48.823  19.364  18.424  0.00  0.00    +0.031 C 
ATOM     19  C   UNL     1      50.952  20.320  17.582  0.00  0.00    +0.139 C 
ATOM     22  C   UNL     1      51.299  19.188  16.618  0.00  0.00    +0.138 C 
ATOM     25  C   UNL     1      52.294  18.262  17.306  0.00  0.00    +0.044 C 
ATOM     26  C   UNL     1      51.659  17.599  18.538  0.00  0.00    -0.023 C 
ATOM     27  C   UNL     1      52.851  16.975  19.300  0.00  0.00    +0.024 C 
ATOM     28  C   UNL     1      48.729  15.061  18.528  0.00  0.00    -0.001 C 
ATOM     29  C   UNL     1      47.684  16.023  17.941  0.00  0.00    +0.026 C 
ATOM     30  C   UNL     1      48.024  14.199  19.566  0.00  0.00    +0.041 C 
ATOM     31  C   UNL     1      46.965  13.306  18.922  0.00  0.00    +0.072 C 
ATOM     32  C   UNL     1      47.601  12.390  17.883  0.00  0.00    -0.038 C 
ATOM     36  C   UNL     1      46.502  11.520  17.252  0.00  0.00    +0.108 C 
ENDROOT
BRANCH  32  33
ATOM     33  C   UNL     1      48.618  11.485  18.526  0.00  0.00    +0.471 C 
ATOM     34  O   UNL     1      49.602  11.961  19.065  0.00  0.00    -0.312 OA
ATOM     35  O   UNL     1      48.457  10.277  18.507  0.00  0.00    -0.488 OA
ENDBRANCH  32  33
BRANCH   6   3
ATOM      3  C   UNL     1      48.957  12.249  15.813  0.00  0.00    +0.142 C 
ATOM     37  C   UNL     1      48.015  11.086  15.492  0.00  0.00    +0.094 C 
BRANCH   3   2
ATOM      1  C   UNL     1      50.520  12.316  13.866  0.00  0.00    +0.023 C 
ATOM      2  C   UNL     1      49.313  12.988  14.521  0.00  0.00    -0.029 C 
ATOM     38  C   UNL     1      48.121  12.941  13.563  0.00  0.00    +0.031 C 
ENDBRANCH   3   2
BRANCH   3   4
ATOM      4  O   UNL     1      50.148  11.745  16.418  0.00  0.00    -0.519 OA
ATOM      5  H   UNL     1      50.850  12.402  16.515  0.00  0.00    +0.379 HD
ENDBRANCH   3   4
ENDBRANCH   6   3
BRANCH  19  20
ATOM     20  O   UNL     1      52.143  21.000  17.982  0.00  0.00    -0.552 OA
ATOM     21  H   UNL     1      52.958  20.559  17.709  0.00  0.00    +0.378 HD
ENDBRANCH  19  20
BRANCH  22  23
ATOM     23  O   UNL     1      51.897  19.738  15.439  0.00  0.00    -0.568 OA
ATOM     24  H   UNL     1      52.862  19.799  15.479  0.00  0.00    +0.376 HD
ENDBRANCH  22  23
TORSDOF 6
ENDMDL
MODEL 8
REMARK VINA RESULT:      -5.4      2.677      4.187
REMARK  Name = ZINC95486197
REMARK  15 active torsions:
REMARK  status: ('A' for Active; 'I' for Inactive)
REMARK    1  A    between atoms: C1_1  and  C2_2
REMARK    2  A    between atoms: C2_2  and  C3_3
REMARK    3  A    between atoms: C2_2  and  C4_4
REMARK    4  A    between atoms: C4_4  and  C5_5
REMARK    5  A    between atoms: C4_4  and  C6_6
REMARK    6  A    between atoms: C4_4  and  O5_40
REMARK    7  A    between atoms: C11_13  and  C30_39
REMARK    8  A    between atoms: C12_14  and  C18_22
REMARK    9  A    between atoms: C15_17  and  C16_18
REMARK   10  A    between atoms: C15_17  and  C17_19
REMARK   11  A    between atoms: C22_27  and  C29_38
REMARK   12  A    between atoms: C24_29  and  O4_37
REMARK   13  A    between atoms: C25_31  and  O3_36
REMARK   14  A    between atoms: C26_33  and  C27_34
REMARK   15  A    between atoms: C26_33  and  C28_35
REMARK                            x       y       z     vdW  Elec       q    Type
REMARK                         _______ _______ _______ _____ _____    ______ ____
ROOT
ATOM      6  C   UNL     1      48.847  19.039  19.319  0.00  0.00    +0.047 C 
ATOM      7  C   UNL     1      48.843  17.526  19.270  0.00  0.00    -0.119 C 
ATOM      8  C   UNL     1      48.221  16.848  20.190  0.00  0.00    -0.017 C 
ATOM      9  C   UNL     1      48.134  15.343  20.228  0.00  0.00    +0.064 C 
ATOM     10  C   UNL     1      48.343  14.790  18.814  0.00  0.00    +0.013 C 
ATOM     11  C   UNL     1      49.650  15.346  18.272  0.00  0.00    -0.017 C 
ATOM     12  C   UNL     1      50.780  15.123  19.297  0.00  0.00    +0.017 C 
ATOM     13  C   UNL     1      50.078  14.686  16.974  0.00  0.00    +0.013 C 
ATOM     14  C   UNL     1      49.925  13.175  16.973  0.00  0.00    +0.013 C 
ATOM     15  C   UNL     1      48.570  12.676  17.452  0.00  0.00    +0.010 C 
ATOM     16  C   UNL     1      47.513  12.685  16.372  0.00  0.00    -0.034 C 
ATOM     17  C   UNL     1      47.874  11.605  15.325  0.00  0.00    +0.027 C 
ATOM     18  C   UNL     1      47.410  14.019  15.634  0.00  0.00    +0.031 C 
ATOM     19  C   UNL     1      46.123  12.322  16.906  0.00  0.00    +0.139 C 
ATOM     22  C   UNL     1      45.783  13.203  18.106  0.00  0.00    +0.138 C 
ATOM     25  C   UNL     1      46.778  12.899  19.220  0.00  0.00    +0.044 C 
ATOM     26  C   UNL     1      48.204  13.280  18.796  0.00  0.00    -0.023 C 
ATOM     27  C   UNL     1      49.114  12.621  19.859  0.00  0.00    +0.024 C 
ATOM     28  C   UNL     1      49.513  16.861  18.092  0.00  0.00    -0.001 C 
ATOM     29  C   UNL     1      48.593  17.136  16.892  0.00  0.00    +0.026 C 
ATOM     30  C   UNL     1      50.864  17.492  17.787  0.00  0.00    +0.041 C 
ATOM     31  C   UNL     1      50.760  19.013  17.693  0.00  0.00    +0.072 C 
ATOM     32  C   UNL     1      50.239  19.593  19.004  0.00  0.00    -0.038 C 
ATOM     36  C   UNL     1      50.137  21.120  18.864  0.00  0.00    +0.108 C 
ENDROOT
BRANCH  32  33
ATOM     33  C   UNL     1      51.182  19.278  20.135  0.00  0.00    +0.471 C 
ATOM     34  O   UNL     1      51.453  18.118  20.397  0.00  0.00    -0.312 OA
ATOM     35  O   UNL     1      51.675  20.182  20.787  0.00  0.00    -0.488 OA
ENDBRANCH  32  33
BRANCH   6   3
ATOM      3  C   UNL     1      48.413  19.585  20.681  0.00  0.00    +0.142 C 
ATOM     37  C   UNL     1      48.458  21.115  20.654  0.00  0.00    +0.094 C 
BRANCH   3   2
ATOM      1  C   UNL     1      46.659  19.409  22.450  0.00  0.00    +0.023 C 
ATOM      2  C   UNL     1      46.987  19.123  20.984  0.00  0.00    -0.029 C 
ATOM     38  C   UNL     1      46.005  19.877  20.085  0.00  0.00    +0.031 C 
ENDBRANCH   3   2
BRANCH   3   4
ATOM      4  O   UNL     1      49.297  19.099  21.692  0.00  0.00    -0.519 OA
ATOM      5  H   UNL     1      50.105  18.695  21.348  0.00  0.00    +0.379 HD
ENDBRANCH   3   4
ENDBRANCH   6   3
BRANCH  19  20
ATOM     20  O   UNL     1      46.105  10.946  17.292  0.00  0.00    -0.552 OA
ATOM     21  H   UNL     1      46.923  10.645  17.709  0.00  0.00    +0.378 HD
ENDBRANCH  19  20
BRANCH  22  23
ATOM     23  O   UNL     1      44.458  12.900  18.554  0.00  0.00    -0.568 OA
ATOM     24  H   UNL     1      43.900  12.486  17.881  0.00  0.00    +0.376 HD
ENDBRANCH  22  23
TORSDOF 6
ENDMDL
MODEL 9
REMARK VINA RESULT:      -5.3      2.046      3.452
REMARK  Name = ZINC95486197
REMARK  15 active torsions:
REMARK  status: ('A' for Active; 'I' for Inactive)
REMARK    1  A    between atoms: C1_1  and  C2_2
REMARK    2  A    between atoms: C2_2  and  C3_3
REMARK    3  A    between atoms: C2_2  and  C4_4
REMARK    4  A    between atoms: C4_4  and  C5_5
REMARK    5  A    between atoms: C4_4  and  C6_6
REMARK    6  A    between atoms: C4_4  and  O5_40
REMARK    7  A    between atoms: C11_13  and  C30_39
REMARK    8  A    between atoms: C12_14  and  C18_22
REMARK    9  A    between atoms: C15_17  and  C16_18
REMARK   10  A    between atoms: C15_17  and  C17_19
REMARK   11  A    between atoms: C22_27  and  C29_38
REMARK   12  A    between atoms: C24_29  and  O4_37
REMARK   13  A    between atoms: C25_31  and  O3_36
REMARK   14  A    between atoms: C26_33  and  C27_34
REMARK   15  A    between atoms: C26_33  and  C28_35
REMARK                            x       y       z     vdW  Elec       q    Type
REMARK                         _______ _______ _______ _____ _____    ______ ____
ROOT
ATOM      6  C   UNL     1      48.012  18.813  18.994  0.00  0.00    +0.047 C 
ATOM      7  C   UNL     1      48.080  17.306  19.110  0.00  0.00    -0.119 C 
ATOM      8  C   UNL     1      47.109  16.654  19.681  0.00  0.00    -0.017 C 
ATOM      9  C   UNL     1      47.063  15.154  19.832  0.00  0.00    +0.064 C 
ATOM     10  C   UNL     1      47.951  14.512  18.762  0.00  0.00    +0.013 C 
ATOM     11  C   UNL     1      49.338  15.125  18.862  0.00  0.00    -0.017 C 
ATOM     12  C   UNL     1      49.832  15.073  20.322  0.00  0.00    +0.017 C 
ATOM     13  C   UNL     1      50.366  14.403  18.010  0.00  0.00    +0.013 C 
ATOM     14  C   UNL     1      50.280  12.889  18.096  0.00  0.00    +0.013 C 
ATOM     15  C   UNL     1      48.879  12.323  17.911  0.00  0.00    +0.010 C 
ATOM     16  C   UNL     1      48.484  12.165  16.462  0.00  0.00    -0.034 C 
ATOM     17  C   UNL     1      49.343  11.039  15.840  0.00  0.00    +0.027 C 
ATOM     18  C   UNL     1      48.713  13.425  15.629  0.00  0.00    +0.031 C 
ATOM     19  C   UNL     1      47.022  11.735  16.295  0.00  0.00    +0.139 C 
ATOM     22  C   UNL     1      46.113  12.677  17.080  0.00  0.00    +0.138 C 
ATOM     25  C   UNL     1      46.447  12.540  18.561  0.00  0.00    +0.044 C 
ATOM     26  C   UNL     1      47.886  12.999  18.840  0.00  0.00    -0.023 C 
ATOM     27  C   UNL     1      48.183  12.498  20.272  0.00  0.00    +0.024 C 
ATOM     28  C   UNL     1      49.259  16.606  18.479  0.00  0.00    -0.001 C 
ATOM     29  C   UNL     1      49.033  16.714  16.962  0.00  0.00    +0.026 C 
ATOM     30  C   UNL     1      50.567  17.316  18.798  0.00  0.00    +0.041 C 
ATOM     31  C   UNL     1      50.474  18.813  18.505  0.00  0.00    +0.072 C 
ATOM     32  C   UNL     1      49.362  19.449  19.332  0.00  0.00    -0.038 C 
ATOM     36  C   UNL     1      49.294  20.949  18.999  0.00  0.00    +0.108 C 
ENDROOT
BRANCH  32  33
ATOM     33  C   UNL     1      49.644  19.298  20.804  0.00  0.00    +0.471 C 
ATOM     34  O   UNL     1      49.796  18.188  21.284  0.00  0.00    -0.312 OA
ATOM     35  O   UNL     1      49.721  20.286  21.514  0.00  0.00    -0.488 OA
ENDBRANCH  32  33
BRANCH   6   3
ATOM      3  C   UNL     1      46.952  19.428  19.910  0.00  0.00    +0.142 C 
ATOM     37  C   UNL     1      46.938  20.947  19.727  0.00  0.00    +0.094 C 
BRANCH   3   2
ATOM      1  C   UNL     1      44.572  19.234  20.642  0.00  0.00    +0.023 C 
ATOM      2  C   UNL     1      45.578  18.859  19.553  0.00  0.00    -0.029 C 
ATOM     38  C   UNL     1      45.119  19.439  18.213  0.00  0.00    +0.031 C 
ENDBRANCH   3   2
BRANCH   3   4
ATOM      4  O   UNL     1      47.260  19.114  21.270  0.00  0.00    -0.519 OA
ATOM      5  H   UNL     1      46.504  19.175  21.869  0.00  0.00    +0.379 HD
ENDBRANCH   3   4
ENDBRANCH   6   3
BRANCH  19  20
ATOM     20  O   UNL     1      46.862  10.397  16.768  0.00  0.00    -0.552 OA
ATOM     21  H   UNL     1      46.210   9.882  16.274  0.00  0.00    +0.378 HD
ENDBRANCH  19  20
BRANCH  22  23
ATOM     23  O   UNL     1      44.748  12.306  16.864  0.00  0.00    -0.568 OA
ATOM     24  H   UNL     1      44.628  11.623  16.189  0.00  0.00    +0.376 HD
ENDBRANCH  22  23
TORSDOF 6
ENDMDL
