MODEL 1
REMARK VINA RESULT:      -6.6      0.000      0.000
REMARK  Name = ZINC15122165
REMARK  12 active torsions:
REMARK  status: ('A' for Active; 'I' for Inactive)
REMARK    1  A    between atoms: C1_1  and  C2_2
REMARK    2  A    between atoms: C2_2  and  C26_34
REMARK    3  A    between atoms: C3_3  and  C4_4
REMARK    4  A    between atoms: C4_4  and  C5_5
REMARK    5  A    between atoms: C5_5  and  C6_6
REMARK    6  A    between atoms: C6_6  and  C25_33
REMARK    7  A    between atoms: C12_12  and  O6_31
REMARK    8  A    between atoms: C16_17  and  C18_21
REMARK    9  A    between atoms: C21_24  and  O5_29
REMARK   10  A    between atoms: C22_25  and  O4_28
REMARK   11  A    between atoms: C23_26  and  O3_27
REMARK   12  A    between atoms: O5_29  and  C24_30
REMARK                            x       y       z     vdW  Elec       q    Type
REMARK                         _______ _______ _______ _____ _____    ______ ____
ROOT
ATOM      7  C   UNL     1      43.867  18.559  21.229  0.00  0.00    +0.152 C 
ATOM      8  C   UNL     1      43.804  19.705  22.241  0.00  0.00    +0.085 C 
ATOM      9  C   UNL     1      43.972  17.250  21.968  0.00  0.00    -0.060 C 
ATOM     10  C   UNL     1      44.592  16.215  21.407  0.00  0.00    +0.065 C 
ATOM     11  C   UNL     1      45.196  16.399  20.071  0.00  0.00    -0.192 A 
ATOM     12  C   UNL     1      45.361  17.707  19.586  0.00  0.00    +0.226 A 
ATOM     13  C   UNL     1      45.901  17.924  18.329  0.00  0.00    -0.071 A 
ATOM     14  C   UNL     1      46.293  16.850  17.547  0.00  0.00    +0.248 A 
ATOM     17  C   UNL     1      46.150  15.538  18.031  0.00  0.00    -0.315 A 
ATOM     18  C   UNL     1      46.550  14.392  17.214  0.00  0.00    +0.414 C 
ATOM     19  O   UNL     1      46.873  14.542  16.054  0.00  0.00    -0.432 OA
ATOM     20  C   UNL     1      46.554  13.022  17.842  0.00  0.00    +0.011 C 
ATOM     33  C   UNL     1      45.492  12.932  18.927  0.00  0.00    +0.285 C 
ATOM     34  O   UNL     1      45.480  14.055  19.784  0.00  0.00    -0.296 OA
ATOM     35  C   UNL     1      45.607  15.308  19.309  0.00  0.00    +0.246 A 
ATOM     36  O   UNL     1      44.993  18.749  20.374  0.00  0.00    -0.292 OA
ENDROOT
BRANCH  20  21
ATOM     21  C   UNL     1      47.909  12.755  18.446  0.00  0.00    -0.137 A 
ATOM     22  C   UNL     1      48.100  12.912  19.806  0.00  0.00    +0.079 A 
ATOM     23  C   UNL     1      49.341  12.669  20.366  0.00  0.00    -0.060 A 
ATOM     24  C   UNL     1      50.400  12.271  19.563  0.00  0.00    +0.128 A 
ATOM     27  C   UNL     1      50.209  12.106  18.197  0.00  0.00    +0.049 A 
ATOM     30  C   UNL     1      48.961  12.353  17.638  0.00  0.00    +0.139 A 
BRANCH  24  25
ATOM     25  O   UNL     1      51.621  12.037  20.114  0.00  0.00    -0.303 OA
ATOM     26  C   UNL     1      52.364  13.176  20.553  0.00  0.00    +0.245 C 
ENDBRANCH  24  25
BRANCH  27  28
ATOM     28  O   UNL     1      51.244  11.711  17.407  0.00  0.00    -0.472 OA
ATOM     29  H   UNL     1      52.039  11.459  17.896  0.00  0.00    +0.385 HD
ENDBRANCH  27  28
BRANCH  30  31
ATOM     31  O   UNL     1      48.771  12.197  16.301  0.00  0.00    -0.480 OA
ATOM     32  H   UNL     1      48.642  13.028  15.822  0.00  0.00    +0.395 HD
ENDBRANCH  30  31
ENDBRANCH  20  21
BRANCH  14  15
ATOM     15  O   UNL     1      46.817  17.064  16.316  0.00  0.00    -0.475 OA
ATOM     16  H   UNL     1      46.243  16.784  15.590  0.00  0.00    +0.405 HD
ENDBRANCH  14  15
BRANCH   7   6
ATOM      6  C   UNL     1      42.589  18.560  20.387  0.00  0.00    +0.018 C 
BRANCH   6   5
ATOM      5  C   UNL     1      42.423  19.925  19.715  0.00  0.00    +0.061 C 
BRANCH   5   4
ATOM      1  C   UNL     1      41.576  22.414  18.692  0.00  0.00    +0.073 C 
ATOM      2  C   UNL     1      40.584  21.294  18.875  0.00  0.00    -0.130 C 
ATOM      3  C   UNL     1      39.151  21.478  18.445  0.00  0.00    +0.072 C 
ATOM      4  C   UNL     1      40.967  20.160  19.407  0.00  0.00    -0.063 C 
ENDBRANCH   5   4
ENDBRANCH   6   5
ENDBRANCH   7   6
TORSDOF 8
ENDMDL
MODEL 2
REMARK VINA RESULT:      -6.4      2.251      8.975
REMARK  Name = ZINC15122165
REMARK  12 active torsions:
REMARK  status: ('A' for Active; 'I' for Inactive)
REMARK    1  A    between atoms: C1_1  and  C2_2
REMARK    2  A    between atoms: C2_2  and  C26_34
REMARK    3  A    between atoms: C3_3  and  C4_4
REMARK    4  A    between atoms: C4_4  and  C5_5
REMARK    5  A    between atoms: C5_5  and  C6_6
REMARK    6  A    between atoms: C6_6  and  C25_33
REMARK    7  A    between atoms: C12_12  and  O6_31
REMARK    8  A    between atoms: C16_17  and  C18_21
REMARK    9  A    between atoms: C21_24  and  O5_29
REMARK   10  A    between atoms: C22_25  and  O4_28
REMARK   11  A    between atoms: C23_26  and  O3_27
REMARK   12  A    between atoms: O5_29  and  C24_30
REMARK                            x       y       z     vdW  Elec       q    Type
REMARK                         _______ _______ _______ _____ _____    ______ ____
ROOT
ATOM      7  C   UNL     1      46.720  13.511  18.583  0.00  0.00    +0.152 C 
ATOM      8  C   UNL     1      46.554  12.317  17.640  0.00  0.00    +0.085 C 
ATOM      9  C   UNL     1      45.456  13.689  19.384  0.00  0.00    -0.060 C 
ATOM     10  C   UNL     1      45.106  14.897  19.817  0.00  0.00    +0.065 C 
ATOM     11  C   UNL     1      45.964  16.046  19.462  0.00  0.00    -0.192 A 
ATOM     12  C   UNL     1      46.923  15.877  18.449  0.00  0.00    +0.226 A 
ATOM     13  C   UNL     1      47.763  16.921  18.100  0.00  0.00    -0.071 A 
ATOM     14  C   UNL     1      47.655  18.144  18.742  0.00  0.00    +0.248 A 
ATOM     17  C   UNL     1      46.686  18.329  19.743  0.00  0.00    -0.315 A 
ATOM     18  C   UNL     1      46.564  19.611  20.437  0.00  0.00    +0.414 C 
ATOM     19  O   UNL     1      47.388  20.486  20.269  0.00  0.00    -0.432 OA
ATOM     20  C   UNL     1      45.396  19.824  21.365  0.00  0.00    +0.011 C 
ATOM     33  C   UNL     1      44.964  18.504  21.987  0.00  0.00    +0.285 C 
ATOM     34  O   UNL     1      44.884  17.451  21.048  0.00  0.00    -0.296 OA
ATOM     35  C   UNL     1      45.824  17.276  20.100  0.00  0.00    +0.246 A 
ATOM     36  O   UNL     1      47.001  14.680  17.814  0.00  0.00    -0.292 OA
ENDROOT
BRANCH  20  21
ATOM     21  C   UNL     1      44.244  20.411  20.590  0.00  0.00    -0.137 A 
ATOM     22  C   UNL     1      43.184  19.606  20.215  0.00  0.00    +0.079 A 
ATOM     23  C   UNL     1      42.126  20.139  19.503  0.00  0.00    -0.060 A 
ATOM     24  C   UNL     1      42.126  21.483  19.159  0.00  0.00    +0.128 A 
ATOM     27  C   UNL     1      43.186  22.295  19.539  0.00  0.00    +0.049 A 
ATOM     30  C   UNL     1      44.249  21.756  20.254  0.00  0.00    +0.139 A 
BRANCH  24  25
ATOM     25  O   UNL     1      41.085  22.005  18.455  0.00  0.00    -0.303 OA
ATOM     26  C   UNL     1      39.876  21.244  18.424  0.00  0.00    +0.245 C 
ENDBRANCH  24  25
BRANCH  27  28
ATOM     28  O   UNL     1      43.188  23.615  19.208  0.00  0.00    -0.472 OA
ATOM     29  H   UNL     1      43.339  23.785  18.268  0.00  0.00    +0.385 HD
ENDBRANCH  27  28
BRANCH  30  31
ATOM     31  O   UNL     1      45.292  22.546  20.624  0.00  0.00    -0.480 OA
ATOM     32  H   UNL     1      45.712  22.279  21.454  0.00  0.00    +0.395 HD
ENDBRANCH  30  31
ENDBRANCH  20  21
BRANCH  14  15
ATOM     15  O   UNL     1      48.482  19.162  18.403  0.00  0.00    -0.475 OA
ATOM     16  H   UNL     1      48.998  19.513  19.142  0.00  0.00    +0.405 HD
ENDBRANCH  14  15
BRANCH   7   6
ATOM      6  C   UNL     1      47.886  13.242  19.535  0.00  0.00    +0.018 C 
BRANCH   6   5
ATOM      5  C   UNL     1      49.091  12.739  18.737  0.00  0.00    +0.061 C 
BRANCH   5   4
ATOM      1  C   UNL     1      49.895  13.621  16.181  0.00  0.00    +0.073 C 
ATOM      2  C   UNL     1      50.429  14.298  17.417  0.00  0.00    -0.130 C 
ATOM      3  C   UNL     1      51.339  15.493  17.289  0.00  0.00    +0.072 C 
ATOM      4  C   UNL     1      50.103  13.848  18.603  0.00  0.00    -0.063 C 
ENDBRANCH   5   4
ENDBRANCH   6   5
ENDBRANCH   7   6
TORSDOF 8
ENDMDL
MODEL 3
REMARK VINA RESULT:      -6.3      2.562      5.078
REMARK  Name = ZINC15122165
REMARK  12 active torsions:
REMARK  status: ('A' for Active; 'I' for Inactive)
REMARK    1  A    between atoms: C1_1  and  C2_2
REMARK    2  A    between atoms: C2_2  and  C26_34
REMARK    3  A    between atoms: C3_3  and  C4_4
REMARK    4  A    between atoms: C4_4  and  C5_5
REMARK    5  A    between atoms: C5_5  and  C6_6
REMARK    6  A    between atoms: C6_6  and  C25_33
REMARK    7  A    between atoms: C12_12  and  O6_31
REMARK    8  A    between atoms: C16_17  and  C18_21
REMARK    9  A    between atoms: C21_24  and  O5_29
REMARK   10  A    between atoms: C22_25  and  O4_28
REMARK   11  A    between atoms: C23_26  and  O3_27
REMARK   12  A    between atoms: O5_29  and  C24_30
REMARK                            x       y       z     vdW  Elec       q    Type
REMARK                         _______ _______ _______ _____ _____    ______ ____
ROOT
ATOM      7  C   UNL     1      44.403  19.900  19.726  0.00  0.00    +0.152 C 
ATOM      8  C   UNL     1      43.336  20.977  19.521  0.00  0.00    +0.085 C 
ATOM      9  C   UNL     1      45.073  19.609  18.407  0.00  0.00    -0.060 C 
ATOM     10  C   UNL     1      45.581  18.403  18.169  0.00  0.00    +0.065 C 
ATOM     11  C   UNL     1      45.437  17.363  19.209  0.00  0.00    -0.192 A 
ATOM     12  C   UNL     1      44.526  17.585  20.255  0.00  0.00    +0.226 A 
ATOM     13  C   UNL     1      44.376  16.647  21.263  0.00  0.00    -0.071 A 
ATOM     14  C   UNL     1      45.119  15.477  21.238  0.00  0.00    +0.248 A 
ATOM     17  C   UNL     1      46.020  15.238  20.187  0.00  0.00    -0.315 A 
ATOM     18  C   UNL     1      46.819  14.013  20.151  0.00  0.00    +0.414 C 
ATOM     19  O   UNL     1      46.829  13.254  21.097  0.00  0.00    -0.432 OA
ATOM     20  C   UNL     1      47.627  13.712  18.915  0.00  0.00    +0.011 C 
ATOM     33  C   UNL     1      48.065  15.003  18.239  0.00  0.00    +0.285 C 
ATOM     34  O   UNL     1      47.025  15.953  18.137  0.00  0.00    -0.296 OA
ATOM     35  C   UNL     1      46.174  16.183  19.155  0.00  0.00    +0.246 A 
ATOM     36  O   UNL     1      43.789  18.724  20.251  0.00  0.00    -0.292 OA
ENDROOT
BRANCH  20  21
ATOM     21  C   UNL     1      46.790  12.905  17.956  0.00  0.00    -0.137 A 
ATOM     22  C   UNL     1      45.413  12.903  18.076  0.00  0.00    +0.079 A 
ATOM     23  C   UNL     1      44.641  12.164  17.200  0.00  0.00    -0.060 A 
ATOM     24  C   UNL     1      45.245  11.418  16.199  0.00  0.00    +0.128 A 
ATOM     27  C   UNL     1      46.628  11.422  16.072  0.00  0.00    +0.049 A 
ATOM     30  C   UNL     1      47.402  12.166  16.956  0.00  0.00    +0.139 A 
BRANCH  24  25
ATOM     25  O   UNL     1      44.484  10.687  15.340  0.00  0.00    -0.303 OA
ATOM     26  C   UNL     1      43.077  10.655  15.587  0.00  0.00    +0.245 C 
ENDBRANCH  24  25
BRANCH  27  28
ATOM     28  O   UNL     1      47.226  10.696  15.088  0.00  0.00    -0.472 OA
ATOM     29  H   UNL     1      46.855   9.810  14.973  0.00  0.00    +0.385 HD
ENDBRANCH  27  28
BRANCH  30  31
ATOM     31  O   UNL     1      48.756  12.170  16.838  0.00  0.00    -0.480 OA
ATOM     32  H   UNL     1      49.072  12.325  15.936  0.00  0.00    +0.395 HD
ENDBRANCH  30  31
ENDBRANCH  20  21
BRANCH  14  15
ATOM     15  O   UNL     1      44.975  14.563  22.229  0.00  0.00    -0.475 OA
ATOM     16  H   UNL     1      44.354  14.828  22.921  0.00  0.00    +0.405 HD
ENDBRANCH  14  15
BRANCH   7   6
ATOM      6  C   UNL     1      45.449  20.410  20.719  0.00  0.00    +0.018 C 
BRANCH   6   5
ATOM      5  C   UNL     1      46.523  21.200  19.967  0.00  0.00    +0.061 C 
BRANCH   5   4
ATOM      1  C   UNL     1      48.881  20.028  18.956  0.00  0.00    +0.073 C 
ATOM      2  C   UNL     1      48.899  20.736  20.286  0.00  0.00    -0.130 C 
ATOM      3  C   UNL     1      50.193  20.881  21.046  0.00  0.00    +0.072 C 
ATOM      4  C   UNL     1      47.790  21.226  20.782  0.00  0.00    -0.063 C 
ENDBRANCH   5   4
ENDBRANCH   6   5
ENDBRANCH   7   6
TORSDOF 8
ENDMDL
MODEL 4
REMARK VINA RESULT:      -6.3      2.993      9.233
REMARK  Name = ZINC15122165
REMARK  12 active torsions:
REMARK  status: ('A' for Active; 'I' for Inactive)
REMARK    1  A    between atoms: C1_1  and  C2_2
REMARK    2  A    between atoms: C2_2  and  C26_34
REMARK    3  A    between atoms: C3_3  and  C4_4
REMARK    4  A    between atoms: C4_4  and  C5_5
REMARK    5  A    between atoms: C5_5  and  C6_6
REMARK    6  A    between atoms: C6_6  and  C25_33
REMARK    7  A    between atoms: C12_12  and  O6_31
REMARK    8  A    between atoms: C16_17  and  C18_21
REMARK    9  A    between atoms: C21_24  and  O5_29
REMARK   10  A    between atoms: C22_25  and  O4_28
REMARK   11  A    between atoms: C23_26  and  O3_27
REMARK   12  A    between atoms: O5_29  and  C24_30
REMARK                            x       y       z     vdW  Elec       q    Type
REMARK                         _______ _______ _______ _____ _____    ______ ____
ROOT
ATOM      7  C   UNL     1      48.330  14.929  17.797  0.00  0.00    +0.152 C 
ATOM      8  C   UNL     1      48.507  13.933  16.649  0.00  0.00    +0.085 C 
ATOM      9  C   UNL     1      46.981  14.716  18.434  0.00  0.00    -0.060 C 
ATOM     10  C   UNL     1      46.350  15.732  19.017  0.00  0.00    +0.065 C 
ATOM     11  C   UNL     1      46.989  17.064  18.988  0.00  0.00    -0.192 A 
ATOM     12  C   UNL     1      48.061  17.273  18.104  0.00  0.00    +0.226 A 
ATOM     13  C   UNL     1      48.703  18.499  18.060  0.00  0.00    -0.071 A 
ATOM     14  C   UNL     1      48.284  19.532  18.882  0.00  0.00    +0.248 A 
ATOM     17  C   UNL     1      47.200  19.339  19.757  0.00  0.00    -0.315 A 
ATOM     18  C   UNL     1      46.751  20.416  20.638  0.00  0.00    +0.414 C 
ATOM     19  O   UNL     1      47.392  21.442  20.739  0.00  0.00    -0.432 OA
ATOM     20  C   UNL     1      45.475  20.229  21.418  0.00  0.00    +0.011 C 
ATOM     33  C   UNL     1      45.259  18.757  21.736  0.00  0.00    +0.285 C 
ATOM     34  O   UNL     1      45.490  17.911  20.628  0.00  0.00    -0.296 OA
ATOM     35  C   UNL     1      46.538  18.099  19.804  0.00  0.00    +0.246 A 
ATOM     36  O   UNL     1      48.444  16.258  17.289  0.00  0.00    -0.292 OA
ENDROOT
BRANCH  20  21
ATOM     21  C   UNL     1      44.314  20.739  20.604  0.00  0.00    -0.137 A 
ATOM     22  C   UNL     1      43.348  19.859  20.154  0.00  0.00    +0.079 A 
ATOM     23  C   UNL     1      42.281  20.322  19.406  0.00  0.00    -0.060 A 
ATOM     24  C   UNL     1      42.178  21.671  19.102  0.00  0.00    +0.128 A 
ATOM     27  C   UNL     1      43.143  22.559  19.558  0.00  0.00    +0.049 A 
ATOM     30  C   UNL     1      44.216  22.090  20.308  0.00  0.00    +0.139 A 
BRANCH  24  25
ATOM     25  O   UNL     1      41.130  22.124  18.362  0.00  0.00    -0.303 OA
ATOM     26  C   UNL     1      39.927  21.353  18.402  0.00  0.00    +0.245 C 
ENDBRANCH  24  25
BRANCH  27  28
ATOM     28  O   UNL     1      43.044  23.884  19.266  0.00  0.00    -0.472 OA
ATOM     29  H   UNL     1      42.215  24.130  18.832  0.00  0.00    +0.385 HD
ENDBRANCH  27  28
BRANCH  30  31
ATOM     31  O   UNL     1      45.165  22.955  20.753  0.00  0.00    -0.480 OA
ATOM     32  H   UNL     1      45.005  23.290  21.647  0.00  0.00    +0.395 HD
ENDBRANCH  30  31
ENDBRANCH  20  21
BRANCH  14  15
ATOM     15  O   UNL     1      48.917  20.729  18.842  0.00  0.00    -0.475 OA
ATOM     16  H   UNL     1      48.489  21.419  19.367  0.00  0.00    +0.405 HD
ENDBRANCH  14  15
BRANCH   7   6
ATOM      6  C   UNL     1      49.423  14.693  18.841  0.00  0.00    +0.018 C 
BRANCH   6   5
ATOM      5  C   UNL     1      50.796  14.795  18.173  0.00  0.00    +0.061 C 
BRANCH   5   4
ATOM      1  C   UNL     1      51.798  16.876  16.555  0.00  0.00    +0.073 C 
ATOM      2  C   UNL     1      51.985  16.924  18.050  0.00  0.00    -0.130 C 
ATOM      3  C   UNL     1      52.646  18.118  18.690  0.00  0.00    +0.072 C 
ATOM      4  C   UNL     1      51.574  15.927  18.793  0.00  0.00    -0.063 C 
ENDBRANCH   5   4
ENDBRANCH   6   5
ENDBRANCH   7   6
TORSDOF 8
ENDMDL
MODEL 5
REMARK VINA RESULT:      -6.2      2.142      9.221
REMARK  Name = ZINC15122165
REMARK  12 active torsions:
REMARK  status: ('A' for Active; 'I' for Inactive)
REMARK    1  A    between atoms: C1_1  and  C2_2
REMARK    2  A    between atoms: C2_2  and  C26_34
REMARK    3  A    between atoms: C3_3  and  C4_4
REMARK    4  A    between atoms: C4_4  and  C5_5
REMARK    5  A    between atoms: C5_5  and  C6_6
REMARK    6  A    between atoms: C6_6  and  C25_33
REMARK    7  A    between atoms: C12_12  and  O6_31
REMARK    8  A    between atoms: C16_17  and  C18_21
REMARK    9  A    between atoms: C21_24  and  O5_29
REMARK   10  A    between atoms: C22_25  and  O4_28
REMARK   11  A    between atoms: C23_26  and  O3_27
REMARK   12  A    between atoms: O5_29  and  C24_30
REMARK                            x       y       z     vdW  Elec       q    Type
REMARK                         _______ _______ _______ _____ _____    ______ ____
ROOT
ATOM      7  C   UNL     1      47.548  13.230  16.796  0.00  0.00    +0.152 C 
ATOM      8  C   UNL     1      47.602  12.389  15.519  0.00  0.00    +0.085 C 
ATOM      9  C   UNL     1      46.256  12.951  17.519  0.00  0.00    -0.060 C 
ATOM     10  C   UNL     1      45.701  13.890  18.281  0.00  0.00    +0.065 C 
ATOM     11  C   UNL     1      46.364  15.208  18.365  0.00  0.00    -0.192 A 
ATOM     12  C   UNL     1      47.359  15.517  17.422  0.00  0.00    +0.226 A 
ATOM     13  C   UNL     1      48.023  16.731  17.478  0.00  0.00    -0.071 A 
ATOM     14  C   UNL     1      47.699  17.654  18.459  0.00  0.00    +0.248 A 
ATOM     17  C   UNL     1      46.693  17.362  19.396  0.00  0.00    -0.315 A 
ATOM     18  C   UNL     1      46.346  18.322  20.444  0.00  0.00    +0.414 C 
ATOM     19  O   UNL     1      47.016  19.318  20.616  0.00  0.00    -0.432 OA
ATOM     20  C   UNL     1      45.139  18.049  21.304  0.00  0.00    +0.011 C 
ATOM     33  C   UNL     1      44.919  16.551  21.451  0.00  0.00    +0.285 C 
ATOM     34  O   UNL     1      45.034  15.853  20.228  0.00  0.00    -0.296 OA
ATOM     35  C   UNL     1      46.009  16.133  19.343  0.00  0.00    +0.246 A 
ATOM     36  O   UNL     1      47.647  14.611  16.453  0.00  0.00    -0.292 OA
ENDROOT
BRANCH  20  21
ATOM     21  C   UNL     1      43.923  18.673  20.669  0.00  0.00    -0.137 A 
ATOM     22  C   UNL     1      44.035  19.319  19.452  0.00  0.00    +0.079 A 
ATOM     23  C   UNL     1      42.923  19.893  18.866  0.00  0.00    -0.060 A 
ATOM     24  C   UNL     1      41.691  19.827  19.499  0.00  0.00    +0.128 A 
ATOM     27  C   UNL     1      41.573  19.174  20.719  0.00  0.00    +0.049 A 
ATOM     30  C   UNL     1      42.694  18.598  21.306  0.00  0.00    +0.139 A 
BRANCH  24  25
ATOM     25  O   UNL     1      40.598  20.397  18.922  0.00  0.00    -0.303 OA
ATOM     26  C   UNL     1      40.752  21.722  18.410  0.00  0.00    +0.245 C 
ENDBRANCH  24  25
BRANCH  27  28
ATOM     28  O   UNL     1      40.365  19.102  21.341  0.00  0.00    -0.472 OA
ATOM     29  H   UNL     1      39.751  19.807  21.091  0.00  0.00    +0.385 HD
ENDBRANCH  27  28
BRANCH  30  31
ATOM     31  O   UNL     1      42.584  17.961  22.502  0.00  0.00    -0.480 OA
ATOM     32  H   UNL     1      43.213  18.269  23.171  0.00  0.00    +0.395 HD
ENDBRANCH  30  31
ENDBRANCH  20  21
BRANCH  14  15
ATOM     15  O   UNL     1      48.354  18.840  18.515  0.00  0.00    -0.475 OA
ATOM     16  H   UNL     1      48.921  19.013  17.751  0.00  0.00    +0.405 HD
ENDBRANCH  14  15
BRANCH   7   6
ATOM      6  C   UNL     1      48.722  12.849  17.700  0.00  0.00    +0.018 C 
BRANCH   6   5
ATOM      5  C   UNL     1      50.033  13.293  17.046  0.00  0.00    +0.061 C 
BRANCH   5   4
ATOM      1  C   UNL     1      51.510  12.932  14.670  0.00  0.00    +0.073 C 
ATOM      2  C   UNL     1      51.680  11.972  15.819  0.00  0.00    -0.130 C 
ATOM      3  C   UNL     1      52.691  10.857  15.728  0.00  0.00    +0.072 C 
ATOM      4  C   UNL     1      50.948  12.105  16.897  0.00  0.00    -0.063 C 
ENDBRANCH   5   4
ENDBRANCH   6   5
ENDBRANCH   7   6
TORSDOF 8
ENDMDL
MODEL 6
REMARK VINA RESULT:      -6.2      1.963      8.764
REMARK  Name = ZINC15122165
REMARK  12 active torsions:
REMARK  status: ('A' for Active; 'I' for Inactive)
REMARK    1  A    between atoms: C1_1  and  C2_2
REMARK    2  A    between atoms: C2_2  and  C26_34
REMARK    3  A    between atoms: C3_3  and  C4_4
REMARK    4  A    between atoms: C4_4  and  C5_5
REMARK    5  A    between atoms: C5_5  and  C6_6
REMARK    6  A    between atoms: C6_6  and  C25_33
REMARK    7  A    between atoms: C12_12  and  O6_31
REMARK    8  A    between atoms: C16_17  and  C18_21
REMARK    9  A    between atoms: C21_24  and  O5_29
REMARK   10  A    between atoms: C22_25  and  O4_28
REMARK   11  A    between atoms: C23_26  and  O3_27
REMARK   12  A    between atoms: O5_29  and  C24_30
REMARK                            x       y       z     vdW  Elec       q    Type
REMARK                         _______ _______ _______ _____ _____    ______ ____
ROOT
ATOM      7  C   UNL     1      47.603  13.195  16.761  0.00  0.00    +0.152 C 
ATOM      8  C   UNL     1      47.716  12.422  15.445  0.00  0.00    +0.085 C 
ATOM      9  C   UNL     1      46.247  12.945  17.367  0.00  0.00    -0.060 C 
ATOM     10  C   UNL     1      45.680  13.870  18.138  0.00  0.00    +0.065 C 
ATOM     11  C   UNL     1      46.397  15.144  18.348  0.00  0.00    -0.192 A 
ATOM     12  C   UNL     1      47.477  15.451  17.502  0.00  0.00    +0.226 A 
ATOM     13  C   UNL     1      48.191  16.625  17.678  0.00  0.00    -0.071 A 
ATOM     14  C   UNL     1      47.838  17.509  18.684  0.00  0.00    +0.248 A 
ATOM     17  C   UNL     1      46.748  17.220  19.524  0.00  0.00    -0.315 A 
ATOM     18  C   UNL     1      46.367  18.138  20.597  0.00  0.00    +0.414 C 
ATOM     19  O   UNL     1      47.070  19.087  20.877  0.00  0.00    -0.432 OA
ATOM     20  C   UNL     1      45.086  17.883  21.347  0.00  0.00    +0.011 C 
ATOM     33  C   UNL     1      44.783  16.392  21.390  0.00  0.00    +0.285 C 
ATOM     34  O   UNL     1      44.959  15.756  20.140  0.00  0.00    -0.296 OA
ATOM     35  C   UNL     1      46.013  16.033  19.349  0.00  0.00    +0.246 A 
ATOM     36  O   UNL     1      47.795  14.586  16.507  0.00  0.00    -0.292 OA
ENDROOT
BRANCH  20  21
ATOM     21  C   UNL     1      43.954  18.603  20.660  0.00  0.00    -0.137 A 
ATOM     22  C   UNL     1      44.153  19.170  19.415  0.00  0.00    +0.079 A 
ATOM     23  C   UNL     1      43.118  19.833  18.781  0.00  0.00    -0.060 A 
ATOM     24  C   UNL     1      41.878  19.933  19.393  0.00  0.00    +0.128 A 
ATOM     27  C   UNL     1      41.673  19.359  20.641  0.00  0.00    +0.049 A 
ATOM     30  C   UNL     1      42.716  18.695  21.277  0.00  0.00    +0.139 A 
BRANCH  24  25
ATOM     25  O   UNL     1      40.862  20.589  18.770  0.00  0.00    -0.303 OA
ATOM     26  C   UNL     1      41.029  21.993  18.560  0.00  0.00    +0.245 C 
ENDBRANCH  24  25
BRANCH  27  28
ATOM     28  O   UNL     1      40.456  19.451  21.244  0.00  0.00    -0.472 OA
ATOM     29  H   UNL     1      40.302  18.780  21.923  0.00  0.00    +0.385 HD
ENDBRANCH  27  28
BRANCH  30  31
ATOM     31  O   UNL     1      42.521  18.135  22.500  0.00  0.00    -0.480 OA
ATOM     32  H   UNL     1      42.600  17.171  22.508  0.00  0.00    +0.395 HD
ENDBRANCH  30  31
ENDBRANCH  20  21
BRANCH  14  15
ATOM     15  O   UNL     1      48.542  18.654  18.857  0.00  0.00    -0.475 OA
ATOM     16  H   UNL     1      48.073  19.330  19.366  0.00  0.00    +0.405 HD
ENDBRANCH  14  15
BRANCH   7   6
ATOM      6  C   UNL     1      48.684  12.705  17.726  0.00  0.00    +0.018 C 
BRANCH   6   5
ATOM      5  C   UNL     1      48.057  11.766  18.760  0.00  0.00    +0.061 C 
BRANCH   5   4
ATOM      1  C   UNL     1      47.538  13.095  21.193  0.00  0.00    +0.073 C 
ATOM      2  C   UNL     1      48.722  12.171  21.074  0.00  0.00    -0.130 C 
ATOM      3  C   UNL     1      49.591  11.899  22.275  0.00  0.00    +0.072 C 
ATOM      4  C   UNL     1      48.997  11.603  19.926  0.00  0.00    -0.063 C 
ENDBRANCH   5   4
ENDBRANCH   6   5
ENDBRANCH   7   6
TORSDOF 8
ENDMDL
MODEL 7
REMARK VINA RESULT:      -6.1      3.115      4.116
REMARK  Name = ZINC15122165
REMARK  12 active torsions:
REMARK  status: ('A' for Active; 'I' for Inactive)
REMARK    1  A    between atoms: C1_1  and  C2_2
REMARK    2  A    between atoms: C2_2  and  C26_34
REMARK    3  A    between atoms: C3_3  and  C4_4
REMARK    4  A    between atoms: C4_4  and  C5_5
REMARK    5  A    between atoms: C5_5  and  C6_6
REMARK    6  A    between atoms: C6_6  and  C25_33
REMARK    7  A    between atoms: C12_12  and  O6_31
REMARK    8  A    between atoms: C16_17  and  C18_21
REMARK    9  A    between atoms: C21_24  and  O5_29
REMARK   10  A    between atoms: C22_25  and  O4_28
REMARK   11  A    between atoms: C23_26  and  O3_27
REMARK   12  A    between atoms: O5_29  and  C24_30
REMARK                            x       y       z     vdW  Elec       q    Type
REMARK                         _______ _______ _______ _____ _____    ______ ____
ROOT
ATOM      7  C   UNL     1      44.085  18.341  21.241  0.00  0.00    +0.152 C 
ATOM      8  C   UNL     1      43.069  17.956  22.318  0.00  0.00    +0.085 C 
ATOM      9  C   UNL     1      44.338  17.152  20.350  0.00  0.00    -0.060 C 
ATOM     10  C   UNL     1      45.514  17.010  19.744  0.00  0.00    +0.065 C 
ATOM     11  C   UNL     1      46.559  18.022  19.997  0.00  0.00    -0.192 A 
ATOM     12  C   UNL     1      46.390  18.905  21.078  0.00  0.00    +0.226 A 
ATOM     13  C   UNL     1      47.334  19.883  21.337  0.00  0.00    -0.071 A 
ATOM     14  C   UNL     1      48.460  19.991  20.537  0.00  0.00    +0.248 A 
ATOM     17  C   UNL     1      48.649  19.102  19.464  0.00  0.00    -0.315 A 
ATOM     18  C   UNL     1      49.827  19.207  18.604  0.00  0.00    +0.414 C 
ATOM     19  O   UNL     1      50.584  20.150  18.706  0.00  0.00    -0.432 OA
ATOM     20  C   UNL     1      50.082  18.123  17.590  0.00  0.00    +0.011 C 
ATOM     33  C   UNL     1      48.769  17.515  17.120  0.00  0.00    +0.285 C 
ATOM     34  O   UNL     1      47.878  17.236  18.181  0.00  0.00    -0.296 OA
ATOM     35  C   UNL     1      47.697  18.100  19.197  0.00  0.00    +0.246 A 
ATOM     36  O   UNL     1      45.293  18.771  21.866  0.00  0.00    -0.292 OA
ENDROOT
BRANCH  20  21
ATOM     21  C   UNL     1      50.935  17.048  18.213  0.00  0.00    -0.137 A 
ATOM     22  C   UNL     1      50.348  15.888  18.683  0.00  0.00    +0.079 A 
ATOM     23  C   UNL     1      51.126  14.899  19.256  0.00  0.00    -0.060 A 
ATOM     24  C   UNL     1      52.497  15.069  19.366  0.00  0.00    +0.128 A 
ATOM     27  C   UNL     1      53.091  16.231  18.890  0.00  0.00    +0.049 A 
ATOM     30  C   UNL     1      52.307  17.224  18.315  0.00  0.00    +0.139 A 
BRANCH  24  25
ATOM     25  O   UNL     1      53.261  14.097  19.935  0.00  0.00    -0.303 OA
ATOM     26  C   UNL     1      53.439  12.892  19.188  0.00  0.00    +0.245 C 
ENDBRANCH  24  25
BRANCH  27  28
ATOM     28  O   UNL     1      54.438  16.400  18.991  0.00  0.00    -0.472 OA
ATOM     29  H   UNL     1      54.709  17.315  19.145  0.00  0.00    +0.385 HD
ENDBRANCH  27  28
BRANCH  30  31
ATOM     31  O   UNL     1      52.883  18.364  17.851  0.00  0.00    -0.480 OA
ATOM     32  H   UNL     1      53.470  18.228  17.094  0.00  0.00    +0.395 HD
ENDBRANCH  30  31
ENDBRANCH  20  21
BRANCH  14  15
ATOM     15  O   UNL     1      49.381  20.953  20.789  0.00  0.00    -0.475 OA
ATOM     16  H   UNL     1      50.295  20.640  20.758  0.00  0.00    +0.405 HD
ENDBRANCH  14  15
BRANCH   7   6
ATOM      6  C   UNL     1      43.516  19.486  20.401  0.00  0.00    +0.018 C 
BRANCH   6   5
ATOM      5  C   UNL     1      42.147  19.082  19.848  0.00  0.00    +0.061 C 
BRANCH   5   4
ATOM      1  C   UNL     1      40.459  19.321  17.601  0.00  0.00    +0.073 C 
ATOM      2  C   UNL     1      40.466  20.394  18.659  0.00  0.00    -0.130 C 
ATOM      3  C   UNL     1      39.519  21.562  18.555  0.00  0.00    +0.072 C 
ATOM      4  C   UNL     1      41.295  20.312  19.670  0.00  0.00    -0.063 C 
ENDBRANCH   5   4
ENDBRANCH   6   5
ENDBRANCH   7   6
TORSDOF 8
ENDMDL
MODEL 8
REMARK VINA RESULT:      -6.0      3.771      5.929
REMARK  Name = ZINC15122165
REMARK  12 active torsions:
REMARK  status: ('A' for Active; 'I' for Inactive)
REMARK    1  A    between atoms: C1_1  and  C2_2
REMARK    2  A    between atoms: C2_2  and  C26_34
REMARK    3  A    between atoms: C3_3  and  C4_4
REMARK    4  A    between atoms: C4_4  and  C5_5
REMARK    5  A    between atoms: C5_5  and  C6_6
REMARK    6  A    between atoms: C6_6  and  C25_33
REMARK    7  A    between atoms: C12_12  and  O6_31
REMARK    8  A    between atoms: C16_17  and  C18_21
REMARK    9  A    between atoms: C21_24  and  O5_29
REMARK   10  A    between atoms: C22_25  and  O4_28
REMARK   11  A    between atoms: C23_26  and  O3_27
REMARK   12  A    between atoms: O5_29  and  C24_30
REMARK                            x       y       z     vdW  Elec       q    Type
REMARK                         _______ _______ _______ _____ _____    ______ ____
ROOT
ATOM      7  C   UNL     1      50.670  19.534  18.300  0.00  0.00    +0.152 C 
ATOM      8  C   UNL     1      50.887  21.008  17.951  0.00  0.00    +0.085 C 
ATOM      9  C   UNL     1      51.933  18.765  18.013  0.00  0.00    -0.060 C 
ATOM     10  C   UNL     1      51.870  17.479  17.679  0.00  0.00    +0.065 C 
ATOM     11  C   UNL     1      50.540  16.848  17.565  0.00  0.00    -0.192 A 
ATOM     12  C   UNL     1      49.408  17.679  17.511  0.00  0.00    +0.226 A 
ATOM     13  C   UNL     1      48.140  17.129  17.426  0.00  0.00    -0.071 A 
ATOM     14  C   UNL     1      47.981  15.753  17.384  0.00  0.00    +0.248 A 
ATOM     17  C   UNL     1      49.108  14.913  17.419  0.00  0.00    -0.315 A 
ATOM     18  C   UNL     1      48.958  13.459  17.385  0.00  0.00    +0.414 C 
ATOM     19  O   UNL     1      47.860  12.948  17.475  0.00  0.00    -0.432 OA
ATOM     20  C   UNL     1      50.191  12.607  17.234  0.00  0.00    +0.011 C 
ATOM     33  C   UNL     1      51.393  13.298  17.860  0.00  0.00    +0.285 C 
ATOM     34  O   UNL     1      51.485  14.666  17.518  0.00  0.00    -0.296 OA
ATOM     35  C   UNL     1      50.400  15.463  17.499  0.00  0.00    +0.246 A 
ATOM     36  O   UNL     1      49.582  19.024  17.530  0.00  0.00    -0.292 OA
ENDROOT
BRANCH  20  21
ATOM     21  C   UNL     1      50.458  12.370  15.770  0.00  0.00    -0.137 A 
ATOM     22  C   UNL     1      49.770  13.099  14.817  0.00  0.00    +0.079 A 
ATOM     23  C   UNL     1      50.010  12.885  13.473  0.00  0.00    -0.060 A 
ATOM     24  C   UNL     1      50.939  11.935  13.075  0.00  0.00    +0.128 A 
ATOM     27  C   UNL     1      51.636  11.206  14.029  0.00  0.00    +0.049 A 
ATOM     30  C   UNL     1      51.391  11.422  15.380  0.00  0.00    +0.139 A 
BRANCH  24  25
ATOM     25  O   UNL     1      51.171  11.723  11.751  0.00  0.00    -0.303 OA
ATOM     26  C   UNL     1      51.172  12.871  10.900  0.00  0.00    +0.245 C 
ENDBRANCH  24  25
BRANCH  27  28
ATOM     28  O   UNL     1      52.552  10.277  13.643  0.00  0.00    -0.472 OA
ATOM     29  H   UNL     1      53.469  10.582  13.693  0.00  0.00    +0.385 HD
ENDBRANCH  27  28
BRANCH  30  31
ATOM     31  O   UNL     1      52.068  10.707  16.318  0.00  0.00    -0.480 OA
ATOM     32  H   UNL     1      51.587   9.934  16.646  0.00  0.00    +0.395 HD
ENDBRANCH  30  31
ENDBRANCH  20  21
BRANCH  14  15
ATOM     15  O   UNL     1      46.739  15.217  17.307  0.00  0.00    -0.475 OA
ATOM     16  H   UNL     1      46.172  15.428  18.062  0.00  0.00    +0.405 HD
ENDBRANCH  14  15
BRANCH   7   6
ATOM      6  C   UNL     1      50.334  19.414  19.788  0.00  0.00    +0.018 C 
BRANCH   6   5
ATOM      5  C   UNL     1      49.230  20.412  20.143  0.00  0.00    +0.061 C 
BRANCH   5   4
ATOM      1  C   UNL     1      46.806  20.743  18.740  0.00  0.00    +0.073 C 
ATOM      2  C   UNL     1      46.888  19.771  19.889  0.00  0.00    -0.130 C 
ATOM      3  C   UNL     1      45.695  18.921  20.245  0.00  0.00    +0.072 C 
ATOM      4  C   UNL     1      47.996  19.664  20.578  0.00  0.00    -0.063 C 
ENDBRANCH   5   4
ENDBRANCH   6   5
ENDBRANCH   7   6
TORSDOF 8
ENDMDL
MODEL 9
REMARK VINA RESULT:      -5.7      2.408      4.298
REMARK  Name = ZINC15122165
REMARK  12 active torsions:
REMARK  status: ('A' for Active; 'I' for Inactive)
REMARK    1  A    between atoms: C1_1  and  C2_2
REMARK    2  A    between atoms: C2_2  and  C26_34
REMARK    3  A    between atoms: C3_3  and  C4_4
REMARK    4  A    between atoms: C4_4  and  C5_5
REMARK    5  A    between atoms: C5_5  and  C6_6
REMARK    6  A    between atoms: C6_6  and  C25_33
REMARK    7  A    between atoms: C12_12  and  O6_31
REMARK    8  A    between atoms: C16_17  and  C18_21
REMARK    9  A    between atoms: C21_24  and  O5_29
REMARK   10  A    between atoms: C22_25  and  O4_28
REMARK   11  A    between atoms: C23_26  and  O3_27
REMARK   12  A    between atoms: O5_29  and  C24_30
REMARK                            x       y       z     vdW  Elec       q    Type
REMARK                         _______ _______ _______ _____ _____    ______ ____
ROOT
ATOM      7  C   UNL     1      43.198  18.362  21.468  0.00  0.00    +0.152 C 
ATOM      8  C   UNL     1      41.762  18.873  21.597  0.00  0.00    +0.085 C 
ATOM      9  C   UNL     1      43.714  18.676  20.087  0.00  0.00    -0.060 C 
ATOM     10  C   UNL     1      44.634  17.897  19.526  0.00  0.00    +0.065 C 
ATOM     11  C   UNL     1      45.101  16.711  20.273  0.00  0.00    -0.192 A 
ATOM     12  C   UNL     1      44.355  16.286  21.386  0.00  0.00    +0.226 A 
ATOM     13  C   UNL     1      44.769  15.193  22.129  0.00  0.00    -0.071 A 
ATOM     14  C   UNL     1      45.918  14.505  21.771  0.00  0.00    +0.248 A 
ATOM     17  C   UNL     1      46.660  14.912  20.650  0.00  0.00    -0.315 A 
ATOM     18  C   UNL     1      47.880  14.203  20.264  0.00  0.00    +0.414 C 
ATOM     19  O   UNL     1      48.353  13.349  20.985  0.00  0.00    -0.432 OA
ATOM     20  C   UNL     1      48.537  14.552  18.954  0.00  0.00    +0.011 C 
ATOM     33  C   UNL     1      48.286  16.011  18.606  0.00  0.00    +0.285 C 
ATOM     34  O   UNL     1      46.943  16.403  18.801  0.00  0.00    -0.296 OA
ATOM     35  C   UNL     1      46.244  16.017  19.885  0.00  0.00    +0.246 A 
ATOM     36  O   UNL     1      43.220  16.956  21.708  0.00  0.00    -0.292 OA
ENDROOT
BRANCH  20  21
ATOM     21  C   UNL     1      47.975  13.675  17.865  0.00  0.00    -0.137 A 
ATOM     22  C   UNL     1      46.836  12.928  18.101  0.00  0.00    +0.079 A 
ATOM     23  C   UNL     1      46.316  12.122  17.105  0.00  0.00    -0.060 A 
ATOM     24  C   UNL     1      46.937  12.057  15.867  0.00  0.00    +0.128 A 
ATOM     27  C   UNL     1      48.078  12.811  15.625  0.00  0.00    +0.049 A 
ATOM     30  C   UNL     1      48.599  13.620  16.628  0.00  0.00    +0.139 A 
BRANCH  24  25
ATOM     25  O   UNL     1      46.427  11.259  14.890  0.00  0.00    -0.303 OA
ATOM     26  C   UNL     1      45.448  10.296  15.285  0.00  0.00    +0.245 C 
ENDBRANCH  24  25
BRANCH  27  28
ATOM     28  O   UNL     1      48.688  12.754  14.410  0.00  0.00    -0.472 OA
ATOM     29  H   UNL     1      48.241  12.182  13.771  0.00  0.00    +0.385 HD
ENDBRANCH  27  28
BRANCH  30  31
ATOM     31  O   UNL     1      49.718  14.356  16.397  0.00  0.00    -0.480 OA
ATOM     32  H   UNL     1      50.105  14.745  17.194  0.00  0.00    +0.395 HD
ENDBRANCH  30  31
ENDBRANCH  20  21
BRANCH  14  15
ATOM     15  O   UNL     1      46.324  13.439  22.503  0.00  0.00    -0.475 OA
ATOM     16  H   UNL     1      47.170  13.067  22.220  0.00  0.00    +0.405 HD
ENDBRANCH  14  15
BRANCH   7   6
ATOM      6  C   UNL     1      44.077  19.065  22.505  0.00  0.00    +0.018 C 
BRANCH   6   5
ATOM      5  C   UNL     1      44.037  20.576  22.267  0.00  0.00    +0.061 C 
BRANCH   5   4
ATOM      1  C   UNL     1      44.715  22.816  20.692  0.00  0.00    +0.073 C 
ATOM      2  C   UNL     1      45.736  22.205  21.617  0.00  0.00    -0.130 C 
ATOM      3  C   UNL     1      47.100  22.832  21.756  0.00  0.00    +0.072 C 
ATOM      4  C   UNL     1      45.438  21.128  22.301  0.00  0.00    -0.063 C 
ENDBRANCH   5   4
ENDBRANCH   6   5
ENDBRANCH   7   6
TORSDOF 8
ENDMDL
