MODEL 1
REMARK VINA RESULT:      -6.4      0.000      0.000
REMARK  Name = ZINC95486216
REMARK  0 active torsions:
REMARK  status: ('A' for Active; 'I' for Inactive)
REMARK                            x       y       z     vdW  Elec       q    Type
REMARK                         _______ _______ _______ _____ _____    ______ ____
ROOT
ATOM      1  C   UNL     1      48.570  20.755  19.155  0.00  0.00    -0.065 A 
ATOM      2  C   UNL     1      47.209  20.411  18.982  0.00  0.00    +0.018 A 
ATOM      3  C   UNL     1      46.202  21.335  19.302  0.00  0.00    +0.031 A 
ATOM      4  C   UNL     1      44.877  20.995  19.143  0.00  0.00    +0.054 A 
ATOM      5  C   UNL     1      44.522  19.730  18.658  0.00  0.00    +0.021 A 
ATOM      6  O   UNL     1      43.160  19.655  18.598  0.00  0.00    -0.307 OA
ATOM      7  C   UNL     1      42.679  20.724  19.435  0.00  0.00    +0.431 C 
ATOM      8  C   UNL     1      45.497  18.811  18.332  0.00  0.00    +0.073 A 
ATOM      9  O   UNL     1      43.734  21.703  19.383  0.00  0.00    -0.308 OA
ATOM     10  C   UNL     1      46.846  19.137  18.490  0.00  0.00    -0.062 A 
ATOM     11  C   UNL     1      47.898  18.174  18.149  0.00  0.00    +0.018 A 
ATOM     12  C   UNL     1      49.246  18.555  18.320  0.00  0.00    -0.063 A 
ATOM     13  C   UNL     1      50.275  17.666  17.989  0.00  0.00    -0.047 A 
ATOM     14  C   UNL     1      49.965  16.422  17.519  0.00  0.00    +0.041 A 
ATOM     15  C   UNL     1      48.639  16.028  17.354  0.00  0.00    +0.049 A 
ATOM     16  O   UNL     1      48.104  14.852  16.908  0.00  0.00    -0.306 OA
ATOM     17  C   UNL     1      46.741  15.158  16.559  0.00  0.00    +0.434 C 
ATOM     18  O   UNL     1      46.415  16.273  17.411  0.00  0.00    -0.302 OA
ATOM     19  C   UNL     1      51.714  18.083  18.148  0.00  0.00    +0.084 C 
ATOM     20  C   UNL     1      51.844  19.101  19.285  0.00  0.00    +0.281 C 
ATOM     21  N   UNL     1      50.905  20.210  19.052  0.00  0.00    -0.751 N 
ATOM     22  H   UNL     1      51.208  21.132  19.037  0.00  0.00    +0.410 HD
ATOM     23  C   UNL     1      47.602  16.896  17.664  0.00  0.00    +0.035 A 
ATOM     24  C   UNL     1      49.559  19.883  18.853  0.00  0.00    +0.230 A 
ENDROOT
TORSDOF 0
ENDMDL
MODEL 2
REMARK VINA RESULT:      -6.2      1.367      1.510
REMARK  Name = ZINC95486216
REMARK  0 active torsions:
REMARK  status: ('A' for Active; 'I' for Inactive)
REMARK                            x       y       z     vdW  Elec       q    Type
REMARK                         _______ _______ _______ _____ _____    ______ ____
ROOT
ATOM      1  C   UNL     1      48.827  20.948  19.127  0.00  0.00    -0.065 A 
ATOM      2  C   UNL     1      47.669  20.147  19.267  0.00  0.00    +0.018 A 
ATOM      3  C   UNL     1      46.501  20.688  19.827  0.00  0.00    +0.031 A 
ATOM      4  C   UNL     1      45.379  19.904  19.972  0.00  0.00    +0.054 A 
ATOM      5  C   UNL     1      45.390  18.564  19.561  0.00  0.00    +0.021 A 
ATOM      6  O   UNL     1      44.162  18.023  19.817  0.00  0.00    -0.307 OA
ATOM      7  C   UNL     1      43.538  18.914  20.761  0.00  0.00    +0.431 C 
ATOM      8  C   UNL     1      46.526  18.017  19.004  0.00  0.00    +0.073 A 
ATOM      9  O   UNL     1      44.144  20.190  20.482  0.00  0.00    -0.308 OA
ATOM     10  C   UNL     1      47.674  18.796  18.851  0.00  0.00    -0.062 A 
ATOM     11  C   UNL     1      48.893  18.234  18.260  0.00  0.00    +0.018 A 
ATOM     12  C   UNL     1      50.025  19.064  18.121  0.00  0.00    -0.063 A 
ATOM     13  C   UNL     1      51.198  18.564  17.546  0.00  0.00    -0.047 A 
ATOM     14  C   UNL     1      51.246  17.261  17.139  0.00  0.00    +0.041 A 
ATOM     15  C   UNL     1      50.140  16.425  17.279  0.00  0.00    +0.049 A 
ATOM     16  O   UNL     1      49.964  15.111  16.949  0.00  0.00    -0.306 OA
ATOM     17  C   UNL     1      48.539  14.906  16.930  0.00  0.00    +0.434 C 
ATOM     18  O   UNL     1      48.043  15.894  17.853  0.00  0.00    -0.302 OA
ATOM     19  C   UNL     1      52.397  19.459  17.375  0.00  0.00    +0.084 C 
ATOM     20  C   UNL     1      52.414  20.531  18.468  0.00  0.00    +0.281 C 
ATOM     21  N   UNL     1      51.120  21.233  18.477  0.00  0.00    -0.751 N 
ATOM     22  H   UNL     1      51.070  22.199  18.408  0.00  0.00    +0.410 HD
ATOM     23  C   UNL     1      48.962  16.903  17.835  0.00  0.00    +0.035 A 
ATOM     24  C   UNL     1      49.964  20.451  18.589  0.00  0.00    +0.230 A 
ENDROOT
TORSDOF 0
ENDMDL
MODEL 3
REMARK VINA RESULT:      -6.2      2.688      5.293
REMARK  Name = ZINC95486216
REMARK  0 active torsions:
REMARK  status: ('A' for Active; 'I' for Inactive)
REMARK                            x       y       z     vdW  Elec       q    Type
REMARK                         _______ _______ _______ _____ _____    ______ ____
ROOT
ATOM      1  C   UNL     1      47.745  20.930  19.940  0.00  0.00    -0.065 A 
ATOM      2  C   UNL     1      48.689  20.238  19.145  0.00  0.00    +0.018 A 
ATOM      3  C   UNL     1      49.873  20.876  18.741  0.00  0.00    +0.031 A 
ATOM      4  C   UNL     1      50.785  20.205  17.958  0.00  0.00    +0.054 A 
ATOM      5  C   UNL     1      50.545  18.882  17.563  0.00  0.00    +0.021 A 
ATOM      6  O   UNL     1      51.597  18.460  16.801  0.00  0.00    -0.307 OA
ATOM      7  C   UNL     1      52.281  19.660  16.391  0.00  0.00    +0.431 C 
ATOM      8  C   UNL     1      49.391  18.238  17.955  0.00  0.00    +0.073 A 
ATOM      9  O   UNL     1      51.986  20.600  17.441  0.00  0.00    -0.308 OA
ATOM     10  C   UNL     1      48.453  18.904  18.746  0.00  0.00    -0.062 A 
ATOM     11  C   UNL     1      47.220  18.236  19.175  0.00  0.00    +0.018 A 
ATOM     12  C   UNL     1      46.307  18.949  19.979  0.00  0.00    -0.063 A 
ATOM     13  C   UNL     1      45.129  18.336  20.419  0.00  0.00    -0.047 A 
ATOM     14  C   UNL     1      44.859  17.050  20.048  0.00  0.00    +0.041 A 
ATOM     15  C   UNL     1      45.746  16.335  19.245  0.00  0.00    +0.049 A 
ATOM     16  O   UNL     1      45.683  15.060  18.758  0.00  0.00    -0.306 OA
ATOM     17  C   UNL     1      47.028  14.733  18.362  0.00  0.00    +0.434 C 
ATOM     18  O   UNL     1      47.610  16.013  18.049  0.00  0.00    -0.302 OA
ATOM     19  C   UNL     1      44.167  19.091  21.299  0.00  0.00    +0.084 C 
ATOM     20  C   UNL     1      44.248  20.591  21.002  0.00  0.00    +0.281 C 
ATOM     21  N   UNL     1      45.649  21.030  21.105  0.00  0.00    -0.751 N 
ATOM     22  H   UNL     1      45.905  21.770  21.678  0.00  0.00    +0.410 HD
ATOM     23  C   UNL     1      46.926  16.918  18.807  0.00  0.00    +0.035 A 
ATOM     24  C   UNL     1      46.599  20.338  20.344  0.00  0.00    +0.230 A 
ENDROOT
TORSDOF 0
ENDMDL
MODEL 4
REMARK VINA RESULT:      -6.2      2.317      5.121
REMARK  Name = ZINC95486216
REMARK  0 active torsions:
REMARK  status: ('A' for Active; 'I' for Inactive)
REMARK                            x       y       z     vdW  Elec       q    Type
REMARK                         _______ _______ _______ _____ _____    ______ ____
ROOT
ATOM      1  C   UNL     1      50.564  16.563  16.889  0.00  0.00    -0.065 A 
ATOM      2  C   UNL     1      49.352  16.093  17.447  0.00  0.00    +0.018 A 
ATOM      3  C   UNL     1      48.951  14.763  17.245  0.00  0.00    +0.031 A 
ATOM      4  C   UNL     1      47.766  14.311  17.780  0.00  0.00    +0.054 A 
ATOM      5  C   UNL     1      46.953  15.168  18.533  0.00  0.00    +0.021 A 
ATOM      6  O   UNL     1      45.850  14.474  18.940  0.00  0.00    -0.307 OA
ATOM      7  C   UNL     1      45.792  13.313  18.089  0.00  0.00    +0.431 C 
ATOM      8  C   UNL     1      47.333  16.476  18.747  0.00  0.00    +0.073 A 
ATOM      9  O   UNL     1      47.165  13.085  17.722  0.00  0.00    -0.308 OA
ATOM     10  C   UNL     1      48.530  16.953  18.210  0.00  0.00    -0.062 A 
ATOM     11  C   UNL     1      48.954  18.341  18.427  0.00  0.00    +0.018 A 
ATOM     12  C   UNL     1      50.175  18.772  17.869  0.00  0.00    -0.063 A 
ATOM     13  C   UNL     1      50.616  20.085  18.071  0.00  0.00    -0.047 A 
ATOM     14  C   UNL     1      49.846  20.950  18.794  0.00  0.00    +0.041 A 
ATOM     15  C   UNL     1      48.632  20.542  19.344  0.00  0.00    +0.049 A 
ATOM     16  O   UNL     1      47.713  21.225  20.090  0.00  0.00    -0.306 OA
ATOM     17  C   UNL     1      46.897  20.216  20.713  0.00  0.00    +0.434 C 
ATOM     18  O   UNL     1      46.981  19.102  19.803  0.00  0.00    -0.302 OA
ATOM     19  C   UNL     1      51.933  20.537  17.495  0.00  0.00    +0.084 C 
ATOM     20  C   UNL     1      52.243  19.757  16.215  0.00  0.00    +0.281 C 
ATOM     21  N   UNL     1      52.157  18.314  16.494  0.00  0.00    -0.751 N 
ATOM     22  H   UNL     1      52.892  17.716  16.287  0.00  0.00    +0.410 HD
ATOM     23  C   UNL     1      48.181  19.242  19.167  0.00  0.00    +0.035 A 
ATOM     24  C   UNL     1      50.973  17.839  17.071  0.00  0.00    +0.230 A 
ENDROOT
TORSDOF 0
ENDMDL
MODEL 5
REMARK VINA RESULT:      -6.0      2.431      3.837
REMARK  Name = ZINC95486216
REMARK  0 active torsions:
REMARK  status: ('A' for Active; 'I' for Inactive)
REMARK                            x       y       z     vdW  Elec       q    Type
REMARK                         _______ _______ _______ _____ _____    ______ ____
ROOT
ATOM      1  C   UNL     1      45.464  17.517  18.363  0.00  0.00    -0.065 A 
ATOM      2  C   UNL     1      45.445  18.885  18.723  0.00  0.00    +0.018 A 
ATOM      3  C   UNL     1      44.226  19.524  19.000  0.00  0.00    +0.031 A 
ATOM      4  C   UNL     1      44.209  20.859  19.341  0.00  0.00    +0.054 A 
ATOM      5  C   UNL     1      45.403  21.588  19.418  0.00  0.00    +0.021 A 
ATOM      6  O   UNL     1      45.103  22.872  19.771  0.00  0.00    -0.307 OA
ATOM      7  C   UNL     1      43.696  23.026  19.505  0.00  0.00    +0.431 C 
ATOM      8  C   UNL     1      46.610  20.975  19.156  0.00  0.00    +0.073 A 
ATOM      9  O   UNL     1      43.171  21.694  19.646  0.00  0.00    -0.308 OA
ATOM     10  C   UNL     1      46.646  19.624  18.806  0.00  0.00    -0.062 A 
ATOM     11  C   UNL     1      47.920  18.953  18.524  0.00  0.00    +0.018 A 
ATOM     12  C   UNL     1      47.904  17.585  18.182  0.00  0.00    -0.063 A 
ATOM     13  C   UNL     1      49.103  16.911  17.922  0.00  0.00    -0.047 A 
ATOM     14  C   UNL     1      50.285  17.592  17.983  0.00  0.00    +0.041 A 
ATOM     15  C   UNL     1      50.316  18.946  18.310  0.00  0.00    +0.049 A 
ATOM     16  O   UNL     1      51.365  19.814  18.427  0.00  0.00    -0.306 OA
ATOM     17  C   UNL     1      50.856  20.933  19.176  0.00  0.00    +0.434 C 
ATOM     18  O   UNL     1      49.447  20.929  18.876  0.00  0.00    -0.302 OA
ATOM     19  C   UNL     1      49.086  15.444  17.582  0.00  0.00    +0.084 C 
ATOM     20  C   UNL     1      47.774  15.081  16.881  0.00  0.00    +0.281 C 
ATOM     21  N   UNL     1      46.643  15.533  17.707  0.00  0.00    -0.751 N 
ATOM     22  H   UNL     1      45.938  14.922  17.973  0.00  0.00    +0.410 HD
ATOM     23  C   UNL     1      49.142  19.632  18.583  0.00  0.00    +0.035 A 
ATOM     24  C   UNL     1      46.624  16.878  18.093  0.00  0.00    +0.230 A 
ENDROOT
TORSDOF 0
ENDMDL
MODEL 6
REMARK VINA RESULT:      -6.0      3.076      5.152
REMARK  Name = ZINC95486216
REMARK  0 active torsions:
REMARK  status: ('A' for Active; 'I' for Inactive)
REMARK                            x       y       z     vdW  Elec       q    Type
REMARK                         _______ _______ _______ _____ _____    ______ ____
ROOT
ATOM      1  C   UNL     1      47.634  19.592  19.939  0.00  0.00    -0.065 A 
ATOM      2  C   UNL     1      48.702  19.378  19.036  0.00  0.00    +0.018 A 
ATOM      3  C   UNL     1      49.684  20.365  18.858  0.00  0.00    +0.031 A 
ATOM      4  C   UNL     1      50.716  20.159  17.971  0.00  0.00    +0.054 A 
ATOM      5  C   UNL     1      50.800  18.964  17.243  0.00  0.00    +0.021 A 
ATOM      6  O   UNL     1      51.908  19.020  16.446  0.00  0.00    -0.307 OA
ATOM      7  C   UNL     1      52.267  20.413  16.383  0.00  0.00    +0.431 C 
ATOM      8  C   UNL     1      49.849  17.980  17.409  0.00  0.00    +0.073 A 
ATOM      9  O   UNL     1      51.773  20.952  17.623  0.00  0.00    -0.308 OA
ATOM     10  C   UNL     1      48.793  18.173  18.302  0.00  0.00    -0.062 A 
ATOM     11  C   UNL     1      47.771  17.139  18.494  0.00  0.00    +0.018 A 
ATOM     12  C   UNL     1      46.728  17.379  19.413  0.00  0.00    -0.063 A 
ATOM     13  C   UNL     1      45.746  16.407  19.632  0.00  0.00    -0.047 A 
ATOM     14  C   UNL     1      45.793  15.233  18.936  0.00  0.00    +0.041 A 
ATOM     15  C   UNL     1      46.811  14.985  18.017  0.00  0.00    +0.049 A 
ATOM     16  O   UNL     1      47.053  13.901  17.221  0.00  0.00    -0.306 OA
ATOM     17  C   UNL     1      48.428  14.023  16.814  0.00  0.00    +0.434 C 
ATOM     18  O   UNL     1      48.671  15.442  16.860  0.00  0.00    -0.302 OA
ATOM     19  C   UNL     1      44.647  16.655  20.633  0.00  0.00    +0.084 C 
ATOM     20  C   UNL     1      44.351  18.154  20.728  0.00  0.00    +0.281 C 
ATOM     21  N   UNL     1      45.603  18.878  21.000  0.00  0.00    -0.751 N 
ATOM     22  H   UNL     1      45.681  19.486  21.752  0.00  0.00    +0.410 HD
ATOM     23  C   UNL     1      47.802  15.929  17.793  0.00  0.00    +0.035 A 
ATOM     24  C   UNL     1      46.677  18.656  20.130  0.00  0.00    +0.230 A 
ENDROOT
TORSDOF 0
ENDMDL
MODEL 7
REMARK VINA RESULT:      -5.9      3.171      6.582
REMARK  Name = ZINC95486216
REMARK  0 active torsions:
REMARK  status: ('A' for Active; 'I' for Inactive)
REMARK                            x       y       z     vdW  Elec       q    Type
REMARK                         _______ _______ _______ _____ _____    ______ ____
ROOT
ATOM      1  C   UNL     1      47.474  17.347  18.986  0.00  0.00    -0.065 A 
ATOM      2  C   UNL     1      48.384  18.424  18.870  0.00  0.00    +0.018 A 
ATOM      3  C   UNL     1      49.570  18.269  18.134  0.00  0.00    +0.031 A 
ATOM      4  C   UNL     1      50.458  19.316  18.031  0.00  0.00    +0.054 A 
ATOM      5  C   UNL     1      50.188  20.542  18.652  0.00  0.00    +0.021 A 
ATOM      6  O   UNL     1      51.222  21.396  18.394  0.00  0.00    -0.307 OA
ATOM      7  C   UNL     1      52.312  20.560  17.962  0.00  0.00    +0.431 C 
ATOM      8  C   UNL     1      49.026  20.715  19.373  0.00  0.00    +0.073 A 
ATOM      9  O   UNL     1      51.660  19.413  17.388  0.00  0.00    -0.308 OA
ATOM     10  C   UNL     1      48.114  19.664  19.492  0.00  0.00    -0.062 A 
ATOM     11  C   UNL     1      46.871  19.827  20.254  0.00  0.00    +0.018 A 
ATOM     12  C   UNL     1      45.979  18.737  20.337  0.00  0.00    -0.063 A 
ATOM     13  C   UNL     1      44.778  18.865  21.043  0.00  0.00    -0.047 A 
ATOM     14  C   UNL     1      44.484  20.044  21.666  0.00  0.00    +0.041 A 
ATOM     15  C   UNL     1      45.359  21.127  21.601  0.00  0.00    +0.049 A 
ATOM     16  O   UNL     1      45.274  22.380  22.138  0.00  0.00    -0.306 OA
ATOM     17  C   UNL     1      46.229  23.175  21.413  0.00  0.00    +0.434 C 
ATOM     18  O   UNL     1      47.215  22.216  20.986  0.00  0.00    -0.302 OA
ATOM     19  C   UNL     1      43.815  17.708  21.110  0.00  0.00    +0.084 C 
ATOM     20  C   UNL     1      44.577  16.383  21.023  0.00  0.00    +0.281 C 
ATOM     21  N   UNL     1      45.438  16.397  19.829  0.00  0.00    -0.751 N 
ATOM     22  H   UNL     1      45.392  15.690  19.166  0.00  0.00    +0.410 HD
ATOM     23  C   UNL     1      46.551  21.027  20.897  0.00  0.00    +0.035 A 
ATOM     24  C   UNL     1      46.325  17.471  19.687  0.00  0.00    +0.230 A 
ENDROOT
TORSDOF 0
ENDMDL
MODEL 8
REMARK VINA RESULT:      -5.9      2.945      6.337
REMARK  Name = ZINC95486216
REMARK  0 active torsions:
REMARK  status: ('A' for Active; 'I' for Inactive)
REMARK                            x       y       z     vdW  Elec       q    Type
REMARK                         _______ _______ _______ _____ _____    ______ ____
ROOT
ATOM      1  C   UNL     1      46.238  16.969  17.410  0.00  0.00    -0.065 A 
ATOM      2  C   UNL     1      47.437  16.231  17.271  0.00  0.00    +0.018 A 
ATOM      3  C   UNL     1      47.404  14.922  16.765  0.00  0.00    +0.031 A 
ATOM      4  C   UNL     1      48.571  14.202  16.641  0.00  0.00    +0.054 A 
ATOM      5  C   UNL     1      49.798  14.767  17.012  0.00  0.00    +0.021 A 
ATOM      6  O   UNL     1      50.783  13.848  16.789  0.00  0.00    -0.307 OA
ATOM      7  C   UNL     1      50.108  12.581  16.671  0.00  0.00    +0.431 C 
ATOM      8  C   UNL     1      49.851  16.053  17.505  0.00  0.00    +0.073 A 
ATOM      9  O   UNL     1      48.799  12.933  16.188  0.00  0.00    -0.308 OA
ATOM     10  C   UNL     1      48.677  16.798  17.642  0.00  0.00    -0.062 A 
ATOM     11  C   UNL     1      48.711  18.168  18.163  0.00  0.00    +0.018 A 
ATOM     12  C   UNL     1      47.499  18.881  18.275  0.00  0.00    -0.063 A 
ATOM     13  C   UNL     1      47.498  20.196  18.754  0.00  0.00    -0.047 A 
ATOM     14  C   UNL     1      48.675  20.776  19.131  0.00  0.00    +0.041 A 
ATOM     15  C   UNL     1      49.880  20.082  19.036  0.00  0.00    +0.049 A 
ATOM     16  O   UNL     1      51.155  20.456  19.351  0.00  0.00    -0.306 OA
ATOM     17  C   UNL     1      52.010  19.520  18.669  0.00  0.00    +0.434 C 
ATOM     18  O   UNL     1      51.196  18.337  18.558  0.00  0.00    -0.302 OA
ATOM     19  C   UNL     1      46.206  20.964  18.849  0.00  0.00    +0.084 C 
ATOM     20  C   UNL     1      45.038  20.004  19.091  0.00  0.00    +0.281 C 
ATOM     21  N   UNL     1      45.054  18.953  18.060  0.00  0.00    -0.751 N 
ATOM     22  H   UNL     1      44.272  18.768  17.518  0.00  0.00    +0.410 HD
ATOM     23  C   UNL     1      49.906  18.782  18.553  0.00  0.00    +0.035 A 
ATOM     24  C   UNL     1      46.242  18.232  17.893  0.00  0.00    +0.230 A 
ENDROOT
TORSDOF 0
ENDMDL
MODEL 9
REMARK VINA RESULT:      -5.8      3.154      5.868
REMARK  Name = ZINC95486216
REMARK  0 active torsions:
REMARK  status: ('A' for Active; 'I' for Inactive)
REMARK                            x       y       z     vdW  Elec       q    Type
REMARK                         _______ _______ _______ _____ _____    ______ ____
ROOT
ATOM      1  C   UNL     1      46.214  21.105  18.966  0.00  0.00    -0.065 A 
ATOM      2  C   UNL     1      47.404  20.364  19.153  0.00  0.00    +0.018 A 
ATOM      3  C   UNL     1      48.639  20.902  18.755  0.00  0.00    +0.031 A 
ATOM      4  C   UNL     1      49.795  20.175  18.929  0.00  0.00    +0.054 A 
ATOM      5  C   UNL     1      49.753  18.899  19.505  0.00  0.00    +0.021 A 
ATOM      6  O   UNL     1      51.026  18.405  19.559  0.00  0.00    -0.307 OA
ATOM      7  C   UNL     1      51.789  19.209  18.639  0.00  0.00    +0.431 C 
ATOM      8  C   UNL     1      48.551  18.357  19.908  0.00  0.00    +0.073 A 
ATOM      9  O   UNL     1      51.094  20.470  18.626  0.00  0.00    -0.308 OA
ATOM     10  C   UNL     1      47.367  19.078  19.737  0.00  0.00    -0.062 A 
ATOM     11  C   UNL     1      46.078  18.520  20.159  0.00  0.00    +0.018 A 
ATOM     12  C   UNL     1      44.912  19.291  19.971  0.00  0.00    -0.063 A 
ATOM     13  C   UNL     1      43.668  18.795  20.378  0.00  0.00    -0.047 A 
ATOM     14  C   UNL     1      43.589  17.552  20.938  0.00  0.00    +0.041 A 
ATOM     15  C   UNL     1      44.731  16.774  21.120  0.00  0.00    +0.049 A 
ATOM     16  O   UNL     1      44.886  15.524  21.650  0.00  0.00    -0.306 OA
ATOM     17  C   UNL     1      46.286  15.410  21.963  0.00  0.00    +0.434 C 
ATOM     18  O   UNL     1      46.917  16.305  21.026  0.00  0.00    -0.302 OA
ATOM     19  C   UNL     1      42.427  19.630  20.200  0.00  0.00    +0.084 C 
ATOM     20  C   UNL     1      42.584  20.555  18.990  0.00  0.00    +0.281 C 
ATOM     21  N   UNL     1      43.830  21.328  19.130  0.00  0.00    -0.751 N 
ATOM     22  H   UNL     1      43.831  22.296  19.078  0.00  0.00    +0.410 HD
ATOM     23  C   UNL     1      45.976  17.250  20.737  0.00  0.00    +0.035 A 
ATOM     24  C   UNL     1      45.013  20.610  19.342  0.00  0.00    +0.230 A 
ENDROOT
TORSDOF 0
ENDMDL
