MODEL 1
REMARK VINA RESULT:      -6.9      0.000      0.000
REMARK  Name = ZINC95486120
REMARK  13 active torsions:
REMARK  status: ('A' for Active; 'I' for Inactive)
REMARK    1  A    between atoms: C1_1  and  C2_2
REMARK    2  A    between atoms: C2_2  and  C4_4
REMARK    3  A    between atoms: C7_8  and  C32_40
REMARK    4  A    between atoms: C13_17  and  C31_39
REMARK    5  A    between atoms: C16_20  and  C29_35
REMARK    6  A    between atoms: C17_22  and  C27_33
REMARK    7  A    between atoms: C17_22  and  C28_34
REMARK    8  A    between atoms: C21_27  and  C26_32
REMARK    9  A    between atoms: C22_28  and  C25_31
REMARK   10  A    between atoms: C29_35  and  C30_36
REMARK   11  A    between atoms: C32_40  and  C33_41
REMARK   12  A    between atoms: C33_41  and  O4_43
REMARK   13  A    between atoms: O4_43  and  C34_44
REMARK                            x       y       z     vdW  Elec       q    Type
REMARK                         _______ _______ _______ _____ _____    ______ ____
ROOT
ATOM      3  C   UNL     1      49.581  15.511  18.759  0.00  0.00    +0.038 C 
ATOM      4  C   UNL     1      50.978  15.226  18.160  0.00  0.00    +0.004 C 
ATOM      5  C   UNL     1      51.637  16.598  17.964  0.00  0.00    +0.021 C 
ATOM      6  C   UNL     1      50.495  17.652  17.903  0.00  0.00    -0.025 C 
ATOM     12  C   UNL     1      50.875  18.729  18.913  0.00  0.00    +0.015 C 
ATOM     13  C   UNL     1      49.694  19.482  19.505  0.00  0.00    +0.012 C 
ATOM     14  C   UNL     1      48.724  18.484  20.142  0.00  0.00    -0.028 C 
ATOM     15  C   UNL     1      49.496  17.632  21.156  0.00  0.00    +0.017 C 
ATOM     16  C   UNL     1      47.601  19.213  20.895  0.00  0.00    -0.028 C 
ATOM     17  C   UNL     1      48.289  20.038  21.992  0.00  0.00    +0.015 C 
ATOM     18  C   UNL     1      46.674  18.199  21.572  0.00  0.00    +0.015 C 
ATOM     19  C   UNL     1      45.632  18.933  22.403  0.00  0.00    -0.001 C 
ATOM     20  C   UNL     1      44.794  19.921  21.602  0.00  0.00    -0.004 C 
ATOM     21  C   UNL     1      43.454  19.325  21.233  0.00  0.00    -0.045 C 
ATOM     22  C   UNL     1      42.571  19.311  22.505  0.00  0.00    +0.001 C 
ATOM     23  C   UNL     1      43.569  17.876  20.753  0.00  0.00    +0.014 C 
ATOM     24  C   UNL     1      42.689  20.130  20.186  0.00  0.00    +0.019 C 
ATOM     29  C   UNL     1      43.614  20.422  19.004  0.00  0.00    +0.023 C 
ATOM     30  C   UNL     1      44.710  21.356  19.490  0.00  0.00    +0.001 C 
ATOM     31  C   UNL     1      45.562  20.748  20.613  0.00  0.00    -0.026 C 
ATOM     32  C   UNL     1      46.075  22.008  21.374  0.00  0.00    -0.004 C 
ATOM     33  C   UNL     1      46.768  20.069  19.961  0.00  0.00    +0.012 C 
ATOM     34  C   UNL     1      46.248  19.229  18.788  0.00  0.00    +0.016 C 
ATOM     35  C   UNL     1      47.380  18.527  18.054  0.00  0.00    -0.005 C 
ATOM     36  C   UNL     1      48.163  17.623  19.021  0.00  0.00    +0.015 C 
ATOM     37  C   UNL     1      49.213  16.895  18.219  0.00  0.00    +0.004 C 
ENDROOT
BRANCH   3   2
ATOM      1  C   UNL     1      48.160  14.475  16.820  0.00  0.00    +0.069 C 
ATOM      2  C   UNL     1      48.594  14.473  18.263  0.00  0.00    -0.114 C 
ATOM     38  C   UNL     1      48.120  13.575  19.090  0.00  0.00    -0.008 C 
ENDBRANCH   3   2
BRANCH   6   7
ATOM      7  C   UNL     1      50.434  18.261  16.482  0.00  0.00    +0.106 C 
BRANCH   7   8
ATOM      8  C   UNL     1      51.834  18.525  15.989  0.00  0.00    +0.459 C 
ATOM     11  O   UNL     1      52.361  17.752  15.224  0.00  0.00    -0.496 OA
BRANCH   8   9
ATOM      9  O   UNL     1      52.495  19.618  16.400  0.00  0.00    -0.357 OA
ATOM     10  C   UNL     1      51.891  20.883  16.126  0.00  0.00    +0.252 C 
ENDBRANCH   8   9
ENDBRANCH   7   8
ENDBRANCH   6   7
BRANCH  24  25
ATOM     25  C   UNL     1      41.483  19.322  19.698  0.00  0.00    -0.070 C 
BRANCH  25  26
ATOM     26  C   UNL     1      40.685  20.149  18.723  0.00  0.00    +0.489 C 
ATOM     27  O   UNL     1      40.302  21.262  19.039  0.00  0.00    -0.713 OA
ATOM     28  O   UNL     1      40.426  19.706  17.617  0.00  0.00    -0.694 OA
ENDBRANCH  25  26
ENDBRANCH  24  25
TORSDOF 6
ENDMDL
MODEL 2
REMARK VINA RESULT:      -6.5      2.538      7.989
REMARK  Name = ZINC95486120
REMARK  13 active torsions:
REMARK  status: ('A' for Active; 'I' for Inactive)
REMARK    1  A    between atoms: C1_1  and  C2_2
REMARK    2  A    between atoms: C2_2  and  C4_4
REMARK    3  A    between atoms: C7_8  and  C32_40
REMARK    4  A    between atoms: C13_17  and  C31_39
REMARK    5  A    between atoms: C16_20  and  C29_35
REMARK    6  A    between atoms: C17_22  and  C27_33
REMARK    7  A    between atoms: C17_22  and  C28_34
REMARK    8  A    between atoms: C21_27  and  C26_32
REMARK    9  A    between atoms: C22_28  and  C25_31
REMARK   10  A    between atoms: C29_35  and  C30_36
REMARK   11  A    between atoms: C32_40  and  C33_41
REMARK   12  A    between atoms: C33_41  and  O4_43
REMARK   13  A    between atoms: O4_43  and  C34_44
REMARK                            x       y       z     vdW  Elec       q    Type
REMARK                         _______ _______ _______ _____ _____    ______ ____
ROOT
ATOM      3  C   UNL     1      47.389  20.258  20.954  0.00  0.00    +0.038 C 
ATOM      4  C   UNL     1      46.628  21.542  21.357  0.00  0.00    +0.004 C 
ATOM      5  C   UNL     1      45.139  21.226  21.163  0.00  0.00    +0.021 C 
ATOM      6  C   UNL     1      45.049  20.038  20.161  0.00  0.00    -0.025 C 
ATOM     12  C   UNL     1      44.155  19.002  20.832  0.00  0.00    +0.015 C 
ATOM     13  C   UNL     1      44.423  17.567  20.404  0.00  0.00    +0.012 C 
ATOM     14  C   UNL     1      45.896  17.230  20.654  0.00  0.00    -0.028 C 
ATOM     15  C   UNL     1      46.220  17.517  22.124  0.00  0.00    +0.017 C 
ATOM     16  C   UNL     1      46.172  15.743  20.390  0.00  0.00    -0.028 C 
ATOM     17  C   UNL     1      45.289  14.964  21.375  0.00  0.00    +0.015 C 
ATOM     18  C   UNL     1      47.635  15.414  20.700  0.00  0.00    +0.015 C 
ATOM     19  C   UNL     1      47.870  13.919  20.540  0.00  0.00    -0.001 C 
ATOM     20  C   UNL     1      47.518  13.388  19.156  0.00  0.00    -0.004 C 
ATOM     21  C   UNL     1      48.757  13.237  18.301  0.00  0.00    -0.045 C 
ATOM     22  C   UNL     1      49.529  11.989  18.795  0.00  0.00    +0.001 C 
ATOM     23  C   UNL     1      49.706  14.430  18.428  0.00  0.00    +0.014 C 
ATOM     24  C   UNL     1      48.458  13.002  16.822  0.00  0.00    +0.019 C 
ATOM     29  C   UNL     1      47.463  14.056  16.338  0.00  0.00    +0.023 C 
ATOM     30  C   UNL     1      46.141  13.809  17.046  0.00  0.00    +0.001 C 
ATOM     31  C   UNL     1      46.247  13.931  18.573  0.00  0.00    -0.026 C 
ATOM     32  C   UNL     1      45.089  13.012  19.070  0.00  0.00    -0.004 C 
ATOM     33  C   UNL     1      45.897  15.373  18.946  0.00  0.00    +0.012 C 
ATOM     34  C   UNL     1      46.673  16.297  18.000  0.00  0.00    +0.016 C 
ATOM     35  C   UNL     1      46.373  17.763  18.275  0.00  0.00    -0.005 C 
ATOM     36  C   UNL     1      46.722  18.113  19.731  0.00  0.00    +0.015 C 
ATOM     37  C   UNL     1      46.483  19.592  19.917  0.00  0.00    +0.004 C 
ENDROOT
BRANCH   3   2
ATOM      1  C   UNL     1      49.946  20.764  21.197  0.00  0.00    +0.069 C 
ATOM      2  C   UNL     1      48.719  20.630  20.331  0.00  0.00    -0.114 C 
ATOM     38  C   UNL     1      48.802  20.836  19.040  0.00  0.00    -0.008 C 
ENDBRANCH   3   2
BRANCH   6   7
ATOM      7  C   UNL     1      44.396  20.525  18.847  0.00  0.00    +0.106 C 
BRANCH   7   8
ATOM      8  C   UNL     1      42.958  20.894  19.107  0.00  0.00    +0.459 C 
ATOM     11  O   UNL     1      42.667  22.033  19.385  0.00  0.00    -0.496 OA
BRANCH   8   9
ATOM      9  O   UNL     1      42.000  19.956  19.029  0.00  0.00    -0.357 OA
ATOM     10  C   UNL     1      40.776  20.330  18.394  0.00  0.00    +0.252 C 
ENDBRANCH   8   9
ENDBRANCH   7   8
ENDBRANCH   6   7
BRANCH  24  25
ATOM     25  C   UNL     1      49.754  13.118  16.013  0.00  0.00    -0.070 C 
BRANCH  25  26
ATOM     26  C   UNL     1      49.597  12.384  14.706  0.00  0.00    +0.489 C 
ATOM     27  O   UNL     1      49.790  12.968  13.654  0.00  0.00    -0.713 OA
ATOM     28  O   UNL     1      49.281  11.207  14.702  0.00  0.00    -0.694 OA
ENDBRANCH  25  26
ENDBRANCH  24  25
TORSDOF 6
ENDMDL
MODEL 3
REMARK VINA RESULT:      -6.1      2.616      4.255
REMARK  Name = ZINC95486120
REMARK  13 active torsions:
REMARK  status: ('A' for Active; 'I' for Inactive)
REMARK    1  A    between atoms: C1_1  and  C2_2
REMARK    2  A    between atoms: C2_2  and  C4_4
REMARK    3  A    between atoms: C7_8  and  C32_40
REMARK    4  A    between atoms: C13_17  and  C31_39
REMARK    5  A    between atoms: C16_20  and  C29_35
REMARK    6  A    between atoms: C17_22  and  C27_33
REMARK    7  A    between atoms: C17_22  and  C28_34
REMARK    8  A    between atoms: C21_27  and  C26_32
REMARK    9  A    between atoms: C22_28  and  C25_31
REMARK   10  A    between atoms: C29_35  and  C30_36
REMARK   11  A    between atoms: C32_40  and  C33_41
REMARK   12  A    between atoms: C33_41  and  O4_43
REMARK   13  A    between atoms: O4_43  and  C34_44
REMARK                            x       y       z     vdW  Elec       q    Type
REMARK                         _______ _______ _______ _____ _____    ______ ____
ROOT
ATOM      3  C   UNL     1      47.444  13.514  19.899  0.00  0.00    +0.038 C 
ATOM      4  C   UNL     1      47.839  12.178  19.227  0.00  0.00    +0.004 C 
ATOM      5  C   UNL     1      48.772  12.552  18.067  0.00  0.00    +0.021 C 
ATOM      6  C   UNL     1      48.489  14.040  17.711  0.00  0.00    -0.025 C 
ATOM     12  C   UNL     1      49.849  14.728  17.709  0.00  0.00    +0.015 C 
ATOM     13  C   UNL     1      49.804  16.213  18.032  0.00  0.00    +0.012 C 
ATOM     14  C   UNL     1      49.116  16.417  19.385  0.00  0.00    -0.028 C 
ATOM     15  C   UNL     1      49.840  15.568  20.435  0.00  0.00    +0.017 C 
ATOM     16  C   UNL     1      49.196  17.886  19.827  0.00  0.00    -0.028 C 
ATOM     17  C   UNL     1      50.690  18.212  19.953  0.00  0.00    +0.015 C 
ATOM     18  C   UNL     1      48.552  18.058  21.205  0.00  0.00    +0.015 C 
ATOM     19  C   UNL     1      48.733  19.493  21.680  0.00  0.00    -0.001 C 
ATOM     20  C   UNL     1      48.160  20.532  20.725  0.00  0.00    -0.004 C 
ATOM     21  C   UNL     1      46.800  21.005  21.189  0.00  0.00    -0.045 C 
ATOM     22  C   UNL     1      47.012  21.951  22.397  0.00  0.00    +0.001 C 
ATOM     23  C   UNL     1      45.912  19.856  21.670  0.00  0.00    +0.014 C 
ATOM     24  C   UNL     1      46.038  21.810  20.140  0.00  0.00    +0.019 C 
ATOM     29  C   UNL     1      46.038  21.039  18.819  0.00  0.00    +0.023 C 
ATOM     30  C   UNL     1      47.468  20.990  18.308  0.00  0.00    +0.001 C 
ATOM     31  C   UNL     1      48.424  20.271  19.271  0.00  0.00    -0.026 C 
ATOM     32  C   UNL     1      49.801  20.920  18.935  0.00  0.00    -0.004 C 
ATOM     33  C   UNL     1      48.482  18.801  18.850  0.00  0.00    +0.012 C 
ATOM     34  C   UNL     1      47.041  18.326  18.628  0.00  0.00    +0.016 C 
ATOM     35  C   UNL     1      46.991  16.872  18.182  0.00  0.00    -0.005 C 
ATOM     36  C   UNL     1      47.670  15.971  19.225  0.00  0.00    +0.015 C 
ATOM     37  C   UNL     1      47.514  14.541  18.767  0.00  0.00    +0.004 C 
ENDROOT
BRANCH   3   2
ATOM      1  C   UNL     1      45.781  13.472  21.919  0.00  0.00    +0.069 C 
ATOM      2  C   UNL     1      46.030  13.414  20.434  0.00  0.00    -0.114 C 
ATOM     38  C   UNL     1      45.025  13.278  19.605  0.00  0.00    -0.008 C 
ENDBRANCH   3   2
BRANCH   6   7
ATOM      7  C   UNL     1      47.857  14.118  16.302  0.00  0.00    +0.106 C 
BRANCH   7   8
ATOM      8  C   UNL     1      48.412  13.013  15.440  0.00  0.00    +0.459 C 
ATOM     11  O   UNL     1      47.760  12.016  15.242  0.00  0.00    -0.496 OA
BRANCH   8   9
ATOM      9  O   UNL     1      49.631  13.138  14.893  0.00  0.00    -0.357 OA
ATOM     10  C   UNL     1      50.003  12.170  13.909  0.00  0.00    +0.252 C 
ENDBRANCH   8   9
ENDBRANCH   7   8
ENDBRANCH   6   7
BRANCH  24  25
ATOM     25  C   UNL     1      44.593  22.020  20.605  0.00  0.00    -0.070 C 
BRANCH  25  26
ATOM     26  C   UNL     1      43.943  23.085  19.759  0.00  0.00    +0.489 C 
ATOM     27  O   UNL     1      44.591  24.049  19.390  0.00  0.00    -0.713 OA
ATOM     28  O   UNL     1      42.771  22.980  19.443  0.00  0.00    -0.694 OA
ENDBRANCH  25  26
ENDBRANCH  24  25
TORSDOF 6
ENDMDL
MODEL 4
REMARK VINA RESULT:      -5.9      2.471      3.479
REMARK  Name = ZINC95486120
REMARK  13 active torsions:
REMARK  status: ('A' for Active; 'I' for Inactive)
REMARK    1  A    between atoms: C1_1  and  C2_2
REMARK    2  A    between atoms: C2_2  and  C4_4
REMARK    3  A    between atoms: C7_8  and  C32_40
REMARK    4  A    between atoms: C13_17  and  C31_39
REMARK    5  A    between atoms: C16_20  and  C29_35
REMARK    6  A    between atoms: C17_22  and  C27_33
REMARK    7  A    between atoms: C17_22  and  C28_34
REMARK    8  A    between atoms: C21_27  and  C26_32
REMARK    9  A    between atoms: C22_28  and  C25_31
REMARK   10  A    between atoms: C29_35  and  C30_36
REMARK   11  A    between atoms: C32_40  and  C33_41
REMARK   12  A    between atoms: C33_41  and  O4_43
REMARK   13  A    between atoms: O4_43  and  C34_44
REMARK                            x       y       z     vdW  Elec       q    Type
REMARK                         _______ _______ _______ _____ _____    ______ ____
ROOT
ATOM      3  C   UNL     1      47.497  12.827  18.656  0.00  0.00    +0.038 C 
ATOM      4  C   UNL     1      48.461  11.746  18.113  0.00  0.00    +0.004 C 
ATOM      5  C   UNL     1      49.813  12.446  17.925  0.00  0.00    +0.021 C 
ATOM      6  C   UNL     1      49.529  13.971  17.810  0.00  0.00    -0.025 C 
ATOM     12  C   UNL     1      50.455  14.639  18.821  0.00  0.00    +0.015 C 
ATOM     13  C   UNL     1      49.944  15.967  19.360  0.00  0.00    +0.012 C 
ATOM     14  C   UNL     1      48.556  15.765  19.973  0.00  0.00    -0.028 C 
ATOM     15  C   UNL     1      48.641  14.652  21.024  0.00  0.00    +0.017 C 
ATOM     16  C   UNL     1      48.074  17.043  20.675  0.00  0.00    -0.028 C 
ATOM     17  C   UNL     1      49.093  17.328  21.787  0.00  0.00    +0.015 C 
ATOM     18  C   UNL     1      46.710  16.804  21.329  0.00  0.00    +0.015 C 
ATOM     19  C   UNL     1      46.294  18.041  22.112  0.00  0.00    -0.001 C 
ATOM     20  C   UNL     1      46.231  19.309  21.270  0.00  0.00    -0.004 C 
ATOM     21  C   UNL     1      44.809  19.618  20.858  0.00  0.00    -0.045 C 
ATOM     22  C   UNL     1      44.064  20.175  22.097  0.00  0.00    +0.001 C 
ATOM     23  C   UNL     1      44.047  18.374  20.399  0.00  0.00    +0.014 C 
ATOM     24  C   UNL     1      44.702  20.688  19.774  0.00  0.00    +0.019 C 
ATOM     29  C   UNL     1      45.645  20.333  18.625  0.00  0.00    +0.023 C 
ATOM     30  C   UNL     1      47.070  20.443  19.140  0.00  0.00    +0.001 C 
ATOM     31  C   UNL     1      47.364  19.482  20.301  0.00  0.00    -0.026 C 
ATOM     32  C   UNL     1      48.510  20.210  21.066  0.00  0.00    -0.004 C 
ATOM     33  C   UNL     1      47.939  18.197  19.701  0.00  0.00    +0.012 C 
ATOM     34  C   UNL     1      47.048  17.798  18.519  0.00  0.00    +0.016 C 
ATOM     35  C   UNL     1      47.553  16.536  17.836  0.00  0.00    -0.005 C 
ATOM     36  C   UNL     1      47.617  15.375  18.841  0.00  0.00    +0.015 C 
ATOM     37  C   UNL     1      48.042  14.139  18.087  0.00  0.00    +0.004 C 
ENDROOT
BRANCH   3   2
ATOM      1  C   UNL     1      45.902  11.852  16.825  0.00  0.00    +0.069 C 
ATOM      2  C   UNL     1      46.098  12.568  18.136  0.00  0.00    -0.114 C 
ATOM     38  C   UNL     1      45.059  12.967  18.827  0.00  0.00    -0.008 C 
ENDBRANCH   3   2
BRANCH   6   7
ATOM      7  C   UNL     1      49.877  14.451  16.382  0.00  0.00    +0.106 C 
BRANCH   7   8
ATOM      8  C   UNL     1      49.776  13.291  15.424  0.00  0.00    +0.459 C 
ATOM     11  O   UNL     1      48.709  13.003  14.934  0.00  0.00    -0.496 OA
BRANCH   8   9
ATOM      9  O   UNL     1      50.870  12.577  15.116  0.00  0.00    -0.357 OA
ATOM     10  C   UNL     1      51.901  13.250  14.391  0.00  0.00    +0.252 C 
ENDBRANCH   8   9
ENDBRANCH   7   8
ENDBRANCH   6   7
BRANCH  24  25
ATOM     25  C   UNL     1      43.263  20.745  19.251  0.00  0.00    -0.070 C 
BRANCH  25  26
ATOM     26  C   UNL     1      42.770  22.169  19.292  0.00  0.00    +0.489 C 
ATOM     27  O   UNL     1      43.497  23.053  19.710  0.00  0.00    -0.713 OA
ATOM     28  O   UNL     1      41.645  22.436  18.905  0.00  0.00    -0.694 OA
ENDBRANCH  25  26
ENDBRANCH  24  25
TORSDOF 6
ENDMDL
MODEL 5
REMARK VINA RESULT:      -5.8      3.021      7.120
REMARK  Name = ZINC95486120
REMARK  13 active torsions:
REMARK  status: ('A' for Active; 'I' for Inactive)
REMARK    1  A    between atoms: C1_1  and  C2_2
REMARK    2  A    between atoms: C2_2  and  C4_4
REMARK    3  A    between atoms: C7_8  and  C32_40
REMARK    4  A    between atoms: C13_17  and  C31_39
REMARK    5  A    between atoms: C16_20  and  C29_35
REMARK    6  A    between atoms: C17_22  and  C27_33
REMARK    7  A    between atoms: C17_22  and  C28_34
REMARK    8  A    between atoms: C21_27  and  C26_32
REMARK    9  A    between atoms: C22_28  and  C25_31
REMARK   10  A    between atoms: C29_35  and  C30_36
REMARK   11  A    between atoms: C32_40  and  C33_41
REMARK   12  A    between atoms: C33_41  and  O4_43
REMARK   13  A    between atoms: O4_43  and  C34_44
REMARK                            x       y       z     vdW  Elec       q    Type
REMARK                         _______ _______ _______ _____ _____    ______ ____
ROOT
ATOM      3  C   UNL     1      49.995  19.347  19.090  0.00  0.00    +0.038 C 
ATOM      4  C   UNL     1      49.871  20.872  19.313  0.00  0.00    +0.004 C 
ATOM      5  C   UNL     1      48.466  21.099  19.886  0.00  0.00    +0.021 C 
ATOM      6  C   UNL     1      47.602  19.868  19.486  0.00  0.00    -0.025 C 
ATOM     12  C   UNL     1      46.962  19.378  20.779  0.00  0.00    +0.015 C 
ATOM     13  C   UNL     1      46.630  17.893  20.793  0.00  0.00    +0.012 C 
ATOM     14  C   UNL     1      47.897  17.087  20.497  0.00  0.00    -0.028 C 
ATOM     15  C   UNL     1      48.983  17.497  21.499  0.00  0.00    +0.017 C 
ATOM     16  C   UNL     1      47.643  15.582  20.665  0.00  0.00    -0.028 C 
ATOM     17  C   UNL     1      47.232  15.380  22.130  0.00  0.00    +0.015 C 
ATOM     18  C   UNL     1      48.935  14.797  20.420  0.00  0.00    +0.015 C 
ATOM     19  C   UNL     1      48.697  13.320  20.695  0.00  0.00    -0.001 C 
ATOM     20  C   UNL     1      47.576  12.713  19.861  0.00  0.00    -0.004 C 
ATOM     21  C   UNL     1      48.130  11.961  18.670  0.00  0.00    -0.045 C 
ATOM     22  C   UNL     1      48.729  10.629  19.185  0.00  0.00    +0.001 C 
ATOM     23  C   UNL     1      49.260  12.719  17.971  0.00  0.00    +0.014 C 
ATOM     24  C   UNL     1      47.073  11.587  17.634  0.00  0.00    +0.019 C 
ATOM     29  C   UNL     1      46.249  12.828  17.288  0.00  0.00    +0.023 C 
ATOM     30  C   UNL     1      45.458  13.221  18.525  0.00  0.00    +0.001 C 
ATOM     31  C   UNL     1      46.353  13.572  19.722  0.00  0.00    -0.026 C 
ATOM     32  C   UNL     1      45.434  13.254  20.941  0.00  0.00    -0.004 C 
ATOM     33  C   UNL     1      46.591  15.083  19.693  0.00  0.00    +0.012 C 
ATOM     34  C   UNL     1      46.968  15.465  18.256  0.00  0.00    +0.016 C 
ATOM     35  C   UNL     1      47.203  16.961  18.116  0.00  0.00    -0.005 C 
ATOM     36  C   UNL     1      48.317  17.417  19.073  0.00  0.00    +0.015 C 
ATOM     37  C   UNL     1      48.560  18.886  18.827  0.00  0.00    +0.004 C 
ENDROOT
BRANCH   3   2
ATOM      1  C   UNL     1      51.364  17.684  17.603  0.00  0.00    +0.069 C 
ATOM      2  C   UNL     1      50.865  19.079  17.879  0.00  0.00    -0.114 C 
ATOM     38  C   UNL     1      51.183  20.061  17.073  0.00  0.00    -0.008 C 
ENDBRANCH   3   2
BRANCH   6   7
ATOM      7  C   UNL     1      46.506  20.313  18.490  0.00  0.00    +0.106 C 
BRANCH   7   8
ATOM      8  C   UNL     1      45.366  20.945  19.249  0.00  0.00    +0.459 C 
ATOM     11  O   UNL     1      44.317  20.358  19.362  0.00  0.00    -0.496 OA
BRANCH   8   9
ATOM      9  O   UNL     1      45.518  22.161  19.798  0.00  0.00    -0.357 OA
ATOM     10  C   UNL     1      44.415  23.063  19.691  0.00  0.00    +0.252 C 
ENDBRANCH   8   9
ENDBRANCH   7   8
ENDBRANCH   6   7
BRANCH  24  25
ATOM     25  C   UNL     1      47.760  11.065  16.368  0.00  0.00    -0.070 C 
BRANCH  25  26
ATOM     26  C   UNL     1      46.765  11.027  15.236  0.00  0.00    +0.489 C 
ATOM     27  O   UNL     1      46.934  11.726  14.253  0.00  0.00    -0.713 OA
ATOM     28  O   UNL     1      45.794  10.294  15.304  0.00  0.00    -0.694 OA
ENDBRANCH  25  26
ENDBRANCH  24  25
TORSDOF 6
ENDMDL
MODEL 6
REMARK VINA RESULT:      -5.8      1.374      8.133
REMARK  Name = ZINC95486120
REMARK  13 active torsions:
REMARK  status: ('A' for Active; 'I' for Inactive)
REMARK    1  A    between atoms: C1_1  and  C2_2
REMARK    2  A    between atoms: C2_2  and  C4_4
REMARK    3  A    between atoms: C7_8  and  C32_40
REMARK    4  A    between atoms: C13_17  and  C31_39
REMARK    5  A    between atoms: C16_20  and  C29_35
REMARK    6  A    between atoms: C17_22  and  C27_33
REMARK    7  A    between atoms: C17_22  and  C28_34
REMARK    8  A    between atoms: C21_27  and  C26_32
REMARK    9  A    between atoms: C22_28  and  C25_31
REMARK   10  A    between atoms: C29_35  and  C30_36
REMARK   11  A    between atoms: C32_40  and  C33_41
REMARK   12  A    between atoms: C33_41  and  O4_43
REMARK   13  A    between atoms: O4_43  and  C34_44
REMARK                            x       y       z     vdW  Elec       q    Type
REMARK                         _______ _______ _______ _____ _____    ______ ____
ROOT
ATOM      3  C   UNL     1      44.919  20.297  22.192  0.00  0.00    +0.038 C 
ATOM      4  C   UNL     1      43.400  20.380  22.468  0.00  0.00    +0.004 C 
ATOM      5  C   UNL     1      42.772  19.202  21.710  0.00  0.00    +0.021 C 
ATOM      6  C   UNL     1      43.770  18.791  20.591  0.00  0.00    -0.025 C 
ATOM     12  C   UNL     1      43.967  17.287  20.746  0.00  0.00    +0.015 C 
ATOM     13  C   UNL     1      45.310  16.774  20.250  0.00  0.00    +0.012 C 
ATOM     14  C   UNL     1      46.436  17.527  20.963  0.00  0.00    -0.028 C 
ATOM     15  C   UNL     1      46.233  17.391  22.477  0.00  0.00    +0.017 C 
ATOM     16  C   UNL     1      47.806  16.926  20.615  0.00  0.00    -0.028 C 
ATOM     17  C   UNL     1      47.769  15.470  21.100  0.00  0.00    +0.015 C 
ATOM     18  C   UNL     1      48.913  17.656  21.380  0.00  0.00    +0.015 C 
ATOM     19  C   UNL     1      50.251  16.983  21.111  0.00  0.00    -0.001 C 
ATOM     20  C   UNL     1      50.620  16.920  19.635  0.00  0.00    -0.004 C 
ATOM     21  C   UNL     1      51.589  18.023  19.269  0.00  0.00    -0.045 C 
ATOM     22  C   UNL     1      52.981  17.642  19.831  0.00  0.00    +0.001 C 
ATOM     23  C   UNL     1      51.208  19.368  19.891  0.00  0.00    +0.014 C 
ATOM     24  C   UNL     1      51.768  18.211  17.764  0.00  0.00    +0.019 C 
ATOM     29  C   UNL     1      50.392  18.313  17.105  0.00  0.00    +0.023 C 
ATOM     30  C   UNL     1      49.704  16.966  17.250  0.00  0.00    +0.001 C 
ATOM     31  C   UNL     1      49.492  16.556  18.714  0.00  0.00    -0.026 C 
ATOM     32  C   UNL     1      49.458  14.999  18.632  0.00  0.00    -0.004 C 
ATOM     33  C   UNL     1      48.101  17.036  19.131  0.00  0.00    +0.012 C 
ATOM     34  C   UNL     1      47.954  18.489  18.663  0.00  0.00    +0.016 C 
ATOM     35  C   UNL     1      46.586  19.056  19.012  0.00  0.00    -0.005 C 
ATOM     36  C   UNL     1      46.349  18.982  20.529  0.00  0.00    +0.015 C 
ATOM     37  C   UNL     1      45.018  19.632  20.818  0.00  0.00    +0.004 C 
ENDROOT
BRANCH   3   2
ATOM      1  C   UNL     1      44.654  22.851  21.686  0.00  0.00    +0.069 C 
ATOM      2  C   UNL     1      45.504  21.694  22.146  0.00  0.00    -0.114 C 
ATOM     38  C   UNL     1      46.747  21.895  22.505  0.00  0.00    -0.008 C 
ENDBRANCH   3   2
BRANCH   6   7
ATOM      7  C   UNL     1      43.147  19.100  19.209  0.00  0.00    +0.106 C 
BRANCH   7   8
ATOM      8  C   UNL     1      42.277  20.327  19.315  0.00  0.00    +0.459 C 
ATOM     11  O   UNL     1      42.766  21.426  19.207  0.00  0.00    -0.496 OA
BRANCH   8   9
ATOM      9  O   UNL     1      40.958  20.198  19.528  0.00  0.00    -0.357 OA
ATOM     10  C   UNL     1      40.120  21.266  19.081  0.00  0.00    +0.252 C 
ENDBRANCH   8   9
ENDBRANCH   7   8
ENDBRANCH   6   7
BRANCH  24  25
ATOM     25  C   UNL     1      52.555  19.497  17.498  0.00  0.00    -0.070 C 
BRANCH  25  26
ATOM     26  C   UNL     1      52.082  20.118  16.209  0.00  0.00    +0.489 C 
ATOM     27  O   UNL     1      51.507  21.192  16.225  0.00  0.00    -0.713 OA
ATOM     28  O   UNL     1      52.278  19.547  15.150  0.00  0.00    -0.694 OA
ENDBRANCH  25  26
ENDBRANCH  24  25
TORSDOF 6
ENDMDL
MODEL 7
REMARK VINA RESULT:      -5.7      3.205      7.821
REMARK  Name = ZINC95486120
REMARK  13 active torsions:
REMARK  status: ('A' for Active; 'I' for Inactive)
REMARK    1  A    between atoms: C1_1  and  C2_2
REMARK    2  A    between atoms: C2_2  and  C4_4
REMARK    3  A    between atoms: C7_8  and  C32_40
REMARK    4  A    between atoms: C13_17  and  C31_39
REMARK    5  A    between atoms: C16_20  and  C29_35
REMARK    6  A    between atoms: C17_22  and  C27_33
REMARK    7  A    between atoms: C17_22  and  C28_34
REMARK    8  A    between atoms: C21_27  and  C26_32
REMARK    9  A    between atoms: C22_28  and  C25_31
REMARK   10  A    between atoms: C29_35  and  C30_36
REMARK   11  A    between atoms: C32_40  and  C33_41
REMARK   12  A    between atoms: C33_41  and  O4_43
REMARK   13  A    between atoms: O4_43  and  C34_44
REMARK                            x       y       z     vdW  Elec       q    Type
REMARK                         _______ _______ _______ _____ _____    ______ ____
ROOT
ATOM      3  C   UNL     1      51.648  19.951  18.066  0.00  0.00    +0.038 C 
ATOM      4  C   UNL     1      51.487  21.355  18.694  0.00  0.00    +0.004 C 
ATOM      5  C   UNL     1      50.583  21.165  19.919  0.00  0.00    +0.021 C 
ATOM      6  C   UNL     1      49.787  19.846  19.703  0.00  0.00    -0.025 C 
ATOM     12  C   UNL     1      49.990  19.031  20.975  0.00  0.00    +0.015 C 
ATOM     13  C   UNL     1      49.889  17.525  20.780  0.00  0.00    +0.012 C 
ATOM     14  C   UNL     1      50.890  17.085  19.709  0.00  0.00    -0.028 C 
ATOM     15  C   UNL     1      52.286  17.573  20.112  0.00  0.00    +0.017 C 
ATOM     16  C   UNL     1      50.938  15.553  19.598  0.00  0.00    -0.028 C 
ATOM     17  C   UNL     1      51.392  15.041  20.971  0.00  0.00    +0.015 C 
ATOM     18  C   UNL     1      51.984  15.131  18.562  0.00  0.00    +0.015 C 
ATOM     19  C   UNL     1      52.099  13.614  18.539  0.00  0.00    -0.001 C 
ATOM     20  C   UNL     1      50.785  12.903  18.244  0.00  0.00    -0.004 C 
ATOM     21  C   UNL     1      50.706  12.488  16.791  0.00  0.00    -0.045 C 
ATOM     22  C   UNL     1      51.635  11.265  16.593  0.00  0.00    +0.001 C 
ATOM     23  C   UNL     1      51.198  13.582  15.841  0.00  0.00    +0.014 C 
ATOM     24  C   UNL     1      49.312  12.047  16.353  0.00  0.00    +0.019 C 
ATOM     29  C   UNL     1      48.294  13.105  16.779  0.00  0.00    +0.023 C 
ATOM     30  C   UNL     1      48.239  13.113  18.298  0.00  0.00    +0.001 C 
ATOM     31  C   UNL     1      49.585  13.471  18.944  0.00  0.00    -0.026 C 
ATOM     32  C   UNL     1      49.495  12.770  20.334  0.00  0.00    -0.004 C 
ATOM     33  C   UNL     1      49.597  14.983  19.179  0.00  0.00    +0.012 C 
ATOM     34  C   UNL     1      49.108  15.656  17.891  0.00  0.00    +0.016 C 
ATOM     35  C   UNL     1      49.060  17.170  18.031  0.00  0.00    -0.005 C 
ATOM     36  C   UNL     1      50.450  17.715  18.396  0.00  0.00    +0.015 C 
ATOM     37  C   UNL     1      50.356  19.221  18.437  0.00  0.00    +0.004 C 
ENDROOT
BRANCH   3   2
ATOM      1  C   UNL     1      52.048  18.857  15.722  0.00  0.00    +0.069 C 
ATOM      2  C   UNL     1      51.768  20.078  16.561  0.00  0.00    -0.114 C 
ATOM     38  C   UNL     1      51.629  21.248  15.991  0.00  0.00    -0.008 C 
ENDBRANCH   3   2
BRANCH   6   7
ATOM      7  C   UNL     1      48.287  20.177  19.524  0.00  0.00    +0.106 C 
BRANCH   7   8
ATOM      8  C   UNL     1      47.689  20.538  20.859  0.00  0.00    +0.459 C 
ATOM     11  O   UNL     1      47.830  21.652  21.303  0.00  0.00    -0.496 OA
BRANCH   8   9
ATOM      9  O   UNL     1      47.000  19.620  21.556  0.00  0.00    -0.357 OA
ATOM     10  C   UNL     1      45.767  20.041  22.142  0.00  0.00    +0.252 C 
ENDBRANCH   8   9
ENDBRANCH   7   8
ENDBRANCH   6   7
BRANCH  24  25
ATOM     25  C   UNL     1      49.278  11.896  14.829  0.00  0.00    -0.070 C 
BRANCH  25  26
ATOM     26  C   UNL     1      47.859  12.038  14.341  0.00  0.00    +0.489 C 
ATOM     27  O   UNL     1      46.997  11.276  14.744  0.00  0.00    -0.713 OA
ATOM     28  O   UNL     1      47.573  12.917  13.546  0.00  0.00    -0.694 OA
ENDBRANCH  25  26
ENDBRANCH  24  25
TORSDOF 6
ENDMDL
MODEL 8
REMARK VINA RESULT:      -5.7      3.233      6.773
REMARK  Name = ZINC95486120
REMARK  13 active torsions:
REMARK  status: ('A' for Active; 'I' for Inactive)
REMARK    1  A    between atoms: C1_1  and  C2_2
REMARK    2  A    between atoms: C2_2  and  C4_4
REMARK    3  A    between atoms: C7_8  and  C32_40
REMARK    4  A    between atoms: C13_17  and  C31_39
REMARK    5  A    between atoms: C16_20  and  C29_35
REMARK    6  A    between atoms: C17_22  and  C27_33
REMARK    7  A    between atoms: C17_22  and  C28_34
REMARK    8  A    between atoms: C21_27  and  C26_32
REMARK    9  A    between atoms: C22_28  and  C25_31
REMARK   10  A    between atoms: C29_35  and  C30_36
REMARK   11  A    between atoms: C32_40  and  C33_41
REMARK   12  A    between atoms: C33_41  and  O4_43
REMARK   13  A    between atoms: O4_43  and  C34_44
REMARK                            x       y       z     vdW  Elec       q    Type
REMARK                         _______ _______ _______ _____ _____    ______ ____
ROOT
ATOM      3  C   UNL     1      51.342  19.244  18.108  0.00  0.00    +0.038 C 
ATOM      4  C   UNL     1      51.609  20.722  18.473  0.00  0.00    +0.004 C 
ATOM      5  C   UNL     1      50.622  21.062  19.598  0.00  0.00    +0.021 C 
ATOM      6  C   UNL     1      49.455  20.036  19.511  0.00  0.00    -0.025 C 
ATOM     12  C   UNL     1      49.309  19.460  20.915  0.00  0.00    +0.015 C 
ATOM     13  C   UNL     1      48.736  18.051  20.960  0.00  0.00    +0.012 C 
ATOM     14  C   UNL     1      49.601  17.125  20.100  0.00  0.00    -0.028 C 
ATOM     15  C   UNL     1      51.053  17.228  20.578  0.00  0.00    +0.017 C 
ATOM     16  C   UNL     1      49.156  15.662  20.249  0.00  0.00    -0.028 C 
ATOM     17  C   UNL     1      49.339  15.311  21.732  0.00  0.00    +0.015 C 
ATOM     18  C   UNL     1      50.067  14.747  19.426  0.00  0.00    +0.015 C 
ATOM     19  C   UNL     1      49.685  13.293  19.668  0.00  0.00    -0.001 C 
ATOM     20  C   UNL     1      48.231  12.979  19.342  0.00  0.00    -0.004 C 
ATOM     21  C   UNL     1      48.106  12.336  17.978  0.00  0.00    -0.045 C 
ATOM     22  C   UNL     1      48.598  10.872  18.094  0.00  0.00    +0.001 C 
ATOM     23  C   UNL     1      48.981  13.020  16.925  0.00  0.00    +0.014 C 
ATOM     24  C   UNL     1      46.672  12.269  17.458  0.00  0.00    +0.019 C 
ATOM     29  C   UNL     1      46.030  13.651  17.583  0.00  0.00    +0.023 C 
ATOM     30  C   UNL     1      45.892  13.969  19.062  0.00  0.00    +0.001 C 
ATOM     31  C   UNL     1      47.242  14.013  19.794  0.00  0.00    -0.026 C 
ATOM     32  C   UNL     1      46.848  13.656  21.259  0.00  0.00    -0.004 C 
ATOM     33  C   UNL     1      47.729  15.463  19.776  0.00  0.00    +0.012 C 
ATOM     34  C   UNL     1      47.560  15.991  18.347  0.00  0.00    +0.016 C 
ATOM     35  C   UNL     1      47.998  17.444  18.229  0.00  0.00    -0.005 C 
ATOM     36  C   UNL     1      49.466  17.594  18.659  0.00  0.00    +0.015 C 
ATOM     37  C   UNL     1      49.863  19.034  18.441  0.00  0.00    +0.004 C 
ENDROOT
BRANCH   3   2
ATOM      1  C   UNL     1      51.578  20.213  15.689  0.00  0.00    +0.069 C 
ATOM      2  C   UNL     1      51.584  19.034  16.627  0.00  0.00    -0.114 C 
ATOM     38  C   UNL     1      51.798  17.828  16.164  0.00  0.00    -0.008 C 
ENDBRANCH   3   2
BRANCH   6   7
ATOM      7  C   UNL     1      48.157  20.771  19.105  0.00  0.00    +0.106 C 
BRANCH   7   8
ATOM      8  C   UNL     1      47.344  21.072  20.338  0.00  0.00    +0.459 C 
ATOM     11  O   UNL     1      47.696  21.944  21.097  0.00  0.00    -0.496 OA
BRANCH   8   9
ATOM      9  O   UNL     1      46.228  20.370  20.594  0.00  0.00    -0.357 OA
ATOM     10  C   UNL     1      45.214  20.374  19.587  0.00  0.00    +0.252 C 
ENDBRANCH   8   9
ENDBRANCH   7   8
ENDBRANCH   6   7
BRANCH  24  25
ATOM     25  C   UNL     1      46.680  11.844  15.986  0.00  0.00    -0.070 C 
BRANCH  25  26
ATOM     26  C   UNL     1      45.400  11.116  15.667  0.00  0.00    +0.489 C 
ATOM     27  O   UNL     1      44.384  11.369  16.291  0.00  0.00    -0.713 OA
ATOM     28  O   UNL     1      45.380  10.277  14.783  0.00  0.00    -0.694 OA
ENDBRANCH  25  26
ENDBRANCH  24  25
TORSDOF 6
ENDMDL
MODEL 9
REMARK VINA RESULT:      -5.6      3.233      5.220
REMARK  Name = ZINC95486120
REMARK  13 active torsions:
REMARK  status: ('A' for Active; 'I' for Inactive)
REMARK    1  A    between atoms: C1_1  and  C2_2
REMARK    2  A    between atoms: C2_2  and  C4_4
REMARK    3  A    between atoms: C7_8  and  C32_40
REMARK    4  A    between atoms: C13_17  and  C31_39
REMARK    5  A    between atoms: C16_20  and  C29_35
REMARK    6  A    between atoms: C17_22  and  C27_33
REMARK    7  A    between atoms: C17_22  and  C28_34
REMARK    8  A    between atoms: C21_27  and  C26_32
REMARK    9  A    between atoms: C22_28  and  C25_31
REMARK   10  A    between atoms: C29_35  and  C30_36
REMARK   11  A    between atoms: C32_40  and  C33_41
REMARK   12  A    between atoms: C33_41  and  O4_43
REMARK   13  A    between atoms: O4_43  and  C34_44
REMARK                            x       y       z     vdW  Elec       q    Type
REMARK                         _______ _______ _______ _____ _____    ______ ____
ROOT
ATOM      3  C   UNL     1      50.337  13.395  19.468  0.00  0.00    +0.038 C 
ATOM      4  C   UNL     1      50.540  12.138  18.591  0.00  0.00    +0.004 C 
ATOM      5  C   UNL     1      50.755  12.654  17.161  0.00  0.00    +0.021 C 
ATOM      6  C   UNL     1      50.143  14.082  17.092  0.00  0.00    -0.025 C 
ATOM     12  C   UNL     1      51.236  14.969  16.506  0.00  0.00    +0.015 C 
ATOM     13  C   UNL     1      51.153  16.430  16.924  0.00  0.00    +0.012 C 
ATOM     14  C   UNL     1      51.166  16.521  18.452  0.00  0.00    -0.028 C 
ATOM     15  C   UNL     1      52.406  15.788  18.975  0.00  0.00    +0.017 C 
ATOM     16  C   UNL     1      51.250  17.983  18.915  0.00  0.00    -0.028 C 
ATOM     17  C   UNL     1      52.569  18.532  18.353  0.00  0.00    +0.015 C 
ATOM     18  C   UNL     1      51.319  18.051  20.443  0.00  0.00    +0.015 C 
ATOM     19  C   UNL     1      51.512  19.494  20.884  0.00  0.00    -0.001 C 
ATOM     20  C   UNL     1      50.423  20.438  20.389  0.00  0.00    -0.004 C 
ATOM     21  C   UNL     1      49.396  20.697  21.468  0.00  0.00    -0.045 C 
ATOM     22  C   UNL     1      50.026  21.659  22.505  0.00  0.00    +0.001 C 
ATOM     23  C   UNL     1      49.002  19.425  22.221  0.00  0.00    +0.014 C 
ATOM     24  C   UNL     1      48.129  21.381  20.960  0.00  0.00    +0.019 C 
ATOM     29  C   UNL     1      47.606  20.623  19.739  0.00  0.00    +0.023 C 
ATOM     30  C   UNL     1      48.617  20.794  18.617  0.00  0.00    +0.001 C 
ATOM     31  C   UNL     1      50.000  20.225  18.965  0.00  0.00    -0.026 C 
ATOM     32  C   UNL     1      50.954  21.078  18.074  0.00  0.00    -0.004 C 
ATOM     33  C   UNL     1      50.046  18.783  18.457  0.00  0.00    +0.012 C 
ATOM     34  C   UNL     1      48.748  18.095  18.898  0.00  0.00    +0.016 C 
ATOM     35  C   UNL     1      48.686  16.653  18.419  0.00  0.00    -0.005 C 
ATOM     36  C   UNL     1      49.891  15.861  18.953  0.00  0.00    +0.015 C 
ATOM     37  C   UNL     1      49.727  14.426  18.515  0.00  0.00    +0.004 C 
ENDROOT
BRANCH   3   2
ATOM      1  C   UNL     1      49.870  13.003  22.012  0.00  0.00    +0.069 C 
ATOM      2  C   UNL     1      49.372  13.080  20.592  0.00  0.00    -0.114 C 
ATOM     38  C   UNL     1      48.105  12.876  20.329  0.00  0.00    -0.008 C 
ENDBRANCH   3   2
BRANCH   6   7
ATOM      7  C   UNL     1      48.915  14.069  16.152  0.00  0.00    +0.106 C 
BRANCH   7   8
ATOM      8  C   UNL     1      49.009  12.887  15.220  0.00  0.00    +0.459 C 
ATOM     11  O   UNL     1      49.774  12.914  14.286  0.00  0.00    -0.496 OA
BRANCH   8   9
ATOM      9  O   UNL     1      48.242  11.806  15.429  0.00  0.00    -0.357 OA
ATOM     10  C   UNL     1      47.139  11.955  16.325  0.00  0.00    +0.252 C 
ENDBRANCH   8   9
ENDBRANCH   7   8
ENDBRANCH   6   7
BRANCH  24  25
ATOM     25  C   UNL     1      47.063  21.367  22.060  0.00  0.00    -0.070 C 
BRANCH  25  26
ATOM     26  C   UNL     1      45.916  22.259  21.660  0.00  0.00    +0.489 C 
ATOM     27  O   UNL     1      46.123  23.427  21.381  0.00  0.00    -0.713 OA
ATOM     28  O   UNL     1      44.783  21.812  21.613  0.00  0.00    -0.694 OA
ENDBRANCH  25  26
ENDBRANCH  24  25
TORSDOF 6
ENDMDL
