MODEL 1
REMARK VINA RESULT:      -7.2      0.000      0.000
REMARK  Name = ZINC14826743
REMARK  1 active torsions:
REMARK  status: ('A' for Active; 'I' for Inactive)
REMARK    1  A    between atoms: C8_9  and  O6_24
REMARK                            x       y       z     vdW  Elec       q    Type
REMARK                         _______ _______ _______ _____ _____    ______ ____
ROOT
ATOM      1  C   UNL     1      49.054  20.940  18.668  0.00  0.00    +0.142 A 
ATOM      2  C   UNL     1      50.413  20.775  18.752  0.00  0.00    +0.018 A 
ATOM      3  C   UNL     1      50.892  19.529  19.156  0.00  0.00    +0.111 A 
ATOM      4  C   UNL     1      50.021  18.473  19.467  0.00  0.00    -0.015 A 
ATOM      5  O   UNL     1      50.755  17.392  19.824  0.00  0.00    -0.291 OA
ATOM      6  C   UNL     1      52.074  17.903  20.109  0.00  0.00    +0.441 C 
ATOM      7  C   UNL     1      48.647  18.637  19.387  0.00  0.00    +0.203 A 
ATOM      8  O   UNL     1      47.801  17.624  19.694  0.00  0.00    -0.267 OA
ATOM      9  C   UNL     1      46.472  17.982  20.056  0.00  0.00    +0.175 C 
ATOM     10  C   UNL     1      45.566  16.767  20.235  0.00  0.00    +0.310 C 
ATOM     11  O   UNL     1      44.299  17.230  20.712  0.00  0.00    -0.294 OA
ATOM     12  C   UNL     1      43.736  18.330  20.141  0.00  0.00    +0.167 A 
ATOM     13  C   UNL     1      42.402  18.599  20.464  0.00  0.00    +0.023 A 
ATOM     14  C   UNL     1      41.820  19.731  19.920  0.00  0.00    +0.087 A 
ATOM     15  O   UNL     1      40.569  20.226  20.064  0.00  0.00    -0.299 OA
ATOM     16  C   UNL     1      40.403  21.177  18.992  0.00  0.00    +0.438 C 
ATOM     17  O   UNL     1      41.747  21.604  18.691  0.00  0.00    -0.301 OA
ATOM     18  C   UNL     1      42.546  20.580  19.069  0.00  0.00    -0.005 A 
ATOM     19  C   UNL     1      43.865  20.307  18.744  0.00  0.00    +0.128 A 
ATOM     20  C   UNL     1      44.444  19.165  19.292  0.00  0.00    -0.205 A 
ATOM     21  C   UNL     1      45.872  18.853  18.941  0.00  0.00    +0.116 C 
ATOM     24  C   UNL     1      46.714  20.110  18.875  0.00  0.00    +0.392 C 
ATOM     25  O   UNL     1      46.224  21.213  18.748  0.00  0.00    -0.412 OA
ATOM     26  O   UNL     1      52.165  19.106  19.320  0.00  0.00    -0.295 OA
ATOM     27  C   UNL     1      48.172  19.901  18.977  0.00  0.00    -0.242 A 
ENDROOT
BRANCH  21  22
ATOM     22  O   UNL     1      45.936  18.159  17.693  0.00  0.00    -0.513 OA
ATOM     23  H   UNL     1      45.740  18.712  16.924  0.00  0.00    +0.391 HD
ENDBRANCH  21  22
TORSDOF 1
ENDMDL
MODEL 2
REMARK VINA RESULT:      -7.1      1.722      2.828
REMARK  Name = ZINC14826743
REMARK  1 active torsions:
REMARK  status: ('A' for Active; 'I' for Inactive)
REMARK    1  A    between atoms: C8_9  and  O6_24
REMARK                            x       y       z     vdW  Elec       q    Type
REMARK                         _______ _______ _______ _____ _____    ______ ____
ROOT
ATOM      1  C   UNL     1      48.205  18.147  18.092  0.00  0.00    +0.142 A 
ATOM      2  C   UNL     1      49.556  17.907  18.104  0.00  0.00    +0.018 A 
ATOM      3  C   UNL     1      50.354  18.722  18.906  0.00  0.00    +0.111 A 
ATOM      4  C   UNL     1      49.803  19.756  19.680  0.00  0.00    -0.015 A 
ATOM      5  O   UNL     1      50.800  20.377  20.353  0.00  0.00    -0.291 OA
ATOM      6  C   UNL     1      52.017  19.974  19.690  0.00  0.00    +0.441 C 
ATOM      7  C   UNL     1      48.438  20.003  19.668  0.00  0.00    +0.203 A 
ATOM      8  O   UNL     1      47.902  21.005  20.407  0.00  0.00    -0.267 OA
ATOM      9  C   UNL     1      46.636  21.504  19.991  0.00  0.00    +0.175 C 
ATOM     10  C   UNL     1      46.055  22.519  20.973  0.00  0.00    +0.310 C 
ATOM     11  O   UNL     1      44.851  23.041  20.404  0.00  0.00    -0.294 OA
ATOM     12  C   UNL     1      43.967  22.187  19.819  0.00  0.00    +0.167 A 
ATOM     13  C   UNL     1      42.706  22.700  19.500  0.00  0.00    +0.023 A 
ATOM     14  C   UNL     1      41.803  21.857  18.876  0.00  0.00    +0.087 A 
ATOM     15  O   UNL     1      40.538  22.087  18.457  0.00  0.00    -0.299 OA
ATOM     16  C   UNL     1      39.957  20.783  18.243  0.00  0.00    +0.438 C 
ATOM     17  O   UNL     1      41.091  19.936  17.964  0.00  0.00    -0.301 OA
ATOM     18  C   UNL     1      42.144  20.528  18.574  0.00  0.00    -0.005 A 
ATOM     19  C   UNL     1      43.391  20.020  18.898  0.00  0.00    +0.128 A 
ATOM     20  C   UNL     1      44.294  20.872  19.530  0.00  0.00    -0.205 A 
ATOM     21  C   UNL     1      45.648  20.330  19.894  0.00  0.00    +0.116 C 
ATOM     24  C   UNL     1      46.182  19.405  18.821  0.00  0.00    +0.392 C 
ATOM     25  O   UNL     1      45.461  18.890  17.991  0.00  0.00    -0.412 OA
ATOM     26  O   UNL     1      51.691  18.701  19.096  0.00  0.00    -0.295 OA
ATOM     27  C   UNL     1      47.640  19.173  18.854  0.00  0.00    -0.242 A 
ENDROOT
BRANCH  21  22
ATOM     22  O   UNL     1      45.587  19.640  21.145  0.00  0.00    -0.513 OA
ATOM     23  H   UNL     1      45.884  20.166  21.900  0.00  0.00    +0.391 HD
ENDBRANCH  21  22
TORSDOF 1
ENDMDL
MODEL 3
REMARK VINA RESULT:      -7.0      1.566      7.187
REMARK  Name = ZINC14826743
REMARK  1 active torsions:
REMARK  status: ('A' for Active; 'I' for Inactive)
REMARK    1  A    between atoms: C8_9  and  O6_24
REMARK                            x       y       z     vdW  Elec       q    Type
REMARK                         _______ _______ _______ _____ _____    ______ ____
ROOT
ATOM      1  C   UNL     1      44.789  22.257  19.496  0.00  0.00    +0.142 A 
ATOM      2  C   UNL     1      43.484  22.681  19.523  0.00  0.00    +0.018 A 
ATOM      3  C   UNL     1      42.493  21.753  19.205  0.00  0.00    +0.111 A 
ATOM      4  C   UNL     1      42.809  20.427  18.868  0.00  0.00    -0.015 A 
ATOM      5  O   UNL     1      41.662  19.757  18.611  0.00  0.00    -0.291 OA
ATOM      6  C   UNL     1      40.660  20.776  18.408  0.00  0.00    +0.441 C 
ATOM      7  C   UNL     1      44.127  19.996  18.837  0.00  0.00    +0.203 A 
ATOM      8  O   UNL     1      44.438  18.720  18.506  0.00  0.00    -0.267 OA
ATOM      9  C   UNL     1      45.758  18.483  18.029  0.00  0.00    +0.175 C 
ATOM     10  C   UNL     1      46.051  16.998  17.828  0.00  0.00    +0.310 C 
ATOM     11  O   UNL     1      47.349  16.882  17.238  0.00  0.00    -0.294 OA
ATOM     12  C   UNL     1      48.369  17.642  17.721  0.00  0.00    +0.167 A 
ATOM     13  C   UNL     1      49.660  17.323  17.287  0.00  0.00    +0.023 A 
ATOM     14  C   UNL     1      50.708  18.104  17.742  0.00  0.00    +0.087 A 
ATOM     15  O   UNL     1      52.033  18.025  17.483  0.00  0.00    -0.299 OA
ATOM     16  C   UNL     1      52.675  18.819  18.502  0.00  0.00    +0.438 C 
ATOM     17  O   UNL     1      51.666  19.775  18.889  0.00  0.00    -0.301 OA
ATOM     18  C   UNL     1      50.481  19.182  18.612  0.00  0.00    -0.005 A 
ATOM     19  C   UNL     1      49.203  19.493  19.047  0.00  0.00    +0.128 A 
ATOM     20  C   UNL     1      48.153  18.700  18.590  0.00  0.00    -0.205 A 
ATOM     21  C   UNL     1      46.762  19.022  19.061  0.00  0.00    +0.116 C 
ATOM     24  C   UNL     1      46.536  20.517  19.143  0.00  0.00    +0.392 C 
ATOM     25  O   UNL     1      47.453  21.310  19.190  0.00  0.00    -0.412 OA
ATOM     26  O   UNL     1      41.152  21.907  19.155  0.00  0.00    -0.295 OA
ATOM     27  C   UNL     1      45.121  20.942  19.161  0.00  0.00    -0.242 A 
ENDROOT
BRANCH  21  22
ATOM     22  O   UNL     1      46.519  18.422  20.336  0.00  0.00    -0.513 OA
ATOM     23  H   UNL     1      46.268  17.490  20.291  0.00  0.00    +0.391 HD
ENDBRANCH  21  22
TORSDOF 1
ENDMDL
MODEL 4
REMARK VINA RESULT:      -6.5      4.047      5.813
REMARK  Name = ZINC14826743
REMARK  1 active torsions:
REMARK  status: ('A' for Active; 'I' for Inactive)
REMARK    1  A    between atoms: C8_9  and  O6_24
REMARK                            x       y       z     vdW  Elec       q    Type
REMARK                         _______ _______ _______ _____ _____    ______ ____
ROOT
ATOM      1  C   UNL     1      46.213  12.202  18.046  0.00  0.00    +0.142 A 
ATOM      2  C   UNL     1      46.776  11.277  17.203  0.00  0.00    +0.018 A 
ATOM      3  C   UNL     1      47.617  11.744  16.193  0.00  0.00    +0.111 A 
ATOM      4  C   UNL     1      47.886  13.114  16.037  0.00  0.00    -0.015 A 
ATOM      5  O   UNL     1      48.726  13.277  14.988  0.00  0.00    -0.291 OA
ATOM      6  C   UNL     1      48.667  12.036  14.254  0.00  0.00    +0.441 C 
ATOM      7  C   UNL     1      47.315  14.051  16.884  0.00  0.00    +0.203 A 
ATOM      8  O   UNL     1      47.565  15.375  16.733  0.00  0.00    -0.267 OA
ATOM      9  C   UNL     1      46.611  16.276  17.284  0.00  0.00    +0.175 C 
ATOM     10  C   UNL     1      47.060  17.732  17.192  0.00  0.00    +0.310 C 
ATOM     11  O   UNL     1      45.986  18.554  17.660  0.00  0.00    -0.294 OA
ATOM     12  C   UNL     1      45.318  18.194  18.789  0.00  0.00    +0.167 A 
ATOM     13  C   UNL     1      44.451  19.142  19.342  0.00  0.00    +0.023 A 
ATOM     14  C   UNL     1      43.738  18.785  20.474  0.00  0.00    +0.087 A 
ATOM     15  O   UNL     1      42.841  19.490  21.200  0.00  0.00    -0.299 OA
ATOM     16  C   UNL     1      42.718  18.786  22.454  0.00  0.00    +0.438 C 
ATOM     17  O   UNL     1      43.072  17.426  22.128  0.00  0.00    -0.301 OA
ATOM     18  C   UNL     1      43.883  17.512  21.048  0.00  0.00    -0.005 A 
ATOM     19  C   UNL     1      44.748  16.577  20.503  0.00  0.00    +0.128 A 
ATOM     20  C   UNL     1      45.466  16.944  19.368  0.00  0.00    -0.205 A 
ATOM     21  C   UNL     1      46.415  15.941  18.771  0.00  0.00    +0.116 C 
ATOM     24  C   UNL     1      45.847  14.539  18.827  0.00  0.00    +0.392 C 
ATOM     25  O   UNL     1      44.944  14.234  19.578  0.00  0.00    -0.412 OA
ATOM     26  O   UNL     1      48.289  11.058  15.244  0.00  0.00    -0.295 OA
ATOM     27  C   UNL     1      46.467  13.568  17.902  0.00  0.00    -0.242 A 
ENDROOT
BRANCH  21  22
ATOM     22  O   UNL     1      47.673  15.983  19.451  0.00  0.00    -0.513 OA
ATOM     23  H   UNL     1      48.268  16.676  19.133  0.00  0.00    +0.391 HD
ENDBRANCH  21  22
TORSDOF 1
ENDMDL
MODEL 5
REMARK VINA RESULT:      -6.4      4.199      7.400
REMARK  Name = ZINC14826743
REMARK  1 active torsions:
REMARK  status: ('A' for Active; 'I' for Inactive)
REMARK    1  A    between atoms: C8_9  and  O6_24
REMARK                            x       y       z     vdW  Elec       q    Type
REMARK                         _______ _______ _______ _____ _____    ______ ____
ROOT
ATOM      1  C   UNL     1      45.849  18.807  17.996  0.00  0.00    +0.142 A 
ATOM      2  C   UNL     1      45.163  19.814  18.627  0.00  0.00    +0.018 A 
ATOM      3  C   UNL     1      44.429  19.486  19.767  0.00  0.00    +0.111 A 
ATOM      4  C   UNL     1      44.388  18.172  20.260  0.00  0.00    -0.015 A 
ATOM      5  O   UNL     1      43.609  18.145  21.366  0.00  0.00    -0.291 OA
ATOM      6  C   UNL     1      42.851  19.372  21.330  0.00  0.00    +0.441 C 
ATOM      7  C   UNL     1      45.078  17.151  19.623  0.00  0.00    +0.203 A 
ATOM      8  O   UNL     1      45.036  15.880  20.090  0.00  0.00    -0.267 OA
ATOM      9  C   UNL     1      45.336  14.843  19.162  0.00  0.00    +0.175 C 
ATOM     10  C   UNL     1      45.408  13.469  19.822  0.00  0.00    +0.310 C 
ATOM     11  O   UNL     1      45.593  12.495  18.791  0.00  0.00    -0.294 OA
ATOM     12  C   UNL     1      46.492  12.740  17.800  0.00  0.00    +0.167 A 
ATOM     13  C   UNL     1      46.818  11.670  16.959  0.00  0.00    +0.023 A 
ATOM     14  C   UNL     1      47.707  11.907  15.925  0.00  0.00    +0.087 A 
ATOM     15  O   UNL     1      48.186  11.070  14.976  0.00  0.00    -0.299 OA
ATOM     16  C   UNL     1      49.341  11.735  14.421  0.00  0.00    +0.438 C 
ATOM     17  O   UNL     1      49.084  13.135  14.651  0.00  0.00    -0.301 OA
ATOM     18  C   UNL     1      48.264  13.181  15.727  0.00  0.00    -0.005 A 
ATOM     19  C   UNL     1      47.945  14.238  16.564  0.00  0.00    +0.128 A 
ATOM     20  C   UNL     1      47.054  13.992  17.606  0.00  0.00    -0.205 A 
ATOM     21  C   UNL     1      46.706  15.129  18.527  0.00  0.00    +0.116 C 
ATOM     24  C   UNL     1      46.568  16.433  17.771  0.00  0.00    +0.392 C 
ATOM     25  O   UNL     1      47.041  16.595  16.665  0.00  0.00    -0.412 OA
ATOM     26  O   UNL     1      43.676  20.274  20.564  0.00  0.00    -0.295 OA
ATOM     27  C   UNL     1      45.817  17.494  18.472  0.00  0.00    -0.242 A 
ENDROOT
BRANCH  21  22
ATOM     22  O   UNL     1      47.699  15.261  19.548  0.00  0.00    -0.513 OA
ATOM     23  H   UNL     1      47.398  15.745  20.329  0.00  0.00    +0.391 HD
ENDBRANCH  21  22
TORSDOF 1
ENDMDL
MODEL 6
REMARK VINA RESULT:      -5.8      3.517      7.257
REMARK  Name = ZINC14826743
REMARK  1 active torsions:
REMARK  status: ('A' for Active; 'I' for Inactive)
REMARK    1  A    between atoms: C8_9  and  O6_24
REMARK                            x       y       z     vdW  Elec       q    Type
REMARK                         _______ _______ _______ _____ _____    ______ ____
ROOT
ATOM      1  C   UNL     1      44.125  17.858  19.956  0.00  0.00    +0.142 A 
ATOM      2  C   UNL     1      43.613  19.079  20.315  0.00  0.00    +0.018 A 
ATOM      3  C   UNL     1      44.275  20.220  19.862  0.00  0.00    +0.111 A 
ATOM      4  C   UNL     1      45.427  20.132  19.065  0.00  0.00    -0.015 A 
ATOM      5  O   UNL     1      45.853  21.384  18.775  0.00  0.00    -0.291 OA
ATOM      6  C   UNL     1      45.185  22.245  19.721  0.00  0.00    +0.441 C 
ATOM      7  C   UNL     1      45.950  18.900  18.704  0.00  0.00    +0.203 A 
ATOM      8  O   UNL     1      47.066  18.809  17.940  0.00  0.00    -0.267 OA
ATOM      9  C   UNL     1      47.800  17.592  18.016  0.00  0.00    +0.175 C 
ATOM     10  C   UNL     1      48.947  17.537  17.011  0.00  0.00    +0.310 C 
ATOM     11  O   UNL     1      49.686  16.336  17.253  0.00  0.00    -0.294 OA
ATOM     12  C   UNL     1      49.011  15.174  17.470  0.00  0.00    +0.167 A 
ATOM     13  C   UNL     1      49.761  13.993  17.457  0.00  0.00    +0.023 A 
ATOM     14  C   UNL     1      49.100  12.803  17.706  0.00  0.00    +0.087 A 
ATOM     15  O   UNL     1      49.570  11.536  17.759  0.00  0.00    -0.299 OA
ATOM     16  C   UNL     1      48.407  10.686  17.668  0.00  0.00    +0.438 C 
ATOM     17  O   UNL     1      47.335  11.504  18.181  0.00  0.00    -0.301 OA
ATOM     18  C   UNL     1      47.719  12.783  17.964  0.00  0.00    -0.005 A 
ATOM     19  C   UNL     1      46.977  13.953  17.970  0.00  0.00    +0.128 A 
ATOM     20  C   UNL     1      47.648  15.146  17.713  0.00  0.00    -0.205 A 
ATOM     21  C   UNL     1      46.852  16.422  17.708  0.00  0.00    +0.116 C 
ATOM     24  C   UNL     1      45.798  16.423  18.795  0.00  0.00    +0.392 C 
ATOM     25  O   UNL     1      45.413  15.402  19.326  0.00  0.00    -0.412 OA
ATOM     26  O   UNL     1      43.985  21.523  20.068  0.00  0.00    -0.295 OA
ATOM     27  C   UNL     1      45.272  17.752  19.165  0.00  0.00    -0.242 A 
ENDROOT
BRANCH  21  22
ATOM     22  O   UNL     1      46.235  16.617  16.433  0.00  0.00    -0.513 OA
ATOM     23  H   UNL     1      45.563  15.957  16.216  0.00  0.00    +0.391 HD
ENDBRANCH  21  22
TORSDOF 1
ENDMDL
MODEL 7
REMARK VINA RESULT:      -5.8      3.669      5.129
REMARK  Name = ZINC14826743
REMARK  1 active torsions:
REMARK  status: ('A' for Active; 'I' for Inactive)
REMARK    1  A    between atoms: C8_9  and  O6_24
REMARK                            x       y       z     vdW  Elec       q    Type
REMARK                         _______ _______ _______ _____ _____    ______ ____
ROOT
ATOM      1  C   UNL     1      47.338  14.077  16.155  0.00  0.00    +0.142 A 
ATOM      2  C   UNL     1      48.052  13.042  15.604  0.00  0.00    +0.018 A 
ATOM      3  C   UNL     1      49.434  13.033  15.792  0.00  0.00    +0.111 A 
ATOM      4  C   UNL     1      50.082  14.043  16.521  0.00  0.00    -0.015 A 
ATOM      5  O   UNL     1      51.410  13.780  16.544  0.00  0.00    -0.291 OA
ATOM      6  C   UNL     1      51.627  12.814  15.494  0.00  0.00    +0.441 C 
ATOM      7  C   UNL     1      49.365  15.091  17.076  0.00  0.00    +0.203 A 
ATOM      8  O   UNL     1      49.987  16.073  17.774  0.00  0.00    -0.267 OA
ATOM      9  C   UNL     1      49.301  17.315  17.885  0.00  0.00    +0.175 C 
ATOM     10  C   UNL     1      50.015  18.297  18.812  0.00  0.00    +0.310 C 
ATOM     11  O   UNL     1      49.314  19.542  18.757  0.00  0.00    -0.294 OA
ATOM     12  C   UNL     1      47.954  19.542  18.804  0.00  0.00    +0.167 A 
ATOM     13  C   UNL     1      47.325  20.776  18.994  0.00  0.00    +0.023 A 
ATOM     14  C   UNL     1      45.941  20.802  19.014  0.00  0.00    +0.087 A 
ATOM     15  O   UNL     1      45.089  21.840  19.173  0.00  0.00    -0.299 OA
ATOM     16  C   UNL     1      43.812  21.248  19.492  0.00  0.00    +0.438 C 
ATOM     17  O   UNL     1      43.877  19.934  18.900  0.00  0.00    -0.301 OA
ATOM     18  C   UNL     1      45.193  19.625  18.848  0.00  0.00    -0.005 A 
ATOM     19  C   UNL     1      45.818  18.402  18.667  0.00  0.00    +0.128 A 
ATOM     20  C   UNL     1      47.211  18.382  18.653  0.00  0.00    -0.205 A 
ATOM     21  C   UNL     1      47.901  17.059  18.465  0.00  0.00    +0.116 C 
ATOM     24  C   UNL     1      47.171  16.190  17.463  0.00  0.00    +0.392 C 
ATOM     25  O   UNL     1      46.013  16.384  17.158  0.00  0.00    -0.412 OA
ATOM     26  O   UNL     1      50.356  12.145  15.362  0.00  0.00    -0.295 OA
ATOM     27  C   UNL     1      47.968  15.091  16.880  0.00  0.00    -0.242 A 
ENDROOT
BRANCH  21  22
ATOM     22  O   UNL     1      48.009  16.374  19.715  0.00  0.00    -0.513 OA
ATOM     23  H   UNL     1      48.158  15.422  19.631  0.00  0.00    +0.391 HD
ENDBRANCH  21  22
TORSDOF 1
ENDMDL
MODEL 8
REMARK VINA RESULT:      -5.8      5.244      6.469
REMARK  Name = ZINC14826743
REMARK  1 active torsions:
REMARK  status: ('A' for Active; 'I' for Inactive)
REMARK    1  A    between atoms: C8_9  and  O6_24
REMARK                            x       y       z     vdW  Elec       q    Type
REMARK                         _______ _______ _______ _____ _____    ______ ____
ROOT
ATOM      1  C   UNL     1      50.882  14.331  15.960  0.00  0.00    +0.142 A 
ATOM      2  C   UNL     1      51.649  13.535  15.148  0.00  0.00    +0.018 A 
ATOM      3  C   UNL     1      51.071  12.367  14.650  0.00  0.00    +0.111 A 
ATOM      4  C   UNL     1      49.750  12.010  14.963  0.00  0.00    -0.015 A 
ATOM      5  O   UNL     1      49.456  10.841  14.347  0.00  0.00    -0.291 OA
ATOM      6  C   UNL     1      50.729  10.277  13.969  0.00  0.00    +0.441 C 
ATOM      7  C   UNL     1      48.973  12.811  15.786  0.00  0.00    +0.203 A 
ATOM      8  O   UNL     1      47.700  12.468  16.098  0.00  0.00    -0.267 OA
ATOM      9  C   UNL     1      47.152  13.036  17.282  0.00  0.00    +0.175 C 
ATOM     10  C   UNL     1      45.672  12.707  17.460  0.00  0.00    +0.310 C 
ATOM     11  O   UNL     1      45.256  13.220  18.729  0.00  0.00    -0.294 OA
ATOM     12  C   UNL     1      45.650  14.468  19.101  0.00  0.00    +0.167 A 
ATOM     13  C   UNL     1      45.027  15.020  20.225  0.00  0.00    +0.023 A 
ATOM     14  C   UNL     1      45.435  16.276  20.640  0.00  0.00    +0.087 A 
ATOM     15  O   UNL     1      45.014  17.033  21.679  0.00  0.00    -0.299 OA
ATOM     16  C   UNL     1      45.492  18.367  21.407  0.00  0.00    +0.438 C 
ATOM     17  O   UNL     1      46.648  18.160  20.569  0.00  0.00    -0.301 OA
ATOM     18  C   UNL     1      46.441  16.974  19.952  0.00  0.00    -0.005 A 
ATOM     19  C   UNL     1      47.052  16.428  18.835  0.00  0.00    +0.128 A 
ATOM     20  C   UNL     1      46.634  15.166  18.420  0.00  0.00    -0.205 A 
ATOM     21  C   UNL     1      47.284  14.566  17.204  0.00  0.00    +0.116 C 
ATOM     24  C   UNL     1      48.766  14.870  17.160  0.00  0.00    +0.392 C 
ATOM     25  O   UNL     1      49.263  15.773  17.801  0.00  0.00    -0.412 OA
ATOM     26  O   UNL     1      51.598  11.421  13.842  0.00  0.00    -0.295 OA
ATOM     27  C   UNL     1      49.566  13.990  16.284  0.00  0.00    -0.242 A 
ENDROOT
BRANCH  21  22
ATOM     22  O   UNL     1      46.653  15.049  16.015  0.00  0.00    -0.513 OA
ATOM     23  H   UNL     1      45.703  15.203  16.109  0.00  0.00    +0.391 HD
ENDBRANCH  21  22
TORSDOF 1
ENDMDL
MODEL 9
REMARK VINA RESULT:      -5.7      3.090      3.802
REMARK  Name = ZINC14826743
REMARK  1 active torsions:
REMARK  status: ('A' for Active; 'I' for Inactive)
REMARK    1  A    between atoms: C8_9  and  O6_24
REMARK                            x       y       z     vdW  Elec       q    Type
REMARK                         _______ _______ _______ _____ _____    ______ ____
ROOT
ATOM      1  C   UNL     1      50.544  16.726  17.103  0.00  0.00    +0.142 A 
ATOM      2  C   UNL     1      51.475  15.760  16.819  0.00  0.00    +0.018 A 
ATOM      3  C   UNL     1      51.098  14.426  16.978  0.00  0.00    +0.111 A 
ATOM      4  C   UNL     1      49.811  14.074  17.413  0.00  0.00    -0.015 A 
ATOM      5  O   UNL     1      49.724  12.725  17.474  0.00  0.00    -0.291 OA
ATOM      6  C   UNL     1      51.088  12.253  17.452  0.00  0.00    +0.441 C 
ATOM      7  C   UNL     1      48.868  15.048  17.704  0.00  0.00    +0.203 A 
ATOM      8  O   UNL     1      47.625  14.714  18.131  0.00  0.00    -0.267 OA
ATOM      9  C   UNL     1      46.906  15.707  18.853  0.00  0.00    +0.175 C 
ATOM     10  C   UNL     1      45.470  15.286  19.156  0.00  0.00    +0.310 C 
ATOM     11  O   UNL     1      44.880  16.294  19.981  0.00  0.00    -0.294 OA
ATOM     12  C   UNL     1      45.076  17.604  19.672  0.00  0.00    +0.167 A 
ATOM     13  C   UNL     1      44.289  18.542  20.350  0.00  0.00    +0.023 A 
ATOM     14  C   UNL     1      44.495  19.882  20.072  0.00  0.00    +0.087 A 
ATOM     15  O   UNL     1      43.890  20.981  20.577  0.00  0.00    -0.299 OA
ATOM     16  C   UNL     1      44.217  22.055  19.669  0.00  0.00    +0.438 C 
ATOM     17  O   UNL     1      45.461  21.638  19.068  0.00  0.00    -0.301 OA
ATOM     18  C   UNL     1      45.463  20.287  19.138  0.00  0.00    -0.005 A 
ATOM     19  C   UNL     1      46.236  19.357  18.462  0.00  0.00    +0.128 A 
ATOM     20  C   UNL     1      46.021  18.010  18.743  0.00  0.00    -0.205 A 
ATOM     21  C   UNL     1      46.848  16.990  18.009  0.00  0.00    +0.116 C 
ATOM     24  C   UNL     1      48.278  17.457  17.836  0.00  0.00    +0.392 C 
ATOM     25  O   UNL     1      48.595  18.624  17.934  0.00  0.00    -0.412 OA
ATOM     26  O   UNL     1      51.812  13.298  16.771  0.00  0.00    -0.295 OA
ATOM     27  C   UNL     1      49.259  16.393  17.539  0.00  0.00    -0.242 A 
ENDROOT
BRANCH  21  22
ATOM     22  O   UNL     1      46.270  16.708  16.732  0.00  0.00    -0.513 OA
ATOM     23  H   UNL     1      46.184  17.482  16.159  0.00  0.00    +0.391 HD
ENDBRANCH  21  22
TORSDOF 1
ENDMDL
