MODEL 1
REMARK VINA RESULT:      -4.6      0.000      0.000
REMARK  Name = ZINC95486312
REMARK  11 active torsions:
REMARK  status: ('A' for Active; 'I' for Inactive)
REMARK    1  A    between atoms: C1_1  and  C2_2
REMARK    2  A    between atoms: C2_2  and  C3_3
REMARK    3  A    between atoms: C3_3  and  C4_5
REMARK    4  A    between atoms: C3_3  and  C5_6
REMARK    5  A    between atoms: C5_6  and  O2_8
REMARK    6  A    between atoms: O2_8  and  C6_9
REMARK    7  A    between atoms: C8_12  and  C22_32
REMARK    8  A    between atoms: C11_15  and  C19_27
REMARK    9  A    between atoms: C19_27  and  O5_28
REMARK   10  A    between atoms: O5_28  and  C20_29
REMARK   11  A    between atoms: C20_29  and  C21_31
REMARK                            x       y       z     vdW  Elec       q    Type
REMARK                         _______ _______ _______ _____ _____    ______ ____
ROOT
ATOM      6  C   UNL     1      47.057  18.608  21.048  0.00  0.00    +0.193 C 
ATOM      7  C   UNL     1      48.238  18.493  22.071  0.00  0.00    +0.100 C 
ATOM      8  C   UNL     1      49.373  17.763  21.347  0.00  0.00    -0.219 C 
ATOM     11  C   UNL     1      50.500  18.365  20.924  0.00  0.00    +0.079 C 
ATOM     12  C   UNL     1      50.702  19.854  21.155  0.00  0.00    +0.129 C 
ATOM     13  C   UNL     1      49.446  20.429  20.541  0.00  0.00    -0.084 C 
ATOM     19  C   UNL     1      48.525  20.896  21.307  0.00  0.00    -0.030 C 
ATOM     20  C   UNL     1      47.150  21.141  20.737  0.00  0.00    +0.212 C 
ATOM     21  O   UNL     1      47.225  21.116  19.312  0.00  0.00    -0.338 OA
ATOM     22  C   UNL     1      45.970  21.280  18.636  0.00  0.00    +0.225 C 
ATOM     23  C   UNL     1      45.027  20.180  19.089  0.00  0.00    +0.369 C 
ATOM     24  O   UNL     1      44.341  19.557  18.305  0.00  0.00    -0.431 OA
ATOM     25  C   UNL     1      44.999  19.913  20.542  0.00  0.00    -0.215 C 
ATOM     26  C   UNL     1      43.859  19.656  21.186  0.00  0.00    +0.139 C 
ATOM     27  C   UNL     1      46.329  19.950  21.261  0.00  0.00    +0.040 C 
ENDROOT
BRANCH   8   9
ATOM      9  C   UNL     1      49.223  16.329  21.099  0.00  0.00    +0.439 C 
ATOM     10  O   UNL     1      50.172  15.678  20.714  0.00  0.00    -0.439 OA
ENDBRANCH   8   9
BRANCH   6   5
ATOM      5  O   UNL     1      47.570  18.549  19.716  0.00  0.00    -0.318 OA
BRANCH   5   4
ATOM      4  C   UNL     1      47.063  17.605  18.908  0.00  0.00    +0.447 C 
ATOM     28  O   UNL     1      46.257  16.812  19.336  0.00  0.00    -0.484 OA
BRANCH   4   3
ATOM      3  C   UNL     1      47.498  17.534  17.467  0.00  0.00    +0.017 C 
ATOM     29  C   UNL     1      46.631  16.517  16.723  0.00  0.00    +0.059 C 
BRANCH   3   2
ATOM      1  C   UNL     1      49.044  15.576  17.334  0.00  0.00    +0.024 C 
ATOM      2  C   UNL     1      48.964  17.102  17.397  0.00  0.00    +0.032 C 
ENDBRANCH   3   2
ENDBRANCH   4   3
ENDBRANCH   5   4
ENDBRANCH   6   5
BRANCH  13  14
ATOM     14  C   UNL     1      49.273  20.452  19.044  0.00  0.00    +0.318 C 
BRANCH  14  15
ATOM     15  O   UNL     1      50.329  21.216  18.456  0.00  0.00    -0.359 OA
BRANCH  15  16
ATOM     16  C   UNL     1      51.104  20.591  17.556  0.00  0.00    +0.456 C 
ATOM     17  C   UNL     1      51.476  21.283  16.270  0.00  0.00    +0.144 C 
ATOM     18  O   UNL     1      51.504  19.471  17.777  0.00  0.00    -0.506 OA
ENDBRANCH  15  16
ENDBRANCH  14  15
ENDBRANCH  13  14
TORSDOF 8
ENDMDL
MODEL 2
REMARK VINA RESULT:      -4.6      1.730      4.888
REMARK  Name = ZINC95486312
REMARK  11 active torsions:
REMARK  status: ('A' for Active; 'I' for Inactive)
REMARK    1  A    between atoms: C1_1  and  C2_2
REMARK    2  A    between atoms: C2_2  and  C3_3
REMARK    3  A    between atoms: C3_3  and  C4_5
REMARK    4  A    between atoms: C3_3  and  C5_6
REMARK    5  A    between atoms: C5_6  and  O2_8
REMARK    6  A    between atoms: O2_8  and  C6_9
REMARK    7  A    between atoms: C8_12  and  C22_32
REMARK    8  A    between atoms: C11_15  and  C19_27
REMARK    9  A    between atoms: C19_27  and  O5_28
REMARK   10  A    between atoms: O5_28  and  C20_29
REMARK   11  A    between atoms: C20_29  and  C21_31
REMARK                            x       y       z     vdW  Elec       q    Type
REMARK                         _______ _______ _______ _____ _____    ______ ____
ROOT
ATOM      6  C   UNL     1      50.516  17.461  20.271  0.00  0.00    +0.193 C 
ATOM      7  C   UNL     1      50.451  18.334  21.570  0.00  0.00    +0.100 C 
ATOM      8  C   UNL     1      50.865  19.753  21.164  0.00  0.00    -0.219 C 
ATOM     11  C   UNL     1      50.005  20.784  21.066  0.00  0.00    +0.079 C 
ATOM     12  C   UNL     1      48.529  20.577  21.365  0.00  0.00    +0.129 C 
ATOM     13  C   UNL     1      48.193  19.424  20.447  0.00  0.00    -0.084 C 
ATOM     19  C   UNL     1      47.992  18.256  20.946  0.00  0.00    -0.030 C 
ATOM     20  C   UNL     1      48.006  17.055  20.034  0.00  0.00    +0.212 C 
ATOM     21  O   UNL     1      47.908  17.497  18.681  0.00  0.00    -0.338 OA
ATOM     22  C   UNL     1      47.967  16.454  17.697  0.00  0.00    +0.225 C 
ATOM     23  C   UNL     1      49.274  15.701  17.865  0.00  0.00    +0.369 C 
ATOM     24  O   UNL     1      49.969  15.399  16.917  0.00  0.00    -0.431 OA
ATOM     25  C   UNL     1      49.648  15.362  19.254  0.00  0.00    -0.215 C 
ATOM     26  C   UNL     1      50.190  14.184  19.566  0.00  0.00    +0.139 C 
ATOM     27  C   UNL     1      49.380  16.419  20.302  0.00  0.00    +0.040 C 
ENDROOT
BRANCH   8   9
ATOM      9  C   UNL     1      52.274  20.000  20.864  0.00  0.00    +0.439 C 
ATOM     10  O   UNL     1      52.656  21.128  20.631  0.00  0.00    -0.439 OA
ENDBRANCH   8   9
BRANCH   6   5
ATOM      5  O   UNL     1      50.364  18.299  19.124  0.00  0.00    -0.318 OA
BRANCH   5   4
ATOM      4  C   UNL     1      51.331  18.242  18.194  0.00  0.00    +0.447 C 
ATOM     28  O   UNL     1      52.300  17.542  18.373  0.00  0.00    -0.484 OA
BRANCH   4   3
ATOM      3  C   UNL     1      51.207  19.049  16.928  0.00  0.00    +0.017 C 
ATOM     29  C   UNL     1      51.840  18.279  15.768  0.00  0.00    +0.059 C 
BRANCH   3   2
ATOM      1  C   UNL     1      50.927  21.448  17.569  0.00  0.00    +0.024 C 
ATOM      2  C   UNL     1      51.928  20.388  17.104  0.00  0.00    +0.032 C 
ENDBRANCH   3   2
ENDBRANCH   4   3
ENDBRANCH   5   4
ENDBRANCH   6   5
BRANCH  13  14
ATOM     14  C   UNL     1      48.095  19.641  18.958  0.00  0.00    +0.318 C 
BRANCH  14  15
ATOM     15  O   UNL     1      47.289  20.792  18.697  0.00  0.00    -0.359 OA
BRANCH  15  16
ATOM     16  C   UNL     1      45.958  20.626  18.741  0.00  0.00    +0.456 C 
ATOM     17  C   UNL     1      45.091  21.663  19.407  0.00  0.00    +0.144 C 
ATOM     18  O   UNL     1      45.455  19.644  18.247  0.00  0.00    -0.506 OA
ENDBRANCH  15  16
ENDBRANCH  14  15
ENDBRANCH  13  14
TORSDOF 8
ENDMDL
MODEL 3
REMARK VINA RESULT:      -4.5      2.080      5.607
REMARK  Name = ZINC95486312
REMARK  11 active torsions:
REMARK  status: ('A' for Active; 'I' for Inactive)
REMARK    1  A    between atoms: C1_1  and  C2_2
REMARK    2  A    between atoms: C2_2  and  C3_3
REMARK    3  A    between atoms: C3_3  and  C4_5
REMARK    4  A    between atoms: C3_3  and  C5_6
REMARK    5  A    between atoms: C5_6  and  O2_8
REMARK    6  A    between atoms: O2_8  and  C6_9
REMARK    7  A    between atoms: C8_12  and  C22_32
REMARK    8  A    between atoms: C11_15  and  C19_27
REMARK    9  A    between atoms: C19_27  and  O5_28
REMARK   10  A    between atoms: O5_28  and  C20_29
REMARK   11  A    between atoms: C20_29  and  C21_31
REMARK                            x       y       z     vdW  Elec       q    Type
REMARK                         _______ _______ _______ _____ _____    ______ ____
ROOT
ATOM      6  C   UNL     1      52.320  17.678  18.584  0.00  0.00    +0.193 C 
ATOM      7  C   UNL     1      52.691  19.186  18.376  0.00  0.00    +0.100 C 
ATOM      8  C   UNL     1      51.545  19.811  17.574  0.00  0.00    -0.219 C 
ATOM     11  C   UNL     1      50.639  20.657  18.099  0.00  0.00    +0.079 C 
ATOM     12  C   UNL     1      50.717  21.042  19.567  0.00  0.00    +0.129 C 
ATOM     13  C   UNL     1      50.732  19.686  20.235  0.00  0.00    -0.084 C 
ATOM     19  C   UNL     1      51.823  19.252  20.759  0.00  0.00    -0.030 C 
ATOM     20  C   UNL     1      51.940  17.789  21.107  0.00  0.00    +0.212 C 
ATOM     21  O   UNL     1      50.640  17.201  21.090  0.00  0.00    -0.338 OA
ATOM     22  C   UNL     1      50.609  15.790  21.350  0.00  0.00    +0.225 C 
ATOM     23  C   UNL     1      51.469  15.087  20.314  0.00  0.00    +0.369 C 
ATOM     24  O   UNL     1      51.102  14.078  19.750  0.00  0.00    -0.431 OA
ATOM     25  C   UNL     1      52.780  15.711  20.037  0.00  0.00    -0.215 C 
ATOM     26  C   UNL     1      53.881  14.977  19.855  0.00  0.00    +0.139 C 
ATOM     27  C   UNL     1      52.810  17.221  19.972  0.00  0.00    +0.040 C 
ENDROOT
BRANCH   8   9
ATOM      9  C   UNL     1      51.428  19.468  16.157  0.00  0.00    +0.439 C 
ATOM     10  O   UNL     1      52.410  19.493  15.444  0.00  0.00    -0.439 OA
ENDBRANCH   8   9
BRANCH   6   5
ATOM      5  O   UNL     1      50.902  17.519  18.502  0.00  0.00    -0.318 OA
BRANCH   5   4
ATOM      4  C   UNL     1      50.440  16.606  17.634  0.00  0.00    +0.447 C 
ATOM     28  O   UNL     1      51.189  16.106  16.827  0.00  0.00    -0.484 OA
BRANCH   4   3
ATOM      3  C   UNL     1      48.989  16.204  17.665  0.00  0.00    +0.017 C 
ATOM     29  C   UNL     1      48.806  14.893  16.896  0.00  0.00    +0.059 C 
BRANCH   3   2
ATOM      1  C   UNL     1      46.661  16.922  17.108  0.00  0.00    +0.024 C 
ATOM      2  C   UNL     1      48.141  17.299  17.013  0.00  0.00    +0.032 C 
ENDBRANCH   3   2
ENDBRANCH   4   3
ENDBRANCH   5   4
ENDBRANCH   6   5
BRANCH  13  14
ATOM     14  C   UNL     1      49.480  18.849  20.286  0.00  0.00    +0.318 C 
BRANCH  14  15
ATOM     15  O   UNL     1      48.381  19.662  20.702  0.00  0.00    -0.359 OA
BRANCH  15  16
ATOM     16  C   UNL     1      47.242  19.552  20.001  0.00  0.00    +0.456 C 
ATOM     17  C   UNL     1      46.915  20.561  18.930  0.00  0.00    +0.144 C 
ATOM     18  O   UNL     1      46.477  18.643  20.229  0.00  0.00    -0.506 OA
ENDBRANCH  15  16
ENDBRANCH  14  15
ENDBRANCH  13  14
TORSDOF 8
ENDMDL
MODEL 4
REMARK VINA RESULT:      -4.2      1.868      5.311
REMARK  Name = ZINC95486312
REMARK  11 active torsions:
REMARK  status: ('A' for Active; 'I' for Inactive)
REMARK    1  A    between atoms: C1_1  and  C2_2
REMARK    2  A    between atoms: C2_2  and  C3_3
REMARK    3  A    between atoms: C3_3  and  C4_5
REMARK    4  A    between atoms: C3_3  and  C5_6
REMARK    5  A    between atoms: C5_6  and  O2_8
REMARK    6  A    between atoms: O2_8  and  C6_9
REMARK    7  A    between atoms: C8_12  and  C22_32
REMARK    8  A    between atoms: C11_15  and  C19_27
REMARK    9  A    between atoms: C19_27  and  O5_28
REMARK   10  A    between atoms: O5_28  and  C20_29
REMARK   11  A    between atoms: C20_29  and  C21_31
REMARK                            x       y       z     vdW  Elec       q    Type
REMARK                         _______ _______ _______ _____ _____    ______ ____
ROOT
ATOM      6  C   UNL     1      49.706  19.712  18.228  0.00  0.00    +0.193 C 
ATOM      7  C   UNL     1      49.116  20.869  19.105  0.00  0.00    +0.100 C 
ATOM      8  C   UNL     1      47.991  20.252  19.942  0.00  0.00    -0.219 C 
ATOM     11  C   UNL     1      48.086  20.015  21.264  0.00  0.00    +0.079 C 
ATOM     12  C   UNL     1      49.363  20.363  22.011  0.00  0.00    +0.129 C 
ATOM     13  C   UNL     1      50.401  19.630  21.193  0.00  0.00    -0.084 C 
ATOM     19  C   UNL     1      51.199  20.299  20.438  0.00  0.00    -0.030 C 
ATOM     20  C   UNL     1      51.984  19.573  19.374  0.00  0.00    +0.212 C 
ATOM     21  O   UNL     1      51.937  18.171  19.635  0.00  0.00    -0.338 OA
ATOM     22  C   UNL     1      52.601  17.351  18.662  0.00  0.00    +0.225 C 
ATOM     23  C   UNL     1      51.976  17.609  17.303  0.00  0.00    +0.369 C 
ATOM     24  O   UNL     1      51.690  16.707  16.543  0.00  0.00    -0.431 OA
ATOM     25  C   UNL     1      51.737  19.028  16.963  0.00  0.00    -0.215 C 
ATOM     26  C   UNL     1      51.963  19.503  15.736  0.00  0.00    +0.139 C 
ATOM     27  C   UNL     1      51.227  19.913  18.078  0.00  0.00    +0.040 C 
ENDROOT
BRANCH   8   9
ATOM      9  C   UNL     1      46.744  19.898  19.266  0.00  0.00    +0.439 C 
ATOM     10  O   UNL     1      46.302  20.617  18.394  0.00  0.00    -0.439 OA
ENDBRANCH   8   9
BRANCH   6   5
ATOM      5  O   UNL     1      49.450  18.456  18.859  0.00  0.00    -0.318 OA
BRANCH   5   4
ATOM      4  C   UNL     1      48.736  17.558  18.163  0.00  0.00    +0.447 C 
ATOM     28  O   UNL     1      48.520  17.738  16.987  0.00  0.00    -0.484 OA
BRANCH   4   3
ATOM      3  C   UNL     1      48.204  16.325  18.846  0.00  0.00    +0.017 C 
ATOM     29  C   UNL     1      49.193  15.173  18.661  0.00  0.00    +0.059 C 
BRANCH   3   2
ATOM      1  C   UNL     1      45.740  16.215  19.242  0.00  0.00    +0.024 C 
ATOM      2  C   UNL     1      46.856  15.942  18.232  0.00  0.00    +0.032 C 
ENDBRANCH   3   2
ENDBRANCH   4   3
ENDBRANCH   5   4
ENDBRANCH   6   5
BRANCH  13  14
ATOM     14  C   UNL     1      50.500  18.127  21.260  0.00  0.00    +0.318 C 
BRANCH  14  15
ATOM     15  O   UNL     1      49.969  17.670  22.505  0.00  0.00    -0.359 OA
BRANCH  15  16
ATOM     16  C   UNL     1      49.322  16.494  22.497  0.00  0.00    +0.456 C 
ATOM     17  C   UNL     1      47.816  16.462  22.505  0.00  0.00    +0.144 C 
ATOM     18  O   UNL     1      49.949  15.461  22.483  0.00  0.00    -0.506 OA
ENDBRANCH  15  16
ENDBRANCH  14  15
ENDBRANCH  13  14
TORSDOF 8
ENDMDL
MODEL 5
REMARK VINA RESULT:      -4.2      1.813      4.052
REMARK  Name = ZINC95486312
REMARK  11 active torsions:
REMARK  status: ('A' for Active; 'I' for Inactive)
REMARK    1  A    between atoms: C1_1  and  C2_2
REMARK    2  A    between atoms: C2_2  and  C3_3
REMARK    3  A    between atoms: C3_3  and  C4_5
REMARK    4  A    between atoms: C3_3  and  C5_6
REMARK    5  A    between atoms: C5_6  and  O2_8
REMARK    6  A    between atoms: O2_8  and  C6_9
REMARK    7  A    between atoms: C8_12  and  C22_32
REMARK    8  A    between atoms: C11_15  and  C19_27
REMARK    9  A    between atoms: C19_27  and  O5_28
REMARK   10  A    between atoms: O5_28  and  C20_29
REMARK   11  A    between atoms: C20_29  and  C21_31
REMARK                            x       y       z     vdW  Elec       q    Type
REMARK                         _______ _______ _______ _____ _____    ______ ____
ROOT
ATOM      6  C   UNL     1      48.586  17.042  19.865  0.00  0.00    +0.193 C 
ATOM      7  C   UNL     1      49.697  18.098  20.190  0.00  0.00    +0.100 C 
ATOM      8  C   UNL     1      49.979  18.850  18.885  0.00  0.00    -0.219 C 
ATOM     11  C   UNL     1      49.590  20.118  18.654  0.00  0.00    +0.079 C 
ATOM     12  C   UNL     1      48.823  20.886  19.717  0.00  0.00    +0.129 C 
ATOM     13  C   UNL     1      47.673  19.946  20.000  0.00  0.00    -0.084 C 
ATOM     19  C   UNL     1      47.652  19.289  21.105  0.00  0.00    -0.030 C 
ATOM     20  C   UNL     1      46.719  18.112  21.242  0.00  0.00    +0.212 C 
ATOM     21  O   UNL     1      45.759  18.154  20.187  0.00  0.00    -0.338 OA
ATOM     22  C   UNL     1      44.837  17.054  20.163  0.00  0.00    +0.225 C 
ATOM     23  C   UNL     1      45.626  15.762  20.044  0.00  0.00    +0.369 C 
ATOM     24  O   UNL     1      45.303  14.879  19.278  0.00  0.00    -0.431 OA
ATOM     25  C   UNL     1      46.812  15.650  20.919  0.00  0.00    -0.215 C 
ATOM     26  C   UNL     1      47.124  14.508  21.534  0.00  0.00    +0.139 C 
ATOM     27  C   UNL     1      47.651  16.898  21.083  0.00  0.00    +0.040 C 
ENDROOT
BRANCH   8   9
ATOM      9  C   UNL     1      50.712  18.151  17.831  0.00  0.00    +0.439 C 
ATOM     10  O   UNL     1      50.760  18.619  16.712  0.00  0.00    -0.439 OA
ENDBRANCH   8   9
BRANCH   6   5
ATOM      5  O   UNL     1      47.831  17.477  18.732  0.00  0.00    -0.318 OA
BRANCH   5   4
ATOM      4  C   UNL     1      47.887  16.711  17.632  0.00  0.00    +0.447 C 
ATOM     28  O   UNL     1      47.543  17.161  16.564  0.00  0.00    -0.484 OA
BRANCH   4   3
ATOM      3  C   UNL     1      48.381  15.290  17.727  0.00  0.00    +0.017 C 
ATOM     29  C   UNL     1      49.749  15.180  17.051  0.00  0.00    +0.059 C 
BRANCH   3   2
ATOM      1  C   UNL     1      48.132  13.504  15.997  0.00  0.00    +0.024 C 
ATOM      2  C   UNL     1      47.389  14.358  17.027  0.00  0.00    +0.032 C 
ENDBRANCH   3   2
ENDBRANCH   4   3
ENDBRANCH   5   4
ENDBRANCH   6   5
BRANCH  13  14
ATOM     14  C   UNL     1      46.563  19.779  18.995  0.00  0.00    +0.318 C 
BRANCH  14  15
ATOM     15  O   UNL     1      46.067  21.064  18.616  0.00  0.00    -0.359 OA
BRANCH  15  16
ATOM     16  C   UNL     1      45.005  21.531  19.291  0.00  0.00    +0.456 C 
ATOM     17  C   UNL     1      45.134  22.771  20.136  0.00  0.00    +0.144 C 
ATOM     18  O   UNL     1      43.944  20.955  19.221  0.00  0.00    -0.506 OA
ENDBRANCH  15  16
ENDBRANCH  14  15
ENDBRANCH  13  14
TORSDOF 8
ENDMDL
MODEL 6
REMARK VINA RESULT:      -4.1      3.001      6.319
REMARK  Name = ZINC95486312
REMARK  11 active torsions:
REMARK  status: ('A' for Active; 'I' for Inactive)
REMARK    1  A    between atoms: C1_1  and  C2_2
REMARK    2  A    between atoms: C2_2  and  C3_3
REMARK    3  A    between atoms: C3_3  and  C4_5
REMARK    4  A    between atoms: C3_3  and  C5_6
REMARK    5  A    between atoms: C5_6  and  O2_8
REMARK    6  A    between atoms: O2_8  and  C6_9
REMARK    7  A    between atoms: C8_12  and  C22_32
REMARK    8  A    between atoms: C11_15  and  C19_27
REMARK    9  A    between atoms: C19_27  and  O5_28
REMARK   10  A    between atoms: O5_28  and  C20_29
REMARK   11  A    between atoms: C20_29  and  C21_31
REMARK                            x       y       z     vdW  Elec       q    Type
REMARK                         _______ _______ _______ _____ _____    ______ ____
ROOT
ATOM      6  C   UNL     1      48.019  13.043  19.470  0.00  0.00    +0.193 C 
ATOM      7  C   UNL     1      47.292  13.033  20.858  0.00  0.00    +0.100 C 
ATOM      8  C   UNL     1      47.619  14.370  21.531  0.00  0.00    -0.219 C 
ATOM     11  C   UNL     1      46.732  15.373  21.672  0.00  0.00    +0.079 C 
ATOM     12  C   UNL     1      45.314  15.216  21.148  0.00  0.00    +0.129 C 
ATOM     13  C   UNL     1      45.564  14.832  19.707  0.00  0.00    -0.084 C 
ATOM     19  C   UNL     1      45.353  13.621  19.330  0.00  0.00    -0.030 C 
ATOM     20  C   UNL     1      45.923  13.151  18.014  0.00  0.00    +0.212 C 
ATOM     21  O   UNL     1      46.327  14.287  17.251  0.00  0.00    -0.338 OA
ATOM     22  C   UNL     1      46.943  13.981  15.991  0.00  0.00    +0.225 C 
ATOM     23  C   UNL     1      48.161  13.112  16.244  0.00  0.00    +0.369 C 
ATOM     24  O   UNL     1      49.222  13.313  15.691  0.00  0.00    -0.431 OA
ATOM     25  C   UNL     1      47.974  12.007  17.207  0.00  0.00    -0.215 C 
ATOM     26  C   UNL     1      48.510  10.801  17.004  0.00  0.00    +0.139 C 
ATOM     27  C   UNL     1      47.142  12.312  18.433  0.00  0.00    +0.040 C 
ENDROOT
BRANCH   8   9
ATOM      9  C   UNL     1      48.972  14.569  22.049  0.00  0.00    +0.439 C 
ATOM     10  O   UNL     1      49.592  13.629  22.503  0.00  0.00    -0.439 OA
ENDBRANCH   8   9
BRANCH   6   5
ATOM      5  O   UNL     1      48.230  14.392  19.050  0.00  0.00    -0.318 OA
BRANCH   5   4
ATOM      4  C   UNL     1      49.492  14.754  18.773  0.00  0.00    +0.447 C 
ATOM     28  O   UNL     1      50.394  13.964  18.923  0.00  0.00    -0.484 OA
BRANCH   4   3
ATOM      3  C   UNL     1      49.785  16.146  18.274  0.00  0.00    +0.017 C 
ATOM     29  C   UNL     1      50.934  16.095  17.267  0.00  0.00    +0.059 C 
BRANCH   3   2
ATOM      1  C   UNL     1      48.978  17.887  19.874  0.00  0.00    +0.024 C 
ATOM      2  C   UNL     1      50.179  17.038  19.453  0.00  0.00    +0.032 C 
ENDBRANCH   3   2
ENDBRANCH   4   3
ENDBRANCH   5   4
ENDBRANCH   6   5
BRANCH  13  14
ATOM     14  C   UNL     1      46.058  15.859  18.721  0.00  0.00    +0.318 C 
BRANCH  14  15
ATOM     15  O   UNL     1      45.368  17.092  18.933  0.00  0.00    -0.359 OA
BRANCH  15  16
ATOM     16  C   UNL     1      45.709  18.125  18.147  0.00  0.00    +0.456 C 
ATOM     17  C   UNL     1      45.110  19.486  18.387  0.00  0.00    +0.144 C 
ATOM     18  O   UNL     1      46.499  17.962  17.246  0.00  0.00    -0.506 OA
ENDBRANCH  15  16
ENDBRANCH  14  15
ENDBRANCH  13  14
TORSDOF 8
ENDMDL
MODEL 7
REMARK VINA RESULT:      -4.0      2.072      4.926
REMARK  Name = ZINC95486312
REMARK  11 active torsions:
REMARK  status: ('A' for Active; 'I' for Inactive)
REMARK    1  A    between atoms: C1_1  and  C2_2
REMARK    2  A    between atoms: C2_2  and  C3_3
REMARK    3  A    between atoms: C3_3  and  C4_5
REMARK    4  A    between atoms: C3_3  and  C5_6
REMARK    5  A    between atoms: C5_6  and  O2_8
REMARK    6  A    between atoms: O2_8  and  C6_9
REMARK    7  A    between atoms: C8_12  and  C22_32
REMARK    8  A    between atoms: C11_15  and  C19_27
REMARK    9  A    between atoms: C19_27  and  O5_28
REMARK   10  A    between atoms: O5_28  and  C20_29
REMARK   11  A    between atoms: C20_29  and  C21_31
REMARK                            x       y       z     vdW  Elec       q    Type
REMARK                         _______ _______ _______ _____ _____    ______ ____
ROOT
ATOM      6  C   UNL     1      47.328  18.267  21.017  0.00  0.00    +0.193 C 
ATOM      7  C   UNL     1      47.862  19.684  21.417  0.00  0.00    +0.100 C 
ATOM      8  C   UNL     1      47.744  20.563  20.168  0.00  0.00    -0.219 C 
ATOM     11  C   UNL     1      46.825  21.536  20.020  0.00  0.00    +0.079 C 
ATOM     12  C   UNL     1      45.824  21.813  21.130  0.00  0.00    +0.129 C 
ATOM     13  C   UNL     1      45.222  20.444  21.345  0.00  0.00    -0.084 C 
ATOM     19  C   UNL     1      45.525  19.779  22.403  0.00  0.00    -0.030 C 
ATOM     20  C   UNL     1      45.218  18.302  22.456  0.00  0.00    +0.212 C 
ATOM     21  O   UNL     1      44.312  17.978  21.403  0.00  0.00    -0.338 OA
ATOM     22  C   UNL     1      43.976  16.586  21.301  0.00  0.00    +0.225 C 
ATOM     23  C   UNL     1      45.254  15.792  21.098  0.00  0.00    +0.369 C 
ATOM     24  O   UNL     1      45.339  14.907  20.273  0.00  0.00    -0.431 OA
ATOM     25  C   UNL     1      46.389  16.167  21.968  0.00  0.00    -0.215 C 
ATOM     26  C   UNL     1      47.194  15.248  22.505  0.00  0.00    +0.139 C 
ATOM     27  C   UNL     1      46.589  17.645  22.219  0.00  0.00    +0.040 C 
ENDROOT
BRANCH   8   9
ATOM      9  C   UNL     1      48.683  20.331  19.071  0.00  0.00    +0.439 C 
ATOM     10  O   UNL     1      49.870  20.224  19.302  0.00  0.00    -0.439 OA
ENDBRANCH   8   9
BRANCH   6   5
ATOM      5  O   UNL     1      46.429  18.388  19.914  0.00  0.00    -0.318 OA
BRANCH   5   4
ATOM      4  C   UNL     1      46.696  17.650  18.825  0.00  0.00    +0.447 C 
ATOM     28  O   UNL     1      45.840  17.472  17.991  0.00  0.00    -0.484 OA
BRANCH   4   3
ATOM      3  C   UNL     1      48.064  17.045  18.642  0.00  0.00    +0.017 C 
ATOM     29  C   UNL     1      48.626  17.456  17.280  0.00  0.00    +0.059 C 
BRANCH   3   2
ATOM      1  C   UNL     1      49.324  14.934  19.087  0.00  0.00    +0.024 C 
ATOM      2  C   UNL     1      47.962  15.520  18.712  0.00  0.00    +0.032 C 
ENDBRANCH   3   2
ENDBRANCH   4   3
ENDBRANCH   5   4
ENDBRANCH   6   5
BRANCH  13  14
ATOM     14  C   UNL     1      44.276  19.861  20.327  0.00  0.00    +0.318 C 
BRANCH  14  15
ATOM     15  O   UNL     1      43.379  20.877  19.874  0.00  0.00    -0.359 OA
BRANCH  15  16
ATOM     16  C   UNL     1      42.180  20.476  19.424  0.00  0.00    +0.456 C 
ATOM     17  C   UNL     1      41.277  21.451  18.714  0.00  0.00    +0.144 C 
ATOM     18  O   UNL     1      41.826  19.332  19.588  0.00  0.00    -0.506 OA
ENDBRANCH  15  16
ENDBRANCH  14  15
ENDBRANCH  13  14
TORSDOF 8
ENDMDL
MODEL 8
REMARK VINA RESULT:      -4.0      2.280      5.035
REMARK  Name = ZINC95486312
REMARK  11 active torsions:
REMARK  status: ('A' for Active; 'I' for Inactive)
REMARK    1  A    between atoms: C1_1  and  C2_2
REMARK    2  A    between atoms: C2_2  and  C3_3
REMARK    3  A    between atoms: C3_3  and  C4_5
REMARK    4  A    between atoms: C3_3  and  C5_6
REMARK    5  A    between atoms: C5_6  and  O2_8
REMARK    6  A    between atoms: O2_8  and  C6_9
REMARK    7  A    between atoms: C8_12  and  C22_32
REMARK    8  A    between atoms: C11_15  and  C19_27
REMARK    9  A    between atoms: C19_27  and  O5_28
REMARK   10  A    between atoms: O5_28  and  C20_29
REMARK   11  A    between atoms: C20_29  and  C21_31
REMARK                            x       y       z     vdW  Elec       q    Type
REMARK                         _______ _______ _______ _____ _____    ______ ____
ROOT
ATOM      6  C   UNL     1      49.354  20.133  19.539  0.00  0.00    +0.193 C 
ATOM      7  C   UNL     1      50.161  20.868  18.415  0.00  0.00    +0.100 C 
ATOM      8  C   UNL     1      51.613  20.939  18.897  0.00  0.00    -0.219 C 
ATOM     11  C   UNL     1      52.609  20.192  18.386  0.00  0.00    +0.079 C 
ATOM     12  C   UNL     1      52.324  19.206  17.265  0.00  0.00    +0.129 C 
ATOM     13  C   UNL     1      51.203  18.386  17.861  0.00  0.00    -0.084 C 
ATOM     19  C   UNL     1      50.005  18.539  17.419  0.00  0.00    -0.030 C 
ATOM     20  C   UNL     1      48.849  18.001  18.226  0.00  0.00    +0.212 C 
ATOM     21  O   UNL     1      49.351  17.096  19.209  0.00  0.00    -0.338 OA
ATOM     22  C   UNL     1      48.358  16.549  20.090  0.00  0.00    +0.225 C 
ATOM     23  C   UNL     1      47.657  17.692  20.801  0.00  0.00    +0.369 C 
ATOM     24  O   UNL     1      47.430  17.667  21.992  0.00  0.00    -0.431 OA
ATOM     25  C   UNL     1      47.269  18.837  19.950  0.00  0.00    -0.215 C 
ATOM     26  C   UNL     1      46.102  19.465  20.109  0.00  0.00    +0.139 C 
ATOM     27  C   UNL     1      48.262  19.258  18.890  0.00  0.00    +0.040 C 
ENDROOT
BRANCH   8   9
ATOM      9  C   UNL     1      51.936  21.873  19.976  0.00  0.00    +0.439 C 
ATOM     10  O   UNL     1      53.094  22.070  20.281  0.00  0.00    -0.439 OA
ENDBRANCH   8   9
BRANCH   6   5
ATOM      5  O   UNL     1      50.237  19.308  20.301  0.00  0.00    -0.318 OA
BRANCH   5   4
ATOM      4  C   UNL     1      50.307  19.544  21.620  0.00  0.00    +0.447 C 
ATOM     28  O   UNL     1      49.581  20.368  22.125  0.00  0.00    -0.484 OA
BRANCH   4   3
ATOM      3  C   UNL     1      51.289  18.781  22.471  0.00  0.00    +0.017 C 
ATOM     29  C   UNL     1      52.692  18.921  21.880  0.00  0.00    +0.059 C 
BRANCH   3   2
ATOM      1  C   UNL     1      52.154  16.438  22.445  0.00  0.00    +0.024 C 
ATOM      2  C   UNL     1      50.894  17.303  22.505  0.00  0.00    +0.032 C 
ENDBRANCH   3   2
ENDBRANCH   4   3
ENDBRANCH   5   4
ENDBRANCH   6   5
BRANCH  13  14
ATOM     14  C   UNL     1      51.485  17.400  18.965  0.00  0.00    +0.318 C 
BRANCH  14  15
ATOM     15  O   UNL     1      52.652  16.643  18.640  0.00  0.00    -0.359 OA
BRANCH  15  16
ATOM     16  C   UNL     1      52.578  15.312  18.798  0.00  0.00    +0.456 C 
ATOM     17  C   UNL     1      51.505  14.526  18.090  0.00  0.00    +0.144 C 
ATOM     18  O   UNL     1      53.373  14.744  19.510  0.00  0.00    -0.506 OA
ENDBRANCH  15  16
ENDBRANCH  14  15
ENDBRANCH  13  14
TORSDOF 8
ENDMDL
MODEL 9
REMARK VINA RESULT:      -3.9      3.062      6.046
REMARK  Name = ZINC95486312
REMARK  11 active torsions:
REMARK  status: ('A' for Active; 'I' for Inactive)
REMARK    1  A    between atoms: C1_1  and  C2_2
REMARK    2  A    between atoms: C2_2  and  C3_3
REMARK    3  A    between atoms: C3_3  and  C4_5
REMARK    4  A    between atoms: C3_3  and  C5_6
REMARK    5  A    between atoms: C5_6  and  O2_8
REMARK    6  A    between atoms: O2_8  and  C6_9
REMARK    7  A    between atoms: C8_12  and  C22_32
REMARK    8  A    between atoms: C11_15  and  C19_27
REMARK    9  A    between atoms: C19_27  and  O5_28
REMARK   10  A    between atoms: O5_28  and  C20_29
REMARK   11  A    between atoms: C20_29  and  C21_31
REMARK                            x       y       z     vdW  Elec       q    Type
REMARK                         _______ _______ _______ _____ _____    ______ ____
ROOT
ATOM      6  C   UNL     1      49.072  15.980  19.660  0.00  0.00    +0.193 C 
ATOM      7  C   UNL     1      50.156  14.849  19.643  0.00  0.00    +0.100 C 
ATOM      8  C   UNL     1      49.450  13.562  20.080  0.00  0.00    -0.219 C 
ATOM     11  C   UNL     1      49.149  12.552  19.242  0.00  0.00    +0.079 C 
ATOM     12  C   UNL     1      49.509  12.651  17.770  0.00  0.00    +0.129 C 
ATOM     13  C   UNL     1      48.863  13.963  17.387  0.00  0.00    -0.084 C 
ATOM     19  C   UNL     1      49.603  14.992  17.170  0.00  0.00    -0.030 C 
ATOM     20  C   UNL     1      48.968  16.360  17.137  0.00  0.00    +0.212 C 
ATOM     21  O   UNL     1      47.553  16.212  17.020  0.00  0.00    -0.338 OA
ATOM     22  C   UNL     1      46.813  17.442  17.033  0.00  0.00    +0.225 C 
ATOM     23  C   UNL     1      47.116  18.177  18.326  0.00  0.00    +0.369 C 
ATOM     24  O   UNL     1      46.244  18.693  18.994  0.00  0.00    -0.431 OA
ATOM     25  C   UNL     1      48.539  18.223  18.722  0.00  0.00    -0.215 C 
ATOM     26  C   UNL     1      49.087  19.323  19.245  0.00  0.00    +0.139 C 
ATOM     27  C   UNL     1      49.343  16.961  18.502  0.00  0.00    +0.040 C 
ENDROOT
BRANCH   8   9
ATOM      9  C   UNL     1      49.082  13.422  21.489  0.00  0.00    +0.439 C 
ATOM     10  O   UNL     1      48.553  12.401  21.879  0.00  0.00    -0.439 OA
ENDBRANCH   8   9
BRANCH   6   5
ATOM      5  O   UNL     1      47.775  15.402  19.502  0.00  0.00    -0.318 OA
BRANCH   5   4
ATOM      4  C   UNL     1      46.865  15.676  20.450  0.00  0.00    +0.447 C 
ATOM     28  O   UNL     1      47.180  16.327  21.419  0.00  0.00    -0.484 OA
BRANCH   4   3
ATOM      3  C   UNL     1      45.452  15.174  20.306  0.00  0.00    +0.017 C 
ATOM     29  C   UNL     1      44.556  15.871  21.331  0.00  0.00    +0.059 C 
BRANCH   3   2
ATOM      1  C   UNL     1      45.205  13.388  22.036  0.00  0.00    +0.024 C 
ATOM      2  C   UNL     1      45.420  13.662  20.547  0.00  0.00    +0.032 C 
ENDBRANCH   3   2
ENDBRANCH   4   3
ENDBRANCH   5   4
ENDBRANCH   6   5
BRANCH  13  14
ATOM     14  C   UNL     1      47.365  14.065  17.262  0.00  0.00    +0.318 C 
BRANCH  14  15
ATOM     15  O   UNL     1      46.899  13.092  16.324  0.00  0.00    -0.359 OA
BRANCH  15  16
ATOM     16  C   UNL     1      46.080  12.138  16.793  0.00  0.00    +0.456 C 
ATOM     17  C   UNL     1      46.458  10.685  16.656  0.00  0.00    +0.144 C 
ATOM     18  O   UNL     1      45.039  12.443  17.326  0.00  0.00    -0.506 OA
ENDBRANCH  15  16
ENDBRANCH  14  15
ENDBRANCH  13  14
TORSDOF 8
ENDMDL
