MODEL 1
REMARK VINA RESULT:      -7.4      0.000      0.000
REMARK  Name = ZINC95485937
REMARK  10 active torsions:
REMARK  status: ('A' for Active; 'I' for Inactive)
REMARK    1  A    between atoms: C1_1  and  C2_2
REMARK    2  A    between atoms: C5_6  and  C32_40
REMARK    3  A    between atoms: C8_9  and  C31_39
REMARK    4  A    between atoms: C11_14  and  C12_16
REMARK    5  A    between atoms: C16_20  and  C30_38
REMARK    6  A    between atoms: C24_29  and  O1_34
REMARK    7  A    between atoms: C25_31  and  C26_32
REMARK    8  A    between atoms: C25_31  and  C27_33
REMARK    9  A    between atoms: O1_34  and  C28_35
REMARK   10  A    between atoms: C28_35  and  C29_37
REMARK                            x       y       z     vdW  Elec       q    Type
REMARK                         _______ _______ _______ _____ _____    ______ ____
ROOT
ATOM      1  C   UNL     1      41.596  20.378  18.465  0.00  0.00    +0.007 C 
ATOM      2  C   UNL     1      42.570  19.487  19.244  0.00  0.00    -0.015 C 
ATOM      3  C   UNL     1      41.970  19.160  20.608  0.00  0.00    +0.004 C 
ATOM      4  C   UNL     1      42.950  18.320  21.423  0.00  0.00    +0.013 C 
ATOM      5  C   UNL     1      44.257  19.085  21.627  0.00  0.00    -0.043 C 
ATOM      6  C   UNL     1      43.979  20.335  22.478  0.00  0.00    +0.014 C 
ATOM      7  C   UNL     1      45.215  18.226  22.462  0.00  0.00    +0.005 C 
ATOM      8  C   UNL     1      45.629  16.974  21.700  0.00  0.00    +0.011 C 
ATOM      9  C   UNL     1      46.313  17.360  20.386  0.00  0.00    -0.023 C 
ATOM     10  C   UNL     1      47.546  18.217  20.706  0.00  0.00    +0.024 C 
ATOM     11  C   UNL     1      45.347  18.188  19.542  0.00  0.00    +0.006 C 
ATOM     12  C   UNL     1      46.021  18.598  18.233  0.00  0.00    +0.010 C 
ATOM     13  C   UNL     1      46.415  17.362  17.428  0.00  0.00    +0.038 C 
ATOM     14  C   UNL     1      47.294  16.428  18.269  0.00  0.00    -0.080 C 
ATOM     15  C   UNL     1      47.935  15.289  17.457  0.00  0.00    -0.012 C 
ATOM     16  C   UNL     1      48.805  16.434  18.022  0.00  0.00    -0.063 C 
ATOM     17  C   UNL     1      49.270  17.486  17.015  0.00  0.00    +0.055 C 
ATOM     18  C   UNL     1      50.766  17.573  16.862  0.00  0.00    +0.010 C 
ATOM     19  C   UNL     1      51.495  17.591  18.186  0.00  0.00    +0.190 C 
ATOM     24  C   UNL     1      51.182  16.380  19.039  0.00  0.00    -0.027 C 
ATOM     25  C   UNL     1      51.936  15.178  18.456  0.00  0.00    +0.035 C 
ATOM     26  C   UNL     1      51.737  16.641  20.439  0.00  0.00    +0.032 C 
ATOM     27  C   UNL     1      49.743  16.019  19.121  0.00  0.00    -0.007 C 
ATOM     28  C   UNL     1      49.167  15.661  20.444  0.00  0.00    +0.024 C 
ATOM     29  C   UNL     1      47.712  15.274  20.476  0.00  0.00    +0.011 C 
ATOM     30  C   UNL     1      46.750  16.090  19.648  0.00  0.00    +0.005 C 
ATOM     31  C   UNL     1      45.508  15.203  19.416  0.00  0.00    +0.013 C 
ATOM     32  C   UNL     1      44.877  19.449  20.288  0.00  0.00    +0.016 C 
ATOM     33  C   UNL     1      43.911  20.193  19.370  0.00  0.00    -0.021 C 
ATOM     34  C   UNL     1      43.736  21.661  19.742  0.00  0.00    +0.013 C 
ENDROOT
BRANCH  19  20
ATOM     20  O   UNL     1      51.126  18.770  18.904  0.00  0.00    -0.336 OA
BRANCH  20  21
ATOM     21  C   UNL     1      51.681  19.926  18.506  0.00  0.00    +0.455 C 
ATOM     22  C   UNL     1      50.804  21.103  18.163  0.00  0.00    +0.149 C 
ATOM     23  O   UNL     1      52.882  20.021  18.423  0.00  0.00    -0.516 OA
ENDBRANCH  20  21
ENDBRANCH  19  20
TORSDOF 2
ENDMDL
MODEL 2
REMARK VINA RESULT:      -6.6      2.928      6.602
REMARK  Name = ZINC95485937
REMARK  10 active torsions:
REMARK  status: ('A' for Active; 'I' for Inactive)
REMARK    1  A    between atoms: C1_1  and  C2_2
REMARK    2  A    between atoms: C5_6  and  C32_40
REMARK    3  A    between atoms: C8_9  and  C31_39
REMARK    4  A    between atoms: C11_14  and  C12_16
REMARK    5  A    between atoms: C16_20  and  C30_38
REMARK    6  A    between atoms: C24_29  and  O1_34
REMARK    7  A    between atoms: C25_31  and  C26_32
REMARK    8  A    between atoms: C25_31  and  C27_33
REMARK    9  A    between atoms: O1_34  and  C28_35
REMARK   10  A    between atoms: C28_35  and  C29_37
REMARK                            x       y       z     vdW  Elec       q    Type
REMARK                         _______ _______ _______ _____ _____    ______ ____
ROOT
ATOM      1  C   UNL     1      47.993  12.808  17.422  0.00  0.00    +0.007 C 
ATOM      2  C   UNL     1      47.956  13.721  18.653  0.00  0.00    -0.015 C 
ATOM      3  C   UNL     1      48.199  12.885  19.905  0.00  0.00    +0.004 C 
ATOM      4  C   UNL     1      48.109  13.768  21.149  0.00  0.00    +0.013 C 
ATOM      5  C   UNL     1      46.724  14.408  21.241  0.00  0.00    -0.043 C 
ATOM      6  C   UNL     1      45.674  13.304  21.442  0.00  0.00    +0.014 C 
ATOM      7  C   UNL     1      46.656  15.273  22.505  0.00  0.00    +0.005 C 
ATOM      8  C   UNL     1      47.611  16.457  22.408  0.00  0.00    +0.011 C 
ATOM      9  C   UNL     1      47.261  17.315  21.190  0.00  0.00    -0.023 C 
ATOM     10  C   UNL     1      45.815  17.811  21.336  0.00  0.00    +0.024 C 
ATOM     11  C   UNL     1      47.361  16.461  19.929  0.00  0.00    +0.006 C 
ATOM     12  C   UNL     1      46.996  17.299  18.703  0.00  0.00    +0.010 C 
ATOM     13  C   UNL     1      47.960  18.474  18.557  0.00  0.00    +0.038 C 
ATOM     14  C   UNL     1      47.993  19.307  19.845  0.00  0.00    -0.080 C 
ATOM     15  C   UNL     1      48.745  20.642  19.695  0.00  0.00    -0.012 C 
ATOM     16  C   UNL     1      47.211  20.623  19.880  0.00  0.00    -0.063 C 
ATOM     17  C   UNL     1      46.379  20.888  18.626  0.00  0.00    +0.055 C 
ATOM     18  C   UNL     1      45.516  22.121  18.709  0.00  0.00    +0.010 C 
ATOM     19  C   UNL     1      44.757  22.224  20.012  0.00  0.00    +0.190 C 
ATOM     24  C   UNL     1      45.670  22.209  21.220  0.00  0.00    -0.027 C 
ATOM     25  C   UNL     1      46.349  23.581  21.321  0.00  0.00    +0.035 C 
ATOM     26  C   UNL     1      44.796  22.032  22.462  0.00  0.00    +0.032 C 
ATOM     27  C   UNL     1      46.736  21.174  21.196  0.00  0.00    -0.007 C 
ATOM     28  C   UNL     1      47.000  20.387  22.428  0.00  0.00    +0.024 C 
ATOM     29  C   UNL     1      48.108  19.368  22.367  0.00  0.00    +0.011 C 
ATOM     30  C   UNL     1      48.210  18.516  21.125  0.00  0.00    +0.005 C 
ATOM     31  C   UNL     1      49.662  17.995  21.069  0.00  0.00    +0.013 C 
ATOM     32  C   UNL     1      46.434  15.234  19.998  0.00  0.00    +0.016 C 
ATOM     33  C   UNL     1      46.619  14.445  18.705  0.00  0.00    -0.021 C 
ATOM     34  C   UNL     1      45.462  13.499  18.405  0.00  0.00    +0.013 C 
ENDROOT
BRANCH  19  20
ATOM     20  O   UNL     1      43.847  21.126  20.108  0.00  0.00    -0.336 OA
BRANCH  20  21
ATOM     21  C   UNL     1      42.707  21.216  19.404  0.00  0.00    +0.455 C 
ATOM     22  C   UNL     1      42.059  19.969  18.860  0.00  0.00    +0.149 C 
ATOM     23  O   UNL     1      42.202  22.295  19.209  0.00  0.00    -0.516 OA
ENDBRANCH  20  21
ENDBRANCH  19  20
TORSDOF 2
ENDMDL
MODEL 3
REMARK VINA RESULT:      -6.4      3.337      6.928
REMARK  Name = ZINC95485937
REMARK  10 active torsions:
REMARK  status: ('A' for Active; 'I' for Inactive)
REMARK    1  A    between atoms: C1_1  and  C2_2
REMARK    2  A    between atoms: C5_6  and  C32_40
REMARK    3  A    between atoms: C8_9  and  C31_39
REMARK    4  A    between atoms: C11_14  and  C12_16
REMARK    5  A    between atoms: C16_20  and  C30_38
REMARK    6  A    between atoms: C24_29  and  O1_34
REMARK    7  A    between atoms: C25_31  and  C26_32
REMARK    8  A    between atoms: C25_31  and  C27_33
REMARK    9  A    between atoms: O1_34  and  C28_35
REMARK   10  A    between atoms: C28_35  and  C29_37
REMARK                            x       y       z     vdW  Elec       q    Type
REMARK                         _______ _______ _______ _____ _____    ______ ____
ROOT
ATOM      1  C   UNL     1      51.722  10.470  15.343  0.00  0.00    +0.007 C 
ATOM      2  C   UNL     1      50.708  11.375  16.052  0.00  0.00    -0.015 C 
ATOM      3  C   UNL     1      49.320  10.748  15.952  0.00  0.00    +0.004 C 
ATOM      4  C   UNL     1      48.285  11.664  16.601  0.00  0.00    +0.013 C 
ATOM      5  C   UNL     1      48.267  13.021  15.899  0.00  0.00    -0.043 C 
ATOM      6  C   UNL     1      47.795  12.829  14.449  0.00  0.00    +0.014 C 
ATOM      7  C   UNL     1      47.208  13.912  16.560  0.00  0.00    +0.005 C 
ATOM      8  C   UNL     1      47.591  14.238  17.998  0.00  0.00    +0.011 C 
ATOM      9  C   UNL     1      48.944  14.953  18.032  0.00  0.00    -0.023 C 
ATOM     10  C   UNL     1      48.841  16.243  17.206  0.00  0.00    +0.024 C 
ATOM     11  C   UNL     1      50.003  14.052  17.404  0.00  0.00    +0.006 C 
ATOM     12  C   UNL     1      51.359  14.758  17.414  0.00  0.00    +0.010 C 
ATOM     13  C   UNL     1      51.788  15.066  18.846  0.00  0.00    +0.038 C 
ATOM     14  C   UNL     1      50.704  15.874  19.571  0.00  0.00    -0.080 C 
ATOM     15  C   UNL     1      51.160  16.434  20.930  0.00  0.00    -0.012 C 
ATOM     16  C   UNL     1      50.909  17.382  19.736  0.00  0.00    -0.063 C 
ATOM     17  C   UNL     1      52.153  17.923  19.032  0.00  0.00    +0.055 C 
ATOM     18  C   UNL     1      52.290  19.423  19.091  0.00  0.00    +0.010 C 
ATOM     19  C   UNL     1      51.004  20.147  18.762  0.00  0.00    +0.190 C 
ATOM     24  C   UNL     1      49.861  19.745  19.669  0.00  0.00    -0.027 C 
ATOM     25  C   UNL     1      50.077  20.414  21.033  0.00  0.00    +0.035 C 
ATOM     26  C   UNL     1      48.573  20.312  19.074  0.00  0.00    +0.032 C 
ATOM     27  C   UNL     1      49.716  18.283  19.897  0.00  0.00    -0.007 C 
ATOM     28  C   UNL     1      48.360  17.679  19.839  0.00  0.00    +0.024 C 
ATOM     29  C   UNL     1      48.257  16.200  20.104  0.00  0.00    +0.011 C 
ATOM     30  C   UNL     1      49.298  15.301  19.482  0.00  0.00    +0.005 C 
ATOM     31  C   UNL     1      49.308  14.001  20.313  0.00  0.00    +0.013 C 
ATOM     32  C   UNL     1      49.640  13.670  15.958  0.00  0.00    +0.016 C 
ATOM     33  C   UNL     1      50.748  12.763  15.430  0.00  0.00    -0.021 C 
ATOM     34  C   UNL     1      50.794  12.691  13.908  0.00  0.00    +0.013 C 
ENDROOT
BRANCH  19  20
ATOM     20  O   UNL     1      50.643  19.860  17.409  0.00  0.00    -0.336 OA
BRANCH  20  21
ATOM     21  C   UNL     1      51.407  20.398  16.446  0.00  0.00    +0.455 C 
ATOM     22  C   UNL     1      52.214  19.506  15.538  0.00  0.00    +0.149 C 
ATOM     23  O   UNL     1      51.448  21.597  16.308  0.00  0.00    -0.516 OA
ENDBRANCH  20  21
ENDBRANCH  19  20
TORSDOF 2
ENDMDL
MODEL 4
REMARK VINA RESULT:      -6.2      2.870      6.903
REMARK  Name = ZINC95485937
REMARK  10 active torsions:
REMARK  status: ('A' for Active; 'I' for Inactive)
REMARK    1  A    between atoms: C1_1  and  C2_2
REMARK    2  A    between atoms: C5_6  and  C32_40
REMARK    3  A    between atoms: C8_9  and  C31_39
REMARK    4  A    between atoms: C11_14  and  C12_16
REMARK    5  A    between atoms: C16_20  and  C30_38
REMARK    6  A    between atoms: C24_29  and  O1_34
REMARK    7  A    between atoms: C25_31  and  C26_32
REMARK    8  A    between atoms: C25_31  and  C27_33
REMARK    9  A    between atoms: O1_34  and  C28_35
REMARK   10  A    between atoms: C28_35  and  C29_37
REMARK                            x       y       z     vdW  Elec       q    Type
REMARK                         _______ _______ _______ _____ _____    ______ ____
ROOT
ATOM      1  C   UNL     1      49.670  13.652  15.824  0.00  0.00    +0.007 C 
ATOM      2  C   UNL     1      49.009  14.020  17.158  0.00  0.00    -0.015 C 
ATOM      3  C   UNL     1      48.873  12.765  18.014  0.00  0.00    +0.004 C 
ATOM      4  C   UNL     1      48.164  13.100  19.325  0.00  0.00    +0.013 C 
ATOM      5  C   UNL     1      46.771  13.660  19.042  0.00  0.00    -0.043 C 
ATOM      6  C   UNL     1      45.916  12.568  18.379  0.00  0.00    +0.014 C 
ATOM      7  C   UNL     1      46.076  13.971  20.374  0.00  0.00    +0.005 C 
ATOM      8  C   UNL     1      46.790  15.098  21.110  0.00  0.00    +0.011 C 
ATOM      9  C   UNL     1      46.811  16.361  20.245  0.00  0.00    -0.023 C 
ATOM     10  C   UNL     1      45.365  16.767  19.931  0.00  0.00    +0.024 C 
ATOM     11  C   UNL     1      47.531  16.059  18.934  0.00  0.00    +0.006 C 
ATOM     12  C   UNL     1      47.546  17.305  18.049  0.00  0.00    +0.010 C 
ATOM     13  C   UNL     1      48.288  18.443  18.746  0.00  0.00    +0.038 C 
ATOM     14  C   UNL     1      47.682  18.715  20.129  0.00  0.00    -0.080 C 
ATOM     15  C   UNL     1      48.208  20.001  20.789  0.00  0.00    -0.012 C 
ATOM     16  C   UNL     1      46.749  19.918  20.289  0.00  0.00    -0.063 C 
ATOM     17  C   UNL     1      46.442  20.649  18.982  0.00  0.00    +0.055 C 
ATOM     18  C   UNL     1      45.430  21.757  19.120  0.00  0.00    +0.010 C 
ATOM     19  C   UNL     1      44.216  21.352  19.925  0.00  0.00    +0.190 C 
ATOM     24  C   UNL     1      44.574  20.870  21.315  0.00  0.00    -0.027 C 
ATOM     25  C   UNL     1      44.931  22.095  22.167  0.00  0.00    +0.035 C 
ATOM     26  C   UNL     1      43.325  20.231  21.922  0.00  0.00    +0.032 C 
ATOM     27  C   UNL     1      45.716  19.920  21.381  0.00  0.00    -0.007 C 
ATOM     28  C   UNL     1      45.599  18.718  22.247  0.00  0.00    +0.024 C 
ATOM     29  C   UNL     1      46.791  17.798  22.307  0.00  0.00    +0.011 C 
ATOM     30  C   UNL     1      47.505  17.491  21.013  0.00  0.00    +0.005 C 
ATOM     31  C   UNL     1      48.926  17.027  21.396  0.00  0.00    +0.013 C 
ATOM     32  C   UNL     1      46.861  14.902  18.170  0.00  0.00    +0.016 C 
ATOM     33  C   UNL     1      47.660  14.672  16.891  0.00  0.00    -0.021 C 
ATOM     34  C   UNL     1      46.880  13.919  15.820  0.00  0.00    +0.013 C 
ENDROOT
BRANCH  19  20
ATOM     20  O   UNL     1      43.529  20.305  19.236  0.00  0.00    -0.336 OA
BRANCH  20  21
ATOM     21  C   UNL     1      42.290  20.575  18.797  0.00  0.00    +0.455 C 
ATOM     22  C   UNL     1      41.750  21.979  18.882  0.00  0.00    +0.149 C 
ATOM     23  O   UNL     1      41.608  19.692  18.335  0.00  0.00    -0.516 OA
ENDBRANCH  20  21
ENDBRANCH  19  20
TORSDOF 2
ENDMDL
MODEL 5
REMARK VINA RESULT:      -5.7      3.695      6.264
REMARK  Name = ZINC95485937
REMARK  10 active torsions:
REMARK  status: ('A' for Active; 'I' for Inactive)
REMARK    1  A    between atoms: C1_1  and  C2_2
REMARK    2  A    between atoms: C5_6  and  C32_40
REMARK    3  A    between atoms: C8_9  and  C31_39
REMARK    4  A    between atoms: C11_14  and  C12_16
REMARK    5  A    between atoms: C16_20  and  C30_38
REMARK    6  A    between atoms: C24_29  and  O1_34
REMARK    7  A    between atoms: C25_31  and  C26_32
REMARK    8  A    between atoms: C25_31  and  C27_33
REMARK    9  A    between atoms: O1_34  and  C28_35
REMARK   10  A    between atoms: C28_35  and  C29_37
REMARK                            x       y       z     vdW  Elec       q    Type
REMARK                         _______ _______ _______ _____ _____    ______ ____
ROOT
ATOM      1  C   UNL     1      50.491  21.262  18.064  0.00  0.00    +0.007 C 
ATOM      2  C   UNL     1      50.182  19.962  18.815  0.00  0.00    -0.015 C 
ATOM      3  C   UNL     1      50.493  20.152  20.297  0.00  0.00    +0.004 C 
ATOM      4  C   UNL     1      50.247  18.849  21.055  0.00  0.00    +0.013 C 
ATOM      5  C   UNL     1      51.139  17.740  20.500  0.00  0.00    -0.043 C 
ATOM      6  C   UNL     1      52.609  18.099  20.765  0.00  0.00    +0.014 C 
ATOM      7  C   UNL     1      50.883  16.450  21.290  0.00  0.00    +0.005 C 
ATOM      8  C   UNL     1      49.465  15.942  21.059  0.00  0.00    +0.011 C 
ATOM      9  C   UNL     1      49.239  15.674  19.569  0.00  0.00    -0.023 C 
ATOM     10  C   UNL     1      50.259  14.630  19.095  0.00  0.00    +0.024 C 
ATOM     11  C   UNL     1      49.462  16.966  18.787  0.00  0.00    +0.006 C 
ATOM     12  C   UNL     1      49.257  16.713  17.294  0.00  0.00    +0.010 C 
ATOM     13  C   UNL     1      47.832  16.237  17.026  0.00  0.00    +0.038 C 
ATOM     14  C   UNL     1      47.506  15.003  17.878  0.00  0.00    -0.080 C 
ATOM     15  C   UNL     1      46.185  14.317  17.487  0.00  0.00    -0.012 C 
ATOM     16  C   UNL     1      47.539  13.628  17.207  0.00  0.00    -0.063 C 
ATOM     17  C   UNL     1      48.019  13.652  15.756  0.00  0.00    +0.055 C 
ATOM     18  C   UNL     1      48.167  12.287  15.133  0.00  0.00    +0.010 C 
ATOM     19  C   UNL     1      48.888  11.305  16.028  0.00  0.00    +0.190 C 
ATOM     24  C   UNL     1      48.211  11.136  17.371  0.00  0.00    -0.027 C 
ATOM     25  C   UNL     1      46.956  10.277  17.169  0.00  0.00    +0.035 C 
ATOM     26  C   UNL     1      49.164  10.357  18.279  0.00  0.00    +0.032 C 
ATOM     27  C   UNL     1      47.795  12.399  18.035  0.00  0.00    -0.007 C 
ATOM     28  C   UNL     1      48.062  12.569  19.487  0.00  0.00    +0.024 C 
ATOM     29  C   UNL     1      47.598  13.853  20.124  0.00  0.00    +0.011 C 
ATOM     30  C   UNL     1      47.820  15.135  19.359  0.00  0.00    +0.005 C 
ATOM     31  C   UNL     1      46.814  16.161  19.923  0.00  0.00    +0.013 C 
ATOM     32  C   UNL     1      50.874  17.534  19.018  0.00  0.00    +0.016 C 
ATOM     33  C   UNL     1      50.989  18.823  18.209  0.00  0.00    -0.021 C 
ATOM     34  C   UNL     1      52.430  19.241  17.943  0.00  0.00    +0.013 C 
ENDROOT
BRANCH  19  20
ATOM     20  O   UNL     1      50.225  11.764  16.240  0.00  0.00    -0.336 OA
BRANCH  20  21
ATOM     21  C   UNL     1      51.111  11.535  15.258  0.00  0.00    +0.455 C 
ATOM     22  C   UNL     1      51.980  12.657  14.750  0.00  0.00    +0.149 C 
ATOM     23  O   UNL     1      51.212  10.430  14.781  0.00  0.00    -0.516 OA
ENDBRANCH  20  21
ENDBRANCH  19  20
TORSDOF 2
ENDMDL
MODEL 6
REMARK VINA RESULT:      -5.6      2.753      6.956
REMARK  Name = ZINC95485937
REMARK  10 active torsions:
REMARK  status: ('A' for Active; 'I' for Inactive)
REMARK    1  A    between atoms: C1_1  and  C2_2
REMARK    2  A    between atoms: C5_6  and  C32_40
REMARK    3  A    between atoms: C8_9  and  C31_39
REMARK    4  A    between atoms: C11_14  and  C12_16
REMARK    5  A    between atoms: C16_20  and  C30_38
REMARK    6  A    between atoms: C24_29  and  O1_34
REMARK    7  A    between atoms: C25_31  and  C26_32
REMARK    8  A    between atoms: C25_31  and  C27_33
REMARK    9  A    between atoms: O1_34  and  C28_35
REMARK   10  A    between atoms: C28_35  and  C29_37
REMARK                            x       y       z     vdW  Elec       q    Type
REMARK                         _______ _______ _______ _____ _____    ______ ____
ROOT
ATOM      1  C   UNL     1      49.409  12.899  14.730  0.00  0.00    +0.007 C 
ATOM      2  C   UNL     1      49.463  13.476  16.149  0.00  0.00    -0.015 C 
ATOM      3  C   UNL     1      50.134  12.467  17.076  0.00  0.00    +0.004 C 
ATOM      4  C   UNL     1      50.146  12.999  18.507  0.00  0.00    +0.013 C 
ATOM      5  C   UNL     1      48.717  13.241  18.991  0.00  0.00    -0.043 C 
ATOM      6  C   UNL     1      47.975  11.897  19.058  0.00  0.00    +0.014 C 
ATOM      7  C   UNL     1      48.759  13.758  20.435  0.00  0.00    +0.005 C 
ATOM      8  C   UNL     1      49.416  15.131  20.504  0.00  0.00    +0.011 C 
ATOM      9  C   UNL     1      48.645  16.127  19.634  0.00  0.00    -0.023 C 
ATOM     10  C   UNL     1      47.198  16.206  20.140  0.00  0.00    +0.024 C 
ATOM     11  C   UNL     1      48.632  15.628  18.191  0.00  0.00    +0.006 C 
ATOM     12  C   UNL     1      47.850  16.603  17.311  0.00  0.00    +0.010 C 
ATOM     13  C   UNL     1      48.507  17.981  17.330  0.00  0.00    +0.038 C 
ATOM     14  C   UNL     1      48.656  18.486  18.771  0.00  0.00    -0.080 C 
ATOM     15  C   UNL     1      49.078  19.963  18.864  0.00  0.00    -0.012 C 
ATOM     16  C   UNL     1      47.657  19.527  19.284  0.00  0.00    -0.063 C 
ATOM     17  C   UNL     1      46.534  19.853  18.299  0.00  0.00    +0.055 C 
ATOM     18  C   UNL     1      45.485  20.784  18.848  0.00  0.00    +0.010 C 
ATOM     19  C   UNL     1      45.025  20.403  20.237  0.00  0.00    +0.190 C 
ATOM     24  C   UNL     1      46.165  20.344  21.231  0.00  0.00    -0.027 C 
ATOM     25  C   UNL     1      46.565  21.782  21.584  0.00  0.00    +0.035 C 
ATOM     26  C   UNL     1      45.638  19.684  22.505  0.00  0.00    +0.032 C 
ATOM     27  C   UNL     1      47.383  19.635  20.758  0.00  0.00    -0.007 C 
ATOM     28  C   UNL     1      48.060  18.682  21.675  0.00  0.00    +0.024 C 
ATOM     29  C   UNL     1      49.307  18.008  21.164  0.00  0.00    +0.011 C 
ATOM     30  C   UNL     1      49.301  17.508  19.740  0.00  0.00    +0.005 C 
ATOM     31  C   UNL     1      50.778  17.386  19.311  0.00  0.00    +0.013 C 
ATOM     32  C   UNL     1      48.005  14.227  18.080  0.00  0.00    +0.016 C 
ATOM     33  C   UNL     1      48.054  13.818  16.610  0.00  0.00    -0.021 C 
ATOM     34  C   UNL     1      47.069  12.708  16.260  0.00  0.00    +0.013 C 
ENDROOT
BRANCH  19  20
ATOM     20  O   UNL     1      44.393  19.122  20.182  0.00  0.00    -0.336 OA
BRANCH  20  21
ATOM     21  C   UNL     1      43.058  19.095  20.320  0.00  0.00    +0.455 C 
ATOM     22  C   UNL     1      42.183  19.796  19.313  0.00  0.00    +0.149 C 
ATOM     23  O   UNL     1      42.560  18.507  21.249  0.00  0.00    -0.516 OA
ENDBRANCH  20  21
ENDBRANCH  19  20
TORSDOF 2
ENDMDL
MODEL 7
REMARK VINA RESULT:      -5.5      2.956      6.769
REMARK  Name = ZINC95485937
REMARK  10 active torsions:
REMARK  status: ('A' for Active; 'I' for Inactive)
REMARK    1  A    between atoms: C1_1  and  C2_2
REMARK    2  A    between atoms: C5_6  and  C32_40
REMARK    3  A    between atoms: C8_9  and  C31_39
REMARK    4  A    between atoms: C11_14  and  C12_16
REMARK    5  A    between atoms: C16_20  and  C30_38
REMARK    6  A    between atoms: C24_29  and  O1_34
REMARK    7  A    between atoms: C25_31  and  C26_32
REMARK    8  A    between atoms: C25_31  and  C27_33
REMARK    9  A    between atoms: O1_34  and  C28_35
REMARK   10  A    between atoms: C28_35  and  C29_37
REMARK                            x       y       z     vdW  Elec       q    Type
REMARK                         _______ _______ _______ _____ _____    ______ ____
ROOT
ATOM      1  C   UNL     1      49.996  12.266  14.176  0.00  0.00    +0.007 C 
ATOM      2  C   UNL     1      50.182  12.708  15.632  0.00  0.00    -0.015 C 
ATOM      3  C   UNL     1      50.228  11.475  16.529  0.00  0.00    +0.004 C 
ATOM      4  C   UNL     1      50.355  11.896  17.991  0.00  0.00    +0.013 C 
ATOM      5  C   UNL     1      49.162  12.760  18.397  0.00  0.00    -0.043 C 
ATOM      6  C   UNL     1      47.882  11.914  18.323  0.00  0.00    +0.014 C 
ATOM      7  C   UNL     1      49.308  13.154  19.872  0.00  0.00    +0.005 C 
ATOM      8  C   UNL     1      50.515  14.061  20.078  0.00  0.00    +0.011 C 
ATOM      9  C   UNL     1      50.371  15.327  19.230  0.00  0.00    -0.023 C 
ATOM     10  C   UNL     1      49.085  16.055  19.645  0.00  0.00    +0.024 C 
ATOM     11  C   UNL     1      50.259  14.936  17.759  0.00  0.00    +0.006 C 
ATOM     12  C   UNL     1      50.096  16.189  16.898  0.00  0.00    +0.010 C 
ATOM     13  C   UNL     1      51.309  17.102  17.054  0.00  0.00    +0.038 C 
ATOM     14  C   UNL     1      51.546  17.436  18.533  0.00  0.00    -0.080 C 
ATOM     15  C   UNL     1      52.591  18.543  18.754  0.00  0.00    -0.012 C 
ATOM     16  C   UNL     1      51.098  18.805  19.049  0.00  0.00    -0.063 C 
ATOM     17  C   UNL     1      50.345  19.646  18.019  0.00  0.00    +0.055 C 
ATOM     18  C   UNL     1      49.798  20.941  18.561  0.00  0.00    +0.010 C 
ATOM     19  C   UNL     1      49.093  20.775  19.887  0.00  0.00    +0.190 C 
ATOM     24  C   UNL     1      49.983  20.163  20.948  0.00  0.00    -0.027 C 
ATOM     25  C   UNL     1      50.968  21.238  21.424  0.00  0.00    +0.035 C 
ATOM     26  C   UNL     1      49.099  19.785  22.137  0.00  0.00    +0.032 C 
ATOM     27  C   UNL     1      50.773  18.984  20.507  0.00  0.00    -0.007 C 
ATOM     28  C   UNL     1      50.851  17.798  21.398  0.00  0.00    +0.024 C 
ATOM     29  C   UNL     1      51.686  16.637  20.925  0.00  0.00    +0.011 C 
ATOM     30  C   UNL     1      51.577  16.241  19.472  0.00  0.00    +0.005 C 
ATOM     31  C   UNL     1      52.864  15.459  19.133  0.00  0.00    +0.013 C 
ATOM     32  C   UNL     1      49.069  13.991  17.510  0.00  0.00    +0.016 C 
ATOM     33  C   UNL     1      49.055  13.651  16.023  0.00  0.00    -0.021 C 
ATOM     34  C   UNL     1      47.705  13.139  15.535  0.00  0.00    +0.013 C 
ENDROOT
BRANCH  19  20
ATOM     20  O   UNL     1      47.949  19.938  19.704  0.00  0.00    -0.336 OA
BRANCH  20  21
ATOM     21  C   UNL     1      46.796  20.543  19.379  0.00  0.00    +0.455 C 
ATOM     22  C   UNL     1      46.243  21.633  20.261  0.00  0.00    +0.149 C 
ATOM     23  O   UNL     1      46.202  20.213  18.381  0.00  0.00    -0.516 OA
ENDBRANCH  20  21
ENDBRANCH  19  20
TORSDOF 2
ENDMDL
MODEL 8
REMARK VINA RESULT:      -5.5      2.934      6.361
REMARK  Name = ZINC95485937
REMARK  10 active torsions:
REMARK  status: ('A' for Active; 'I' for Inactive)
REMARK    1  A    between atoms: C1_1  and  C2_2
REMARK    2  A    between atoms: C5_6  and  C32_40
REMARK    3  A    between atoms: C8_9  and  C31_39
REMARK    4  A    between atoms: C11_14  and  C12_16
REMARK    5  A    between atoms: C16_20  and  C30_38
REMARK    6  A    between atoms: C24_29  and  O1_34
REMARK    7  A    between atoms: C25_31  and  C26_32
REMARK    8  A    between atoms: C25_31  and  C27_33
REMARK    9  A    between atoms: O1_34  and  C28_35
REMARK   10  A    between atoms: C28_35  and  C29_37
REMARK                            x       y       z     vdW  Elec       q    Type
REMARK                         _______ _______ _______ _____ _____    ______ ____
ROOT
ATOM      1  C   UNL     1      51.259  21.483  16.395  0.00  0.00    +0.007 C 
ATOM      2  C   UNL     1      50.763  20.844  17.697  0.00  0.00    -0.015 C 
ATOM      3  C   UNL     1      51.426  21.540  18.882  0.00  0.00    +0.004 C 
ATOM      4  C   UNL     1      50.990  20.880  20.188  0.00  0.00    +0.013 C 
ATOM      5  C   UNL     1      51.390  19.405  20.192  0.00  0.00    -0.043 C 
ATOM      6  C   UNL     1      52.923  19.302  20.171  0.00  0.00    +0.014 C 
ATOM      7  C   UNL     1      50.955  18.773  21.520  0.00  0.00    +0.005 C 
ATOM      8  C   UNL     1      49.437  18.749  21.641  0.00  0.00    +0.011 C 
ATOM      9  C   UNL     1      48.830  17.955  20.482  0.00  0.00    -0.023 C 
ATOM     10  C   UNL     1      49.386  16.525  20.519  0.00  0.00    +0.024 C 
ATOM     11  C   UNL     1      49.236  18.605  19.162  0.00  0.00    +0.006 C 
ATOM     12  C   UNL     1      48.652  17.814  17.992  0.00  0.00    +0.010 C 
ATOM     13  C   UNL     1      47.128  17.803  18.065  0.00  0.00    +0.038 C 
ATOM     14  C   UNL     1      46.657  17.269  19.424  0.00  0.00    -0.080 C 
ATOM     15  C   UNL     1      45.144  16.994  19.486  0.00  0.00    -0.012 C 
ATOM     16  C   UNL     1      46.154  15.825  19.502  0.00  0.00    -0.063 C 
ATOM     17  C   UNL     1      46.298  15.042  18.197  0.00  0.00    +0.055 C 
ATOM     18  C   UNL     1      45.916  13.588  18.307  0.00  0.00    +0.010 C 
ATOM     19  C   UNL     1      46.504  12.913  19.525  0.00  0.00    +0.190 C 
ATOM     24  C   UNL     1      46.112  13.598  20.816  0.00  0.00    -0.027 C 
ATOM     25  C   UNL     1      44.652  13.239  21.123  0.00  0.00    +0.035 C 
ATOM     26  C   UNL     1      46.977  13.016  21.934  0.00  0.00    +0.032 C 
ATOM     27  C   UNL     1      46.224  15.080  20.806  0.00  0.00    -0.007 C 
ATOM     28  C   UNL     1      46.833  15.762  21.978  0.00  0.00    +0.024 C 
ATOM     29  C   UNL     1      46.900  17.266  21.938  0.00  0.00    +0.011 C 
ATOM     30  C   UNL     1      47.305  17.916  20.637  0.00  0.00    +0.005 C 
ATOM     31  C   UNL     1      46.777  19.365  20.687  0.00  0.00    +0.013 C 
ATOM     32  C   UNL     1      50.766  18.679  19.012  0.00  0.00    +0.016 C 
ATOM     33  C   UNL     1      51.065  19.353  17.676  0.00  0.00    -0.021 C 
ATOM     34  C   UNL     1      52.473  19.077  17.163  0.00  0.00    +0.013 C 
ENDROOT
BRANCH  19  20
ATOM     20  O   UNL     1      47.929  12.916  19.415  0.00  0.00    -0.336 OA
BRANCH  20  21
ATOM     21  C   UNL     1      48.475  12.062  18.534  0.00  0.00    +0.455 C 
ATOM     22  C   UNL     1      49.434  12.571  17.489  0.00  0.00    +0.149 C 
ATOM     23  O   UNL     1      48.197  10.888  18.580  0.00  0.00    -0.516 OA
ENDBRANCH  20  21
ENDBRANCH  19  20
TORSDOF 2
ENDMDL
MODEL 9
REMARK VINA RESULT:      -5.5      2.963      6.212
REMARK  Name = ZINC95485937
REMARK  10 active torsions:
REMARK  status: ('A' for Active; 'I' for Inactive)
REMARK    1  A    between atoms: C1_1  and  C2_2
REMARK    2  A    between atoms: C5_6  and  C32_40
REMARK    3  A    between atoms: C8_9  and  C31_39
REMARK    4  A    between atoms: C11_14  and  C12_16
REMARK    5  A    between atoms: C16_20  and  C30_38
REMARK    6  A    between atoms: C24_29  and  O1_34
REMARK    7  A    between atoms: C25_31  and  C26_32
REMARK    8  A    between atoms: C25_31  and  C27_33
REMARK    9  A    between atoms: O1_34  and  C28_35
REMARK   10  A    between atoms: C28_35  and  C29_37
REMARK                            x       y       z     vdW  Elec       q    Type
REMARK                         _______ _______ _______ _____ _____    ______ ____
ROOT
ATOM      1  C   UNL     1      52.187  20.405  15.689  0.00  0.00    +0.007 C 
ATOM      2  C   UNL     1      51.059  20.218  16.710  0.00  0.00    -0.015 C 
ATOM      3  C   UNL     1      50.759  21.557  17.377  0.00  0.00    +0.004 C 
ATOM      4  C   UNL     1      49.677  21.381  18.440  0.00  0.00    +0.013 C 
ATOM      5  C   UNL     1      50.142  20.391  19.506  0.00  0.00    -0.043 C 
ATOM      6  C   UNL     1      51.353  20.981  20.245  0.00  0.00    +0.014 C 
ATOM      7  C   UNL     1      49.045  20.247  20.568  0.00  0.00    +0.005 C 
ATOM      8  C   UNL     1      47.797  19.603  19.978  0.00  0.00    +0.011 C 
ATOM      9  C   UNL     1      48.135  18.222  19.412  0.00  0.00    -0.023 C 
ATOM     10  C   UNL     1      48.696  17.349  20.543  0.00  0.00    +0.024 C 
ATOM     11  C   UNL     1      49.203  18.370  18.332  0.00  0.00    +0.006 C 
ATOM     12  C   UNL     1      49.567  16.997  17.768  0.00  0.00    +0.010 C 
ATOM     13  C   UNL     1      48.342  16.341  17.135  0.00  0.00    +0.038 C 
ATOM     14  C   UNL     1      47.187  16.272  18.143  0.00  0.00    -0.080 C 
ATOM     15  C   UNL     1      46.006  15.407  17.667  0.00  0.00    -0.012 C 
ATOM     16  C   UNL     1      46.903  14.934  18.832  0.00  0.00    -0.063 C 
ATOM     17  C   UNL     1      47.913  13.835  18.502  0.00  0.00    +0.055 C 
ATOM     18  C   UNL     1      47.706  12.557  19.273  0.00  0.00    +0.010 C 
ATOM     19  C   UNL     1      47.473  12.788  20.748  0.00  0.00    +0.190 C 
ATOM     24  C   UNL     1      46.290  13.693  21.017  0.00  0.00    -0.027 C 
ATOM     25  C   UNL     1      45.008  12.886  20.777  0.00  0.00    +0.035 C 
ATOM     26  C   UNL     1      46.325  14.079  22.496  0.00  0.00    +0.032 C 
ATOM     27  C   UNL     1      46.224  14.915  20.173  0.00  0.00    -0.007 C 
ATOM     28  C   UNL     1      45.892  16.213  20.816  0.00  0.00    +0.024 C 
ATOM     29  C   UNL     1      45.807  17.421  19.919  0.00  0.00    +0.011 C 
ATOM     30  C   UNL     1      46.863  17.577  18.851  0.00  0.00    +0.005 C 
ATOM     31  C   UNL     1      46.267  18.513  17.779  0.00  0.00    +0.013 C 
ATOM     32  C   UNL     1      50.473  19.047  18.878  0.00  0.00    +0.016 C 
ATOM     33  C   UNL     1      51.466  19.160  17.725  0.00  0.00    -0.021 C 
ATOM     34  C   UNL     1      52.906  19.353  18.185  0.00  0.00    +0.013 C 
ENDROOT
BRANCH  19  20
ATOM     20  O   UNL     1      48.645  13.378  21.317  0.00  0.00    -0.336 OA
BRANCH  20  21
ATOM     21  C   UNL     1      49.662  12.553  21.611  0.00  0.00    +0.455 C 
ATOM     22  C   UNL     1      49.405  11.081  21.807  0.00  0.00    +0.149 C 
ATOM     23  O   UNL     1      50.782  12.991  21.717  0.00  0.00    -0.516 OA
ENDBRANCH  20  21
ENDBRANCH  19  20
TORSDOF 2
ENDMDL
