MODEL 1
REMARK VINA RESULT:      -4.9      0.000      0.000
REMARK  Name = ZINC00057733
REMARK  3 active torsions:
REMARK  status: ('A' for Active; 'I' for Inactive)
REMARK    1  A    between atoms: C1_1  and  O1_2
REMARK    2  A    between atoms: O1_2  and  C2_3
REMARK    3  A    between atoms: C10_13  and  O4_14
REMARK                            x       y       z     vdW  Elec       q    Type
REMARK                         _______ _______ _______ _____ _____    ______ ____
ROOT
ATOM      3  C   UNL     1      45.026  22.202  20.222  0.00  0.00    +0.087 A 
ATOM      4  C   UNL     1      44.363  21.004  20.062  0.00  0.00    +0.012 A 
ATOM      5  C   UNL     1      43.059  20.997  19.552  0.00  0.00    -0.128 A 
ATOM      6  C   UNL     1      42.329  19.740  19.371  0.00  0.00    +0.152 A 
ATOM      7  C   UNL     1      41.066  19.797  18.873  0.00  0.00    -0.070 A 
ATOM      8  C   UNL     1      40.497  21.045  18.547  0.00  0.00    +0.506 A 
ATOM      9  O   UNL     1      41.172  22.193  18.716  0.00  0.00    -0.267 OA
ATOM     10  O   UNL     1      39.364  21.083  18.102  0.00  0.00    -0.460 OA
ATOM     11  C   UNL     1      42.430  22.207  19.206  0.00  0.00    +0.129 A 
ATOM     12  C   UNL     1      43.110  23.404  19.373  0.00  0.00    +0.034 A 
ATOM     13  C   UNL     1      44.397  23.404  19.883  0.00  0.00    +0.140 A 
ENDROOT
BRANCH   3   2
ATOM      1  C   UNL     1      46.437  22.089  22.133  0.00  0.00    +0.245 C 
ATOM      2  O   UNL     1      46.293  22.215  20.717  0.00  0.00    -0.302 OA
ENDBRANCH   3   2
BRANCH  13  14
ATOM     14  O   UNL     1      45.056  24.579  20.049  0.00  0.00    -0.477 OA
ATOM     15  H   UNL     1      45.583  24.625  20.858  0.00  0.00    +0.399 HD
ENDBRANCH  13  14
TORSDOF 2
ENDMDL
MODEL 2
REMARK VINA RESULT:      -4.7      1.721      4.551
REMARK  Name = ZINC00057733
REMARK  3 active torsions:
REMARK  status: ('A' for Active; 'I' for Inactive)
REMARK    1  A    between atoms: C1_1  and  O1_2
REMARK    2  A    between atoms: O1_2  and  C2_3
REMARK    3  A    between atoms: C10_13  and  O4_14
REMARK                            x       y       z     vdW  Elec       q    Type
REMARK                         _______ _______ _______ _____ _____    ______ ____
ROOT
ATOM      3  C   UNL     1      41.808  21.697  18.895  0.00  0.00    +0.087 A 
ATOM      4  C   UNL     1      42.030  20.388  19.266  0.00  0.00    +0.012 A 
ATOM      5  C   UNL     1      43.189  20.057  19.978  0.00  0.00    -0.128 A 
ATOM      6  C   UNL     1      43.453  18.675  20.386  0.00  0.00    +0.152 A 
ATOM      7  C   UNL     1      44.595  18.416  21.075  0.00  0.00    -0.070 A 
ATOM      8  C   UNL     1      45.485  19.466  21.376  0.00  0.00    +0.506 A 
ATOM      9  O   UNL     1      45.237  20.731  21.000  0.00  0.00    -0.267 OA
ATOM     10  O   UNL     1      46.506  19.221  21.994  0.00  0.00    -0.460 OA
ATOM     11  C   UNL     1      44.122  21.056  20.313  0.00  0.00    +0.129 A 
ATOM     12  C   UNL     1      43.883  22.369  19.932  0.00  0.00    +0.034 A 
ATOM     13  C   UNL     1      42.739  22.688  19.223  0.00  0.00    +0.140 A 
ENDROOT
BRANCH   3   2
ATOM      1  C   UNL     1      39.460  21.426  18.633  0.00  0.00    +0.245 C 
ATOM      2  O   UNL     1      40.684  22.024  18.202  0.00  0.00    -0.302 OA
ENDBRANCH   3   2
BRANCH  13  14
ATOM     14  O   UNL     1      42.514  23.973  18.849  0.00  0.00    -0.477 OA
ATOM     15  H   UNL     1      42.825  24.185  17.959  0.00  0.00    +0.399 HD
ENDBRANCH  13  14
TORSDOF 2
ENDMDL
MODEL 3
REMARK VINA RESULT:      -4.7      3.125      5.501
REMARK  Name = ZINC00057733
REMARK  3 active torsions:
REMARK  status: ('A' for Active; 'I' for Inactive)
REMARK    1  A    between atoms: C1_1  and  O1_2
REMARK    2  A    between atoms: O1_2  and  C2_3
REMARK    3  A    between atoms: C10_13  and  O4_14
REMARK                            x       y       z     vdW  Elec       q    Type
REMARK                         _______ _______ _______ _____ _____    ______ ____
ROOT
ATOM      3  C   UNL     1      41.282  20.097  19.850  0.00  0.00    +0.087 A 
ATOM      4  C   UNL     1      42.352  20.183  18.984  0.00  0.00    +0.012 A 
ATOM      5  C   UNL     1      43.519  19.458  19.254  0.00  0.00    -0.128 A 
ATOM      6  C   UNL     1      44.673  19.530  18.354  0.00  0.00    +0.152 A 
ATOM      7  C   UNL     1      45.778  18.804  18.669  0.00  0.00    -0.070 A 
ATOM      8  C   UNL     1      45.789  18.013  19.835  0.00  0.00    +0.506 A 
ATOM      9  O   UNL     1      44.728  17.952  20.655  0.00  0.00    -0.267 OA
ATOM     10  O   UNL     1      46.785  17.367  20.106  0.00  0.00    -0.460 OA
ATOM     11  C   UNL     1      43.599  18.648  20.401  0.00  0.00    +0.129 A 
ATOM     12  C   UNL     1      42.513  18.572  21.261  0.00  0.00    +0.034 A 
ATOM     13  C   UNL     1      41.365  19.295  20.992  0.00  0.00    +0.140 A 
ENDROOT
BRANCH   3   2
ATOM      1  C   UNL     1      40.082  21.499  18.349  0.00  0.00    +0.245 C 
ATOM      2  O   UNL     1      40.145  20.799  19.593  0.00  0.00    -0.302 OA
ENDBRANCH   3   2
BRANCH  13  14
ATOM     14  O   UNL     1      40.307  19.221  21.840  0.00  0.00    -0.477 OA
ATOM     15  H   UNL     1      39.865  20.066  21.994  0.00  0.00    +0.399 HD
ENDBRANCH  13  14
TORSDOF 2
ENDMDL
MODEL 4
REMARK VINA RESULT:      -4.6      2.336      4.965
REMARK  Name = ZINC00057733
REMARK  3 active torsions:
REMARK  status: ('A' for Active; 'I' for Inactive)
REMARK    1  A    between atoms: C1_1  and  O1_2
REMARK    2  A    between atoms: O1_2  and  C2_3
REMARK    3  A    between atoms: C10_13  and  O4_14
REMARK                            x       y       z     vdW  Elec       q    Type
REMARK                         _______ _______ _______ _____ _____    ______ ____
ROOT
ATOM      3  C   UNL     1      42.810  21.053  19.221  0.00  0.00    +0.087 A 
ATOM      4  C   UNL     1      43.426  19.893  18.801  0.00  0.00    +0.012 A 
ATOM      5  C   UNL     1      44.824  19.812  18.803  0.00  0.00    -0.128 A 
ATOM      6  C   UNL     1      45.507  18.594  18.361  0.00  0.00    +0.152 A 
ATOM      7  C   UNL     1      46.866  18.575  18.385  0.00  0.00    -0.070 A 
ATOM      8  C   UNL     1      47.575  19.710  18.827  0.00  0.00    +0.506 A 
ATOM      9  O   UNL     1      46.942  20.824  19.230  0.00  0.00    -0.267 OA
ATOM     10  O   UNL     1      48.792  19.682  18.844  0.00  0.00    -0.460 OA
ATOM     11  C   UNL     1      45.595  20.908  19.231  0.00  0.00    +0.129 A 
ATOM     12  C   UNL     1      44.959  22.068  19.651  0.00  0.00    +0.034 A 
ATOM     13  C   UNL     1      43.578  22.143  19.641  0.00  0.00    +0.140 A 
ENDROOT
BRANCH   3   2
ATOM      1  C   UNL     1      40.753  20.347  18.258  0.00  0.00    +0.245 C 
ATOM      2  O   UNL     1      41.453  21.137  19.221  0.00  0.00    -0.302 OA
ENDBRANCH   3   2
BRANCH  13  14
ATOM     14  O   UNL     1      42.962  23.282  20.049  0.00  0.00    -0.477 OA
ATOM     15  H   UNL     1      42.226  23.136  20.658  0.00  0.00    +0.399 HD
ENDBRANCH  13  14
TORSDOF 2
ENDMDL
MODEL 5
REMARK VINA RESULT:      -4.5     14.933     16.826
REMARK  Name = ZINC00057733
REMARK  3 active torsions:
REMARK  status: ('A' for Active; 'I' for Inactive)
REMARK    1  A    between atoms: C1_1  and  O1_2
REMARK    2  A    between atoms: O1_2  and  C2_3
REMARK    3  A    between atoms: C10_13  and  O4_14
REMARK                            x       y       z     vdW  Elec       q    Type
REMARK                         _______ _______ _______ _____ _____    ______ ____
ROOT
ATOM      3  C   UNL     1      35.128  33.384   8.750  0.00  0.00    +0.087 A 
ATOM      4  C   UNL     1      35.784  34.182   9.663  0.00  0.00    +0.012 A 
ATOM      5  C   UNL     1      36.188  33.642  10.890  0.00  0.00    -0.128 A 
ATOM      6  C   UNL     1      36.886  34.466  11.881  0.00  0.00    +0.152 A 
ATOM      7  C   UNL     1      37.253  33.885  13.054  0.00  0.00    -0.070 A 
ATOM      8  C   UNL     1      36.959  32.527  13.286  0.00  0.00    +0.506 A 
ATOM      9  O   UNL     1      36.319  31.778  12.374  0.00  0.00    -0.267 OA
ATOM     10  O   UNL     1      37.293  32.019  14.341  0.00  0.00    -0.460 OA
ATOM     11  C   UNL     1      35.926  32.292  11.189  0.00  0.00    +0.129 A 
ATOM     12  C   UNL     1      35.266  31.503  10.259  0.00  0.00    +0.034 A 
ATOM     13  C   UNL     1      34.864  32.044   9.051  0.00  0.00    +0.140 A 
ENDROOT
BRANCH   3   2
ATOM      1  C   UNL     1      35.701  34.655   6.824  0.00  0.00    +0.245 C 
ATOM      2  O   UNL     1      34.732  33.902   7.557  0.00  0.00    -0.302 OA
ENDBRANCH   3   2
BRANCH  13  14
ATOM     14  O   UNL     1      34.214  31.267   8.147  0.00  0.00    -0.477 OA
ATOM     15  H   UNL     1      33.499  31.720   7.679  0.00  0.00    +0.399 HD
ENDBRANCH  13  14
TORSDOF 2
ENDMDL
MODEL 6
REMARK VINA RESULT:      -4.5      2.398      5.670
REMARK  Name = ZINC00057733
REMARK  3 active torsions:
REMARK  status: ('A' for Active; 'I' for Inactive)
REMARK    1  A    between atoms: C1_1  and  O1_2
REMARK    2  A    between atoms: O1_2  and  C2_3
REMARK    3  A    between atoms: C10_13  and  O4_14
REMARK                            x       y       z     vdW  Elec       q    Type
REMARK                         _______ _______ _______ _____ _____    ______ ____
ROOT
ATOM      3  C   UNL     1      44.418  22.356  20.066  0.00  0.00    +0.087 A 
ATOM      4  C   UNL     1      45.276  21.614  19.281  0.00  0.00    +0.012 A 
ATOM      5  C   UNL     1      46.564  21.324  19.747  0.00  0.00    -0.128 A 
ATOM      6  C   UNL     1      47.498  20.539  18.937  0.00  0.00    +0.152 A 
ATOM      7  C   UNL     1      48.735  20.290  19.443  0.00  0.00    -0.070 A 
ATOM      8  C   UNL     1      49.084  20.786  20.715  0.00  0.00    +0.506 A 
ATOM      9  O   UNL     1      48.223  21.505  21.452  0.00  0.00    -0.267 OA
ATOM     10  O   UNL     1      50.196  20.556  21.157  0.00  0.00    -0.460 OA
ATOM     11  C   UNL     1      46.980  21.788  21.009  0.00  0.00    +0.129 A 
ATOM     12  C   UNL     1      46.105  22.533  21.786  0.00  0.00    +0.034 A 
ATOM     13  C   UNL     1      44.835  22.821  21.317  0.00  0.00    +0.140 A 
ENDROOT
BRANCH   3   2
ATOM      1  C   UNL     1      42.366  21.540  19.184  0.00  0.00    +0.245 C 
ATOM      2  O   UNL     1      43.166  22.641  19.618  0.00  0.00    -0.302 OA
ENDBRANCH   3   2
BRANCH  13  14
ATOM     14  O   UNL     1      43.985  23.554  22.080  0.00  0.00    -0.477 OA
ATOM     15  H   UNL     1      43.123  23.139  22.219  0.00  0.00    +0.399 HD
ENDBRANCH  13  14
TORSDOF 2
ENDMDL
MODEL 7
REMARK VINA RESULT:      -4.5     20.361     21.779
REMARK  Name = ZINC00057733
REMARK  3 active torsions:
REMARK  status: ('A' for Active; 'I' for Inactive)
REMARK    1  A    between atoms: C1_1  and  O1_2
REMARK    2  A    between atoms: O1_2  and  C2_3
REMARK    3  A    between atoms: C10_13  and  O4_14
REMARK                            x       y       z     vdW  Elec       q    Type
REMARK                         _______ _______ _______ _____ _____    ______ ____
ROOT
ATOM      3  C   UNL     1      51.985  33.457   5.618  0.00  0.00    +0.087 A 
ATOM      4  C   UNL     1      53.276  33.014   5.418  0.00  0.00    +0.012 A 
ATOM      5  C   UNL     1      53.669  32.583   4.146  0.00  0.00    -0.128 A 
ATOM      6  C   UNL     1      55.033  32.106   3.902  0.00  0.00    +0.152 A 
ATOM      7  C   UNL     1      55.356  31.700   2.646  0.00  0.00    -0.070 A 
ATOM      8  C   UNL     1      54.387  31.744   1.623  0.00  0.00    +0.506 A 
ATOM      9  O   UNL     1      53.138  32.181   1.854  0.00  0.00    -0.267 OA
ATOM     10  O   UNL     1      54.688  31.377   0.502  0.00  0.00    -0.460 OA
ATOM     11  C   UNL     1      52.752  32.600   3.079  0.00  0.00    +0.129 A 
ATOM     12  C   UNL     1      51.458  33.048   3.297  0.00  0.00    +0.034 A 
ATOM     13  C   UNL     1      51.074  33.468   4.558  0.00  0.00    +0.140 A 
ENDROOT
BRANCH   3   2
ATOM      1  C   UNL     1      52.236  35.046   7.370  0.00  0.00    +0.245 C 
ATOM      2  O   UNL     1      51.597  33.877   6.852  0.00  0.00    -0.302 OA
ENDBRANCH   3   2
BRANCH  13  14
ATOM     14  O   UNL     1      49.804  33.901   4.767  0.00  0.00    -0.477 OA
ATOM     15  H   UNL     1      49.416  34.362   4.011  0.00  0.00    +0.399 HD
ENDBRANCH  13  14
TORSDOF 2
ENDMDL
MODEL 8
REMARK VINA RESULT:      -4.4     20.371     22.099
REMARK  Name = ZINC00057733
REMARK  3 active torsions:
REMARK  status: ('A' for Active; 'I' for Inactive)
REMARK    1  A    between atoms: C1_1  and  O1_2
REMARK    2  A    between atoms: O1_2  and  C2_3
REMARK    3  A    between atoms: C10_13  and  O4_14
REMARK                            x       y       z     vdW  Elec       q    Type
REMARK                         _______ _______ _______ _____ _____    ______ ____
ROOT
ATOM      3  C   UNL     1      52.777  33.167   5.583  0.00  0.00    +0.087 A 
ATOM      4  C   UNL     1      53.412  32.502   4.556  0.00  0.00    +0.012 A 
ATOM      5  C   UNL     1      54.810  32.501   4.491  0.00  0.00    -0.128 A 
ATOM      6  C   UNL     1      55.513  31.805   3.411  0.00  0.00    +0.152 A 
ATOM      7  C   UNL     1      56.872  31.841   3.401  0.00  0.00    -0.070 A 
ATOM      8  C   UNL     1      57.562  32.537   4.413  0.00  0.00    +0.506 A 
ATOM      9  O   UNL     1      56.911  33.174   5.400  0.00  0.00    -0.267 OA
ATOM     10  O   UNL     1      58.779  32.562   4.393  0.00  0.00    -0.460 OA
ATOM     11  C   UNL     1      55.563  33.177   5.469  0.00  0.00    +0.129 A 
ATOM     12  C   UNL     1      54.909  33.841   6.496  0.00  0.00    +0.034 A 
ATOM     13  C   UNL     1      53.526  33.842   6.551  0.00  0.00    +0.140 A 
ENDROOT
BRANCH   3   2
ATOM      1  C   UNL     1      50.712  33.613   4.491  0.00  0.00    +0.245 C 
ATOM      2  O   UNL     1      51.419  33.171   5.651  0.00  0.00    -0.302 OA
ENDBRANCH   3   2
BRANCH  13  14
ATOM     14  O   UNL     1      52.892  34.498   7.557  0.00  0.00    -0.477 OA
ATOM     15  H   UNL     1      53.451  35.130   8.029  0.00  0.00    +0.399 HD
ENDBRANCH  13  14
TORSDOF 2
ENDMDL
MODEL 9
REMARK VINA RESULT:      -4.4      2.809      3.744
REMARK  Name = ZINC00057733
REMARK  3 active torsions:
REMARK  status: ('A' for Active; 'I' for Inactive)
REMARK    1  A    between atoms: C1_1  and  O1_2
REMARK    2  A    between atoms: O1_2  and  C2_3
REMARK    3  A    between atoms: C10_13  and  O4_14
REMARK                            x       y       z     vdW  Elec       q    Type
REMARK                         _______ _______ _______ _____ _____    ______ ____
ROOT
ATOM      3  C   UNL     1      44.777  17.980  20.108  0.00  0.00    +0.087 A 
ATOM      4  C   UNL     1      43.492  18.107  20.591  0.00  0.00    +0.012 A 
ATOM      5  C   UNL     1      42.642  19.077  20.047  0.00  0.00    -0.128 A 
ATOM      6  C   UNL     1      41.271  19.237  20.540  0.00  0.00    +0.152 A 
ATOM      7  C   UNL     1      40.493  20.197  19.973  0.00  0.00    -0.070 A 
ATOM      8  C   UNL     1      41.014  21.002  18.941  0.00  0.00    +0.506 A 
ATOM      9  O   UNL     1      42.272  20.850  18.495  0.00  0.00    -0.267 OA
ATOM     10  O   UNL     1      40.307  21.859  18.441  0.00  0.00    -0.460 OA
ATOM     11  C   UNL     1      43.097  19.917  19.014  0.00  0.00    +0.129 A 
ATOM     12  C   UNL     1      44.392  19.775  18.539  0.00  0.00    +0.034 A 
ATOM     13  C   UNL     1      45.230  18.818  19.085  0.00  0.00    +0.140 A 
ENDROOT
BRANCH   3   2
ATOM      1  C   UNL     1      45.278  15.671  20.386  0.00  0.00    +0.245 C 
ATOM      2  O   UNL     1      45.608  17.040  20.633  0.00  0.00    -0.302 OA
ENDBRANCH   3   2
BRANCH  13  14
ATOM     14  O   UNL     1      46.498  18.688  18.619  0.00  0.00    -0.477 OA
ATOM     15  H   UNL     1      46.800  19.435  18.084  0.00  0.00    +0.399 HD
ENDBRANCH  13  14
TORSDOF 2
ENDMDL
