MODEL 1
REMARK VINA RESULT:      -7.8      0.000      0.000
REMARK  Name = ZINC95486201
REMARK  9 active torsions:
REMARK  status: ('A' for Active; 'I' for Inactive)
REMARK    1  A    between atoms: C1_1  and  C2_2
REMARK    2  A    between atoms: C3_3  and  O3_33
REMARK    3  A    between atoms: C11_12  and  C29_32
REMARK    4  A    between atoms: C14_15  and  C28_31
REMARK    5  A    between atoms: C15_16  and  C27_30
REMARK    6  A    between atoms: C18_19  and  C26_29
REMARK    7  A    between atoms: C21_23  and  C24_26
REMARK    8  A    between atoms: C21_23  and  C25_27
REMARK    9  A    between atoms: C25_27  and  O2_28
REMARK                            x       y       z     vdW  Elec       q    Type
REMARK                         _______ _______ _______ _____ _____    ______ ____
ROOT
ATOM      1  C   UNL     1      41.155  18.373  21.002  0.00  0.00    +0.107 C 
ATOM      2  C   UNL     1      42.023  19.471  20.440  0.00  0.00    -0.070 C 
ATOM      3  C   UNL     1      41.427  20.529  19.826  0.00  0.00    +0.009 C 
ATOM      6  C   UNL     1      42.219  21.576  19.300  0.00  0.00    +0.380 C 
ATOM      7  C   UNL     1      43.616  21.553  19.473  0.00  0.00    -0.111 C 
ATOM      8  C   UNL     1      44.215  20.500  20.088  0.00  0.00    +0.026 C 
ATOM      9  C   UNL     1      45.706  20.543  20.305  0.00  0.00    +0.002 C 
ATOM     10  C   UNL     1      45.918  21.541  21.449  0.00  0.00    +0.069 C 
ATOM     11  C   UNL     1      46.386  21.094  19.055  0.00  0.00    +0.044 C 
ATOM     12  C   UNL     1      47.899  20.891  19.075  0.00  0.00    +0.026 C 
ATOM     13  C   UNL     1      48.254  19.414  19.272  0.00  0.00    -0.028 C 
ATOM     14  C   UNL     1      47.500  18.628  18.192  0.00  0.00    +0.024 C 
ATOM     15  C   UNL     1      47.758  18.977  20.657  0.00  0.00    -0.015 C 
ATOM     16  C   UNL     1      48.439  19.782  21.767  0.00  0.00    +0.045 C 
ATOM     17  C   UNL     1      48.099  17.503  20.869  0.00  0.00    +0.026 C 
ATOM     18  C   UNL     1      49.615  17.312  20.844  0.00  0.00    +0.018 C 
ATOM     19  C   UNL     1      50.219  17.795  19.527  0.00  0.00    -0.045 C 
ATOM     20  C   UNL     1      49.943  16.760  18.439  0.00  0.00    +0.024 C 
ATOM     21  C   UNL     1      51.750  17.887  19.704  0.00  0.00    +0.010 C 
ATOM     22  C   UNL     1      52.408  18.312  18.400  0.00  0.00    +0.022 C 
ATOM     23  C   UNL     1      51.835  19.601  17.826  0.00  0.00    -0.050 C 
ATOM     27  C   UNL     1      52.344  20.801  18.631  0.00  0.00    +0.028 C 
ATOM     28  C   UNL     1      50.307  19.599  17.804  0.00  0.00    +0.027 C 
ATOM     29  C   UNL     1      49.749  19.197  19.165  0.00  0.00    +0.014 C 
ATOM     30  C   UNL     1      46.260  19.202  20.684  0.00  0.00    -0.000 C 
ATOM     31  C   UNL     1      45.466  18.186  21.045  0.00  0.00    -0.052 C 
ATOM     32  C   UNL     1      44.067  18.274  21.041  0.00  0.00    +0.152 C 
ATOM     33  O   UNL     1      41.691  22.501  18.700  0.00  0.00    -0.489 OA
ATOM     34  C   UNL     1      43.433  19.407  20.529  0.00  0.00    -0.107 C 
ENDROOT
BRANCH   3   4
ATOM      4  O   UNL     1      40.072  20.577  19.722  0.00  0.00    -0.464 OA
ATOM      5  H   UNL     1      39.608  20.433  20.557  0.00  0.00    +0.402 HD
ENDBRANCH   3   4
BRANCH  23  24
ATOM     24  C   UNL     1      52.335  19.752  16.378  0.00  0.00    +0.166 C 
BRANCH  24  25
ATOM     25  O   UNL     1      52.410  21.139  16.043  0.00  0.00    -0.570 OA
ATOM     26  H   UNL     1      52.409  21.314  15.091  0.00  0.00    +0.378 HD
ENDBRANCH  24  25
ENDBRANCH  23  24
TORSDOF 3
ENDMDL
MODEL 2
REMARK VINA RESULT:      -6.9      4.020      8.453
REMARK  Name = ZINC95486201
REMARK  9 active torsions:
REMARK  status: ('A' for Active; 'I' for Inactive)
REMARK    1  A    between atoms: C1_1  and  C2_2
REMARK    2  A    between atoms: C3_3  and  O3_33
REMARK    3  A    between atoms: C11_12  and  C29_32
REMARK    4  A    between atoms: C14_15  and  C28_31
REMARK    5  A    between atoms: C15_16  and  C27_30
REMARK    6  A    between atoms: C18_19  and  C26_29
REMARK    7  A    between atoms: C21_23  and  C24_26
REMARK    8  A    between atoms: C21_23  and  C25_27
REMARK    9  A    between atoms: C25_27  and  O2_28
REMARK                            x       y       z     vdW  Elec       q    Type
REMARK                         _______ _______ _______ _____ _____    ______ ____
ROOT
ATOM      1  C   UNL     1      51.099  13.569  14.882  0.00  0.00    +0.107 C 
ATOM      2  C   UNL     1      49.760  13.230  15.487  0.00  0.00    -0.070 C 
ATOM      3  C   UNL     1      49.037  12.209  14.951  0.00  0.00    +0.009 C 
ATOM      6  C   UNL     1      47.783  11.866  15.507  0.00  0.00    +0.380 C 
ATOM      7  C   UNL     1      47.318  12.536  16.654  0.00  0.00    -0.111 C 
ATOM      8  C   UNL     1      48.037  13.554  17.194  0.00  0.00    +0.026 C 
ATOM      9  C   UNL     1      47.531  14.206  18.456  0.00  0.00    +0.002 C 
ATOM     10  C   UNL     1      47.816  13.196  19.573  0.00  0.00    +0.069 C 
ATOM     11  C   UNL     1      46.022  14.401  18.358  0.00  0.00    +0.044 C 
ATOM     12  C   UNL     1      45.477  15.317  19.451  0.00  0.00    +0.026 C 
ATOM     13  C   UNL     1      46.195  16.671  19.443  0.00  0.00    -0.028 C 
ATOM     14  C   UNL     1      46.091  17.219  18.014  0.00  0.00    +0.024 C 
ATOM     15  C   UNL     1      47.671  16.439  19.791  0.00  0.00    -0.015 C 
ATOM     16  C   UNL     1      47.821  15.830  21.188  0.00  0.00    +0.045 C 
ATOM     17  C   UNL     1      48.405  17.779  19.781  0.00  0.00    +0.026 C 
ATOM     18  C   UNL     1      47.819  18.698  20.854  0.00  0.00    +0.018 C 
ATOM     19  C   UNL     1      46.325  18.929  20.640  0.00  0.00    -0.045 C 
ATOM     20  C   UNL     1      46.129  19.924  19.499  0.00  0.00    +0.024 C 
ATOM     21  C   UNL     1      45.748  19.569  21.921  0.00  0.00    +0.010 C 
ATOM     22  C   UNL     1      44.268  19.871  21.740  0.00  0.00    +0.022 C 
ATOM     23  C   UNL     1      43.453  18.659  21.307  0.00  0.00    -0.050 C 
ATOM     27  C   UNL     1      43.253  17.714  22.496  0.00  0.00    +0.028 C 
ATOM     28  C   UNL     1      44.102  17.907  20.146  0.00  0.00    +0.027 C 
ATOM     29  C   UNL     1      45.570  17.622  20.443  0.00  0.00    +0.014 C 
ATOM     30  C   UNL     1      48.234  15.500  18.743  0.00  0.00    -0.000 C 
ATOM     31  C   UNL     1      49.349  15.857  18.094  0.00  0.00    -0.052 C 
ATOM     32  C   UNL     1      49.910  15.090  17.065  0.00  0.00    +0.152 C 
ATOM     33  O   UNL     1      47.106  10.986  14.995  0.00  0.00    -0.489 OA
ATOM     34  C   UNL     1      49.245  13.963  16.582  0.00  0.00    -0.107 C 
ENDROOT
BRANCH   3   4
ATOM      4  O   UNL     1      49.524  11.522  13.884  0.00  0.00    -0.464 OA
ATOM      5  H   UNL     1      50.340  11.037  14.067  0.00  0.00    +0.402 HD
ENDBRANCH   3   4
BRANCH  23  24
ATOM     24  C   UNL     1      42.067  19.146  20.848  0.00  0.00    +0.166 C 
BRANCH  24  25
ATOM     25  O   UNL     1      41.195  19.234  21.977  0.00  0.00    -0.570 OA
ATOM     26  H   UNL     1      41.494  19.854  22.656  0.00  0.00    +0.378 HD
ENDBRANCH  24  25
ENDBRANCH  23  24
TORSDOF 3
ENDMDL
MODEL 3
REMARK VINA RESULT:      -6.8      3.965      5.286
REMARK  Name = ZINC95486201
REMARK  9 active torsions:
REMARK  status: ('A' for Active; 'I' for Inactive)
REMARK    1  A    between atoms: C1_1  and  C2_2
REMARK    2  A    between atoms: C3_3  and  O3_33
REMARK    3  A    between atoms: C11_12  and  C29_32
REMARK    4  A    between atoms: C14_15  and  C28_31
REMARK    5  A    between atoms: C15_16  and  C27_30
REMARK    6  A    between atoms: C18_19  and  C26_29
REMARK    7  A    between atoms: C21_23  and  C24_26
REMARK    8  A    between atoms: C21_23  and  C25_27
REMARK    9  A    between atoms: C25_27  and  O2_28
REMARK                            x       y       z     vdW  Elec       q    Type
REMARK                         _______ _______ _______ _____ _____    ______ ____
ROOT
ATOM      1  C   UNL     1      42.729  17.403  22.131  0.00  0.00    +0.107 C 
ATOM      2  C   UNL     1      43.646  17.855  21.023  0.00  0.00    -0.070 C 
ATOM      3  C   UNL     1      43.398  19.044  20.411  0.00  0.00    +0.009 C 
ATOM      6  C   UNL     1      44.249  19.495  19.375  0.00  0.00    +0.380 C 
ATOM      7  C   UNL     1      45.389  18.745  19.029  0.00  0.00    -0.111 C 
ATOM      8  C   UNL     1      45.643  17.558  19.640  0.00  0.00    +0.026 C 
ATOM      9  C   UNL     1      46.905  16.816  19.280  0.00  0.00    +0.002 C 
ATOM     10  C   UNL     1      48.037  17.593  19.961  0.00  0.00    +0.069 C 
ATOM     11  C   UNL     1      47.119  16.877  17.771  0.00  0.00    +0.044 C 
ATOM     12  C   UNL     1      48.196  15.908  17.293  0.00  0.00    +0.026 C 
ATOM     13  C   UNL     1      47.881  14.474  17.732  0.00  0.00    -0.028 C 
ATOM     14  C   UNL     1      46.458  14.165  17.250  0.00  0.00    +0.024 C 
ATOM     15  C   UNL     1      47.921  14.417  19.265  0.00  0.00    -0.015 C 
ATOM     16  C   UNL     1      49.310  14.783  19.795  0.00  0.00    +0.045 C 
ATOM     17  C   UNL     1      47.602  12.994  19.721  0.00  0.00    +0.026 C 
ATOM     18  C   UNL     1      48.669  12.032  19.199  0.00  0.00    +0.018 C 
ATOM     19  C   UNL     1      48.763  12.073  17.675  0.00  0.00    -0.045 C 
ATOM     20  C   UNL     1      47.590  11.300  17.078  0.00  0.00    +0.024 C 
ATOM     21  C   UNL     1      50.060  11.350  17.253  0.00  0.00    +0.010 C 
ATOM     22  C   UNL     1      50.175  11.315  15.736  0.00  0.00    +0.022 C 
ATOM     23  C   UNL     1      50.068  12.690  15.091  0.00  0.00    -0.050 C 
ATOM     27  C   UNL     1      51.369  13.470  15.306  0.00  0.00    +0.028 C 
ATOM     28  C   UNL     1      48.884  13.493  15.626  0.00  0.00    +0.027 C 
ATOM     29  C   UNL     1      48.882  13.497  17.151  0.00  0.00    +0.014 C 
ATOM     30  C   UNL     1      46.886  15.399  19.774  0.00  0.00    -0.000 C 
ATOM     31  C   UNL     1      45.973  14.971  20.654  0.00  0.00    -0.052 C 
ATOM     32  C   UNL     1      44.937  15.783  21.134  0.00  0.00    +0.152 C 
ATOM     33  O   UNL     1      43.999  20.536  18.786  0.00  0.00    -0.489 OA
ATOM     34  C   UNL     1      44.739  17.060  20.607  0.00  0.00    -0.107 C 
ENDROOT
BRANCH   3   4
ATOM      4  O   UNL     1      42.333  19.796  20.797  0.00  0.00    -0.464 OA
ATOM      5  H   UNL     1      42.339  20.035  21.733  0.00  0.00    +0.402 HD
ENDBRANCH   3   4
BRANCH  23  24
ATOM     24  C   UNL     1      49.873  12.500  13.575  0.00  0.00    +0.166 C 
BRANCH  24  25
ATOM     25  O   UNL     1      48.595  13.010  13.192  0.00  0.00    -0.570 OA
ATOM     26  H   UNL     1      48.269  12.661  12.351  0.00  0.00    +0.378 HD
ENDBRANCH  24  25
ENDBRANCH  23  24
TORSDOF 3
ENDMDL
MODEL 4
REMARK VINA RESULT:      -6.6      2.211      3.103
REMARK  Name = ZINC95486201
REMARK  9 active torsions:
REMARK  status: ('A' for Active; 'I' for Inactive)
REMARK    1  A    between atoms: C1_1  and  C2_2
REMARK    2  A    between atoms: C3_3  and  O3_33
REMARK    3  A    between atoms: C11_12  and  C29_32
REMARK    4  A    between atoms: C14_15  and  C28_31
REMARK    5  A    between atoms: C15_16  and  C27_30
REMARK    6  A    between atoms: C18_19  and  C26_29
REMARK    7  A    between atoms: C21_23  and  C24_26
REMARK    8  A    between atoms: C21_23  and  C25_27
REMARK    9  A    between atoms: C25_27  and  O2_28
REMARK                            x       y       z     vdW  Elec       q    Type
REMARK                         _______ _______ _______ _____ _____    ______ ____
ROOT
ATOM      1  C   UNL     1      41.141  21.544  18.958  0.00  0.00    +0.107 C 
ATOM      2  C   UNL     1      42.601  21.819  19.212  0.00  0.00    -0.070 C 
ATOM      3  C   UNL     1      43.051  23.100  19.132  0.00  0.00    +0.009 C 
ATOM      6  C   UNL     1      44.415  23.384  19.376  0.00  0.00    +0.380 C 
ATOM      7  C   UNL     1      45.287  22.351  19.768  0.00  0.00    -0.111 C 
ATOM      8  C   UNL     1      44.841  21.071  19.853  0.00  0.00    +0.026 C 
ATOM      9  C   UNL     1      45.793  20.005  20.334  0.00  0.00    +0.002 C 
ATOM     10  C   UNL     1      45.922  20.231  21.844  0.00  0.00    +0.069 C 
ATOM     11  C   UNL     1      47.162  20.220  19.696  0.00  0.00    +0.044 C 
ATOM     12  C   UNL     1      48.092  19.025  19.889  0.00  0.00    +0.026 C 
ATOM     13  C   UNL     1      47.451  17.738  19.360  0.00  0.00    -0.028 C 
ATOM     14  C   UNL     1      47.028  18.015  17.912  0.00  0.00    +0.024 C 
ATOM     15  C   UNL     1      46.205  17.436  20.203  0.00  0.00    -0.015 C 
ATOM     16  C   UNL     1      46.573  17.215  21.673  0.00  0.00    +0.045 C 
ATOM     17  C   UNL     1      45.549  16.156  19.686  0.00  0.00    +0.026 C 
ATOM     18  C   UNL     1      46.509  14.979  19.848  0.00  0.00    +0.018 C 
ATOM     19  C   UNL     1      47.821  15.219  19.105  0.00  0.00    -0.045 C 
ATOM     20  C   UNL     1      47.600  14.998  17.611  0.00  0.00    +0.024 C 
ATOM     21  C   UNL     1      48.846  14.168  19.585  0.00  0.00    +0.010 C 
ATOM     22  C   UNL     1      50.159  14.330  18.833  0.00  0.00    +0.022 C 
ATOM     23  C   UNL     1      50.729  15.739  18.910  0.00  0.00    -0.050 C 
ATOM     27  C   UNL     1      51.337  15.982  20.295  0.00  0.00    +0.028 C 
ATOM     28  C   UNL     1      49.680  16.808  18.607  0.00  0.00    +0.027 C 
ATOM     29  C   UNL     1      48.422  16.578  19.436  0.00  0.00    +0.014 C 
ATOM     30  C   UNL     1      45.274  18.623  20.064  0.00  0.00    -0.000 C 
ATOM     31  C   UNL     1      44.006  18.404  19.697  0.00  0.00    -0.052 C 
ATOM     32  C   UNL     1      43.086  19.438  19.479  0.00  0.00    +0.152 C 
ATOM     33  O   UNL     1      44.835  24.526  19.252  0.00  0.00    -0.489 OA
ATOM     34  C   UNL     1      43.501  20.770  19.515  0.00  0.00    -0.107 C 
ENDROOT
BRANCH   3   4
ATOM      4  O   UNL     1      42.189  24.103  18.818  0.00  0.00    -0.464 OA
ATOM      5  H   UNL     1      42.367  24.523  17.966  0.00  0.00    +0.402 HD
ENDBRANCH   3   4
BRANCH  23  24
ATOM     24  C   UNL     1      51.856  15.864  17.868  0.00  0.00    +0.166 C 
BRANCH  24  25
ATOM     25  O   UNL     1      52.626  17.037  18.137  0.00  0.00    -0.570 OA
ATOM     26  H   UNL     1      52.681  17.263  19.076  0.00  0.00    +0.378 HD
ENDBRANCH  24  25
ENDBRANCH  23  24
TORSDOF 3
ENDMDL
MODEL 5
REMARK VINA RESULT:      -6.4      3.974      7.541
REMARK  Name = ZINC95486201
REMARK  9 active torsions:
REMARK  status: ('A' for Active; 'I' for Inactive)
REMARK    1  A    between atoms: C1_1  and  C2_2
REMARK    2  A    between atoms: C3_3  and  O3_33
REMARK    3  A    between atoms: C11_12  and  C29_32
REMARK    4  A    between atoms: C14_15  and  C28_31
REMARK    5  A    between atoms: C15_16  and  C27_30
REMARK    6  A    between atoms: C18_19  and  C26_29
REMARK    7  A    between atoms: C21_23  and  C24_26
REMARK    8  A    between atoms: C21_23  and  C25_27
REMARK    9  A    between atoms: C25_27  and  O2_28
REMARK                            x       y       z     vdW  Elec       q    Type
REMARK                         _______ _______ _______ _____ _____    ______ ____
ROOT
ATOM      1  C   UNL     1      50.059  12.685  15.143  0.00  0.00    +0.107 C 
ATOM      2  C   UNL     1      48.766  12.866  15.896  0.00  0.00    -0.070 C 
ATOM      3  C   UNL     1      47.747  11.994  15.669  0.00  0.00    +0.009 C 
ATOM      6  C   UNL     1      46.527  12.137  16.370  0.00  0.00    +0.380 C 
ATOM      7  C   UNL     1      46.394  13.139  17.349  0.00  0.00    -0.111 C 
ATOM      8  C   UNL     1      47.410  14.011  17.581  0.00  0.00    +0.026 C 
ATOM      9  C   UNL     1      47.249  15.032  18.679  0.00  0.00    +0.002 C 
ATOM     10  C   UNL     1      47.408  14.247  19.986  0.00  0.00    +0.069 C 
ATOM     11  C   UNL     1      45.838  15.610  18.633  0.00  0.00    +0.044 C 
ATOM     12  C   UNL     1      45.686  16.852  19.507  0.00  0.00    +0.026 C 
ATOM     13  C   UNL     1      46.716  17.922  19.127  0.00  0.00    -0.028 C 
ATOM     14  C   UNL     1      46.574  18.158  17.618  0.00  0.00    +0.024 C 
ATOM     15  C   UNL     1      48.117  17.373  19.425  0.00  0.00    -0.015 C 
ATOM     16  C   UNL     1      48.282  17.061  20.915  0.00  0.00    +0.045 C 
ATOM     17  C   UNL     1      49.158  18.425  19.046  0.00  0.00    +0.026 C 
ATOM     18  C   UNL     1      48.964  19.677  19.901  0.00  0.00    +0.018 C 
ATOM     19  C   UNL     1      47.562  20.259  19.734  0.00  0.00    -0.045 C 
ATOM     20  C   UNL     1      47.482  21.000  18.402  0.00  0.00    +0.024 C 
ATOM     21  C   UNL     1      47.332  21.293  20.857  0.00  0.00    +0.010 C 
ATOM     22  C   UNL     1      45.966  21.944  20.703  0.00  0.00    +0.022 C 
ATOM     23  C   UNL     1      44.824  20.940  20.628  0.00  0.00    -0.050 C 
ATOM     27  C   UNL     1      44.542  20.365  22.020  0.00  0.00    +0.028 C 
ATOM     28  C   UNL     1      45.109  19.807  19.644  0.00  0.00    +0.027 C 
ATOM     29  C   UNL     1      46.483  19.200  19.906  0.00  0.00    +0.014 C 
ATOM     30  C   UNL     1      48.286  16.113  18.601  0.00  0.00    -0.000 C 
ATOM     31  C   UNL     1      49.364  16.001  17.815  0.00  0.00    -0.052 C 
ATOM     32  C   UNL     1      49.580  14.907  16.967  0.00  0.00    +0.152 C 
ATOM     33  O   UNL     1      45.590  11.389  16.129  0.00  0.00    -0.489 OA
ATOM     34  C   UNL     1      48.595  13.930  16.813  0.00  0.00    -0.107 C 
ENDROOT
BRANCH   3   4
ATOM      4  O   UNL     1      47.905  10.986  14.770  0.00  0.00    -0.464 OA
ATOM      5  H   UNL     1      47.274  10.262  14.875  0.00  0.00    +0.402 HD
ENDBRANCH   3   4
BRANCH  23  24
ATOM     24  C   UNL     1      43.559  21.680  20.155  0.00  0.00    +0.166 C 
BRANCH  24  25
ATOM     25  O   UNL     1      43.589  23.027  20.631  0.00  0.00    -0.570 OA
ATOM     26  H   UNL     1      42.714  23.429  20.726  0.00  0.00    +0.378 HD
ENDBRANCH  24  25
ENDBRANCH  23  24
TORSDOF 3
ENDMDL
MODEL 6
REMARK VINA RESULT:      -5.6      3.037      4.552
REMARK  Name = ZINC95486201
REMARK  9 active torsions:
REMARK  status: ('A' for Active; 'I' for Inactive)
REMARK    1  A    between atoms: C1_1  and  C2_2
REMARK    2  A    between atoms: C3_3  and  O3_33
REMARK    3  A    between atoms: C11_12  and  C29_32
REMARK    4  A    between atoms: C14_15  and  C28_31
REMARK    5  A    between atoms: C15_16  and  C27_30
REMARK    6  A    between atoms: C18_19  and  C26_29
REMARK    7  A    between atoms: C21_23  and  C24_26
REMARK    8  A    between atoms: C21_23  and  C25_27
REMARK    9  A    between atoms: C25_27  and  O2_28
REMARK                            x       y       z     vdW  Elec       q    Type
REMARK                         _______ _______ _______ _____ _____    ______ ____
ROOT
ATOM      1  C   UNL     1      43.988  23.368  19.364  0.00  0.00    +0.107 C 
ATOM      2  C   UNL     1      45.094  22.794  20.211  0.00  0.00    -0.070 C 
ATOM      3  C   UNL     1      45.809  23.631  21.012  0.00  0.00    +0.009 C 
ATOM      6  C   UNL     1      46.845  23.115  21.824  0.00  0.00    +0.380 C 
ATOM      7  C   UNL     1      47.089  21.729  21.853  0.00  0.00    -0.111 C 
ATOM      8  C   UNL     1      46.376  20.889  21.059  0.00  0.00    +0.026 C 
ATOM      9  C   UNL     1      46.629  19.406  21.164  0.00  0.00    +0.002 C 
ATOM     10  C   UNL     1      45.972  18.979  22.481  0.00  0.00    +0.069 C 
ATOM     11  C   UNL     1      48.129  19.152  21.270  0.00  0.00    +0.044 C 
ATOM     12  C   UNL     1      48.489  17.681  21.078  0.00  0.00    +0.026 C 
ATOM     13  C   UNL     1      47.947  17.151  19.746  0.00  0.00    -0.028 C 
ATOM     14  C   UNL     1      48.455  18.099  18.652  0.00  0.00    +0.024 C 
ATOM     15  C   UNL     1      46.415  17.203  19.791  0.00  0.00    -0.015 C 
ATOM     16  C   UNL     1      45.865  16.318  20.913  0.00  0.00    +0.045 C 
ATOM     17  C   UNL     1      45.857  16.683  18.467  0.00  0.00    +0.026 C 
ATOM     18  C   UNL     1      46.262  15.221  18.273  0.00  0.00    +0.018 C 
ATOM     19  C   UNL     1      47.779  15.052  18.292  0.00  0.00    -0.045 C 
ATOM     20  C   UNL     1      48.354  15.522  16.958  0.00  0.00    +0.024 C 
ATOM     21  C   UNL     1      48.095  13.547  18.431  0.00  0.00    +0.010 C 
ATOM     22  C   UNL     1      49.599  13.318  18.401  0.00  0.00    +0.022 C 
ATOM     23  C   UNL     1      50.356  14.143  19.432  0.00  0.00    -0.050 C 
ATOM     27  C   UNL     1      50.157  13.544  20.828  0.00  0.00    +0.028 C 
ATOM     28  C   UNL     1      49.930  15.611  19.430  0.00  0.00    +0.027 C 
ATOM     29  C   UNL     1      48.412  15.731  19.500  0.00  0.00    +0.014 C 
ATOM     30  C   UNL     1      46.024  18.648  20.019  0.00  0.00    -0.000 C 
ATOM     31  C   UNL     1      45.146  19.215  19.182  0.00  0.00    -0.052 C 
ATOM     32  C   UNL     1      44.770  20.562  19.270  0.00  0.00    +0.152 C 
ATOM     33  O   UNL     1      47.525  23.871  22.503  0.00  0.00    -0.489 OA
ATOM     34  C   UNL     1      45.405  21.414  20.174  0.00  0.00    -0.107 C 
ENDROOT
BRANCH   3   4
ATOM      4  O   UNL     1      45.523  24.960  21.029  0.00  0.00    -0.464 OA
ATOM      5  H   UNL     1      46.280  25.522  21.239  0.00  0.00    +0.402 HD
ENDBRANCH   3   4
BRANCH  23  24
ATOM     24  C   UNL     1      51.857  14.079  19.097  0.00  0.00    +0.166 C 
BRANCH  24  25
ATOM     25  O   UNL     1      52.250  15.286  18.439  0.00  0.00    -0.570 OA
ATOM     26  H   UNL     1      52.003  16.090  18.915  0.00  0.00    +0.378 HD
ENDBRANCH  24  25
ENDBRANCH  23  24
TORSDOF 3
ENDMDL
MODEL 7
REMARK VINA RESULT:      -5.5      3.895      7.909
REMARK  Name = ZINC95486201
REMARK  9 active torsions:
REMARK  status: ('A' for Active; 'I' for Inactive)
REMARK    1  A    between atoms: C1_1  and  C2_2
REMARK    2  A    between atoms: C3_3  and  O3_33
REMARK    3  A    between atoms: C11_12  and  C29_32
REMARK    4  A    between atoms: C14_15  and  C28_31
REMARK    5  A    between atoms: C15_16  and  C27_30
REMARK    6  A    between atoms: C18_19  and  C26_29
REMARK    7  A    between atoms: C21_23  and  C24_26
REMARK    8  A    between atoms: C21_23  and  C25_27
REMARK    9  A    between atoms: C25_27  and  O2_28
REMARK                            x       y       z     vdW  Elec       q    Type
REMARK                         _______ _______ _______ _____ _____    ______ ____
ROOT
ATOM      1  C   UNL     1      51.729  12.995  14.205  0.00  0.00    +0.107 C 
ATOM      2  C   UNL     1      50.496  13.050  15.071  0.00  0.00    -0.070 C 
ATOM      3  C   UNL     1      49.465  12.204  14.800  0.00  0.00    +0.009 C 
ATOM      6  C   UNL     1      48.302  12.229  15.604  0.00  0.00    +0.380 C 
ATOM      7  C   UNL     1      48.242  13.081  16.723  0.00  0.00    -0.111 C 
ATOM      8  C   UNL     1      49.270  13.924  17.000  0.00  0.00    +0.026 C 
ATOM      9  C   UNL     1      49.191  14.777  18.242  0.00  0.00    +0.002 C 
ATOM     10  C   UNL     1      49.451  13.816  19.407  0.00  0.00    +0.069 C 
ATOM     11  C   UNL     1      47.779  15.336  18.385  0.00  0.00    +0.044 C 
ATOM     12  C   UNL     1      47.690  16.439  19.436  0.00  0.00    +0.026 C 
ATOM     13  C   UNL     1      48.685  17.566  19.136  0.00  0.00    -0.028 C 
ATOM     14  C   UNL     1      48.428  18.012  17.691  0.00  0.00    +0.024 C 
ATOM     15  C   UNL     1      50.106  16.999  19.247  0.00  0.00    -0.015 C 
ATOM     16  C   UNL     1      50.386  16.482  20.660  0.00  0.00    +0.045 C 
ATOM     17  C   UNL     1      51.112  18.109  18.944  0.00  0.00    +0.026 C 
ATOM     18  C   UNL     1      50.981  19.224  19.982  0.00  0.00    +0.018 C 
ATOM     19  C   UNL     1      49.569  19.804  20.005  0.00  0.00    -0.045 C 
ATOM     20  C   UNL     1      49.385  20.726  18.802  0.00  0.00    +0.024 C 
ATOM     21  C   UNL     1      49.422  20.665  21.278  0.00  0.00    +0.010 C 
ATOM     22  C   UNL     1      48.046  21.313  21.322  0.00  0.00    +0.022 C 
ATOM     23  C   UNL     1      46.904  20.314  21.191  0.00  0.00    -0.050 C 
ATOM     27  C   UNL     1      46.732  19.543  22.503  0.00  0.00    +0.028 C 
ATOM     28  C   UNL     1      47.117  19.337  20.036  0.00  0.00    +0.027 C 
ATOM     29  C   UNL     1      48.508  18.717  20.105  0.00  0.00    +0.014 C 
ATOM     30  C   UNL     1      50.216  15.872  18.240  0.00  0.00    -0.000 C 
ATOM     31  C   UNL     1      51.231  15.888  17.368  0.00  0.00    -0.052 C 
ATOM     32  C   UNL     1      51.384  14.928  16.359  0.00  0.00    +0.152 C 
ATOM     33  O   UNL     1      47.352  11.510  15.330  0.00  0.00    -0.489 OA
ATOM     34  C   UNL     1      50.393  13.969  16.141  0.00  0.00    -0.107 C 
ENDROOT
BRANCH   3   4
ATOM      4  O   UNL     1      49.557  11.337  13.756  0.00  0.00    -0.464 OA
ATOM      5  H   UNL     1      50.430  10.933  13.657  0.00  0.00    +0.402 HD
ENDBRANCH   3   4
BRANCH  23  24
ATOM     24  C   UNL     1      45.605  21.096  20.924  0.00  0.00    +0.166 C 
BRANCH  24  25
ATOM     25  O   UNL     1      45.696  22.390  21.525  0.00  0.00    -0.570 OA
ATOM     26  H   UNL     1      46.331  22.979  21.094  0.00  0.00    +0.378 HD
ENDBRANCH  24  25
ENDBRANCH  23  24
TORSDOF 3
ENDMDL
MODEL 8
REMARK VINA RESULT:      -5.5      3.195      4.315
REMARK  Name = ZINC95486201
REMARK  9 active torsions:
REMARK  status: ('A' for Active; 'I' for Inactive)
REMARK    1  A    between atoms: C1_1  and  C2_2
REMARK    2  A    between atoms: C3_3  and  O3_33
REMARK    3  A    between atoms: C11_12  and  C29_32
REMARK    4  A    between atoms: C14_15  and  C28_31
REMARK    5  A    between atoms: C15_16  and  C27_30
REMARK    6  A    between atoms: C18_19  and  C26_29
REMARK    7  A    between atoms: C21_23  and  C24_26
REMARK    8  A    between atoms: C21_23  and  C25_27
REMARK    9  A    between atoms: C25_27  and  O2_28
REMARK                            x       y       z     vdW  Elec       q    Type
REMARK                         _______ _______ _______ _____ _____    ______ ____
ROOT
ATOM      1  C   UNL     1      41.672  19.506  20.265  0.00  0.00    +0.107 C 
ATOM      2  C   UNL     1      43.141  19.772  20.061  0.00  0.00    -0.070 C 
ATOM      3  C   UNL     1      43.526  20.978  19.562  0.00  0.00    +0.009 C 
ATOM      6  C   UNL     1      44.900  21.256  19.371  0.00  0.00    +0.380 C 
ATOM      7  C   UNL     1      45.867  20.311  19.762  0.00  0.00    -0.111 C 
ATOM      8  C   UNL     1      45.487  19.107  20.264  0.00  0.00    +0.026 C 
ATOM      9  C   UNL     1      46.555  18.147  20.725  0.00  0.00    +0.002 C 
ATOM     10  C   UNL     1      47.067  18.721  22.050  0.00  0.00    +0.069 C 
ATOM     11  C   UNL     1      47.706  18.148  19.724  0.00  0.00    +0.044 C 
ATOM     12  C   UNL     1      48.681  16.996  19.952  0.00  0.00    +0.026 C 
ATOM     13  C   UNL     1      47.954  15.647  19.932  0.00  0.00    -0.028 C 
ATOM     14  C   UNL     1      47.163  15.589  18.619  0.00  0.00    +0.024 C 
ATOM     15  C   UNL     1      46.977  15.606  21.114  0.00  0.00    -0.015 C 
ATOM     16  C   UNL     1      47.719  15.726  22.448  0.00  0.00    +0.045 C 
ATOM     17  C   UNL     1      46.238  14.269  21.106  0.00  0.00    +0.026 C 
ATOM     18  C   UNL     1      47.235  13.125  21.294  0.00  0.00    +0.018 C 
ATOM     19  C   UNL     1      48.303  13.127  20.203  0.00  0.00    -0.045 C 
ATOM     20  C   UNL     1      47.706  12.566  18.915  0.00  0.00    +0.024 C 
ATOM     21  C   UNL     1      49.441  12.180  20.641  0.00  0.00    +0.010 C 
ATOM     22  C   UNL     1      50.509  12.103  19.560  0.00  0.00    +0.022 C 
ATOM     23  C   UNL     1      51.047  13.466  19.146  0.00  0.00    -0.050 C 
ATOM     27  C   UNL     1      51.989  14.005  20.228  0.00  0.00    +0.028 C 
ATOM     28  C   UNL     1      49.932  14.474  18.876  0.00  0.00    +0.027 C 
ATOM     29  C   UNL     1      48.938  14.500  20.031  0.00  0.00    +0.014 C 
ATOM     30  C   UNL     1      46.016  16.763  20.938  0.00  0.00    -0.000 C 
ATOM     31  C   UNL     1      44.701  16.516  20.974  0.00  0.00    -0.052 C 
ATOM     32  C   UNL     1      43.733  17.506  20.758  0.00  0.00    +0.152 C 
ATOM     33  O   UNL     1      45.247  22.317  18.872  0.00  0.00    -0.489 OA
ATOM     34  C   UNL     1      44.112  18.790  20.365  0.00  0.00    -0.107 C 
ENDROOT
BRANCH   3   4
ATOM      4  O   UNL     1      42.589  21.912  19.249  0.00  0.00    -0.464 OA
ATOM      5  H   UNL     1      42.359  21.940  18.311  0.00  0.00    +0.402 HD
ENDBRANCH   3   4
BRANCH  23  24
ATOM     24  C   UNL     1      51.861  13.292  17.851  0.00  0.00    +0.166 C 
BRANCH  24  25
ATOM     25  O   UNL     1      52.014  11.900  17.568  0.00  0.00    -0.570 OA
ATOM     26  H   UNL     1      51.652  11.631  16.712  0.00  0.00    +0.378 HD
ENDBRANCH  24  25
ENDBRANCH  23  24
TORSDOF 3
ENDMDL
MODEL 9
REMARK VINA RESULT:      -5.1      4.310      6.426
REMARK  Name = ZINC95486201
REMARK  9 active torsions:
REMARK  status: ('A' for Active; 'I' for Inactive)
REMARK    1  A    between atoms: C1_1  and  C2_2
REMARK    2  A    between atoms: C3_3  and  O3_33
REMARK    3  A    between atoms: C11_12  and  C29_32
REMARK    4  A    between atoms: C14_15  and  C28_31
REMARK    5  A    between atoms: C15_16  and  C27_30
REMARK    6  A    between atoms: C18_19  and  C26_29
REMARK    7  A    between atoms: C21_23  and  C24_26
REMARK    8  A    between atoms: C21_23  and  C25_27
REMARK    9  A    between atoms: C25_27  and  O2_28
REMARK                            x       y       z     vdW  Elec       q    Type
REMARK                         _______ _______ _______ _____ _____    ______ ____
ROOT
ATOM      1  C   UNL     1      45.586  21.061  18.755  0.00  0.00    +0.107 C 
ATOM      2  C   UNL     1      46.451  20.153  19.591  0.00  0.00    -0.070 C 
ATOM      3  C   UNL     1      47.123  20.679  20.651  0.00  0.00    +0.009 C 
ATOM      6  C   UNL     1      47.933  19.845  21.456  0.00  0.00    +0.380 C 
ATOM      7  C   UNL     1      47.988  18.462  21.200  0.00  0.00    -0.111 C 
ATOM      8  C   UNL     1      47.316  17.931  20.145  0.00  0.00    +0.026 C 
ATOM      9  C   UNL     1      47.354  16.438  19.942  0.00  0.00    +0.002 C 
ATOM     10  C   UNL     1      46.436  15.860  21.025  0.00  0.00    +0.069 C 
ATOM     11  C   UNL     1      48.769  15.927  20.188  0.00  0.00    +0.044 C 
ATOM     12  C   UNL     1      48.963  14.488  19.716  0.00  0.00    +0.026 C 
ATOM     13  C   UNL     1      48.589  14.339  18.237  0.00  0.00    -0.028 C 
ATOM     14  C   UNL     1      49.391  15.397  17.468  0.00  0.00    +0.024 C 
ATOM     15  C   UNL     1      47.090  14.629  18.085  0.00  0.00    -0.015 C 
ATOM     16  C   UNL     1      46.251  13.634  18.890  0.00  0.00    +0.045 C 
ATOM     17  C   UNL     1      46.700  14.491  16.614  0.00  0.00    +0.026 C 
ATOM     18  C   UNL     1      46.940  13.056  16.147  0.00  0.00    +0.018 C 
ATOM     19  C   UNL     1      48.398  12.641  16.332  0.00  0.00    -0.045 C 
ATOM     20  C   UNL     1      49.244  13.277  15.232  0.00  0.00    +0.024 C 
ATOM     21  C   UNL     1      48.488  11.109  16.165  0.00  0.00    +0.010 C 
ATOM     22  C   UNL     1      49.934  10.650  16.286  0.00  0.00    +0.022 C 
ATOM     23  C   UNL     1      50.608  11.110  17.572  0.00  0.00    -0.050 C 
ATOM     27  C   UNL     1      50.101  10.277  18.753  0.00  0.00    +0.028 C 
ATOM     28  C   UNL     1      50.381  12.596  17.847  0.00  0.00    +0.027 C 
ATOM     29  C   UNL     1      48.901  12.944  17.737  0.00  0.00    +0.014 C 
ATOM     30  C   UNL     1      46.857  16.041  18.582  0.00  0.00    -0.000 C 
ATOM     31  C   UNL     1      46.212  16.903  17.787  0.00  0.00    -0.052 C 
ATOM     32  C   UNL     1      46.004  18.246  18.129  0.00  0.00    +0.152 C 
ATOM     33  O   UNL     1      48.582  20.323  22.375  0.00  0.00    -0.489 OA
ATOM     34  C   UNL     1      46.583  18.779  19.281  0.00  0.00    -0.107 C 
ENDROOT
BRANCH   3   4
ATOM      4  O   UNL     1      47.013  22.004  20.932  0.00  0.00    -0.464 OA
ATOM      5  H   UNL     1      47.637  22.318  21.600  0.00  0.00    +0.402 HD
ENDBRANCH   3   4
BRANCH  23  24
ATOM     24  C   UNL     1      52.123  10.873  17.437  0.00  0.00    +0.166 C 
BRANCH  24  25
ATOM     25  O   UNL     1      52.596  11.487  16.237  0.00  0.00    -0.570 OA
ATOM     26  H   UNL     1      51.987  12.141  15.864  0.00  0.00    +0.378 HD
ENDBRANCH  24  25
ENDBRANCH  23  24
TORSDOF 3
ENDMDL
