MODEL 1
REMARK VINA RESULT:      -6.2      0.000      0.000
REMARK  Name = ZINC03824868
REMARK  4 active torsions:
REMARK  status: ('A' for Active; 'I' for Inactive)
REMARK    1  A    between atoms: C1_1  and  C2_2
REMARK    2  A    between atoms: C6_6  and  O1_8
REMARK    3  A    between atoms: C12_14  and  O4_18
REMARK    4  A    between atoms: C14_16  and  O3_17
REMARK                            x       y       z     vdW  Elec       q    Type
REMARK                         _______ _______ _______ _____ _____    ______ ____
ROOT
ATOM      1  C   UNL     1      58.575  29.922   2.293  0.00  0.00    +0.112 C 
ATOM      2  C   UNL     1      57.838  30.946   3.117  0.00  0.00    -0.047 A 
ATOM      3  C   UNL     1      56.464  31.077   2.983  0.00  0.00    +0.069 A 
ATOM      4  C   UNL     1      55.780  32.019   3.741  0.00  0.00    -0.102 A 
ATOM      5  C   UNL     1      56.486  32.838   4.642  0.00  0.00    -0.157 A 
ATOM      6  C   UNL     1      55.758  33.839   5.447  0.00  0.00    +0.433 C 
ATOM      7  C   UNL     1      54.288  33.767   5.528  0.00  0.00    -0.161 A 
ATOM      8  C   UNL     1      53.577  32.949   4.628  0.00  0.00    -0.088 A 
ATOM      9  C   UNL     1      52.194  32.879   4.704  0.00  0.00    +0.048 A 
ATOM     10  C   UNL     1      51.512  33.619   5.669  0.00  0.00    +0.150 A 
ATOM     13  C   UNL     1      52.208  34.426   6.555  0.00  0.00    -0.006 A 
ATOM     14  C   UNL     1      53.594  34.506   6.493  0.00  0.00    +0.182 A 
ATOM     17  O   UNL     1      56.364  34.714   6.035  0.00  0.00    -0.401 OA
ATOM     18  C   UNL     1      57.869  32.695   4.768  0.00  0.00    +0.168 A 
ATOM     21  C   UNL     1      54.315  32.170   3.609  0.00  0.00    +0.439 C 
ATOM     22  O   UNL     1      53.724  31.660   2.677  0.00  0.00    -0.418 OA
ATOM     23  C   UNL     1      58.535  31.740   4.004  0.00  0.00    +0.016 A 
ENDROOT
BRANCH  10  11
ATOM     11  O   UNL     1      50.159  33.549   5.741  0.00  0.00    -0.489 OA
ATOM     12  H   UNL     1      49.701  34.263   5.278  0.00  0.00    +0.402 HD
ENDBRANCH  10  11
BRANCH  14  15
ATOM     15  O   UNL     1      54.270  35.296   7.363  0.00  0.00    -0.477 OA
ATOM     16  H   UNL     1      54.995  34.846   7.819  0.00  0.00    +0.405 HD
ENDBRANCH  14  15
BRANCH  18  19
ATOM     19  O   UNL     1      58.559  33.477   5.635  0.00  0.00    -0.475 OA
ATOM     20  H   UNL     1      59.266  33.992   5.223  0.00  0.00    +0.399 HD
ENDBRANCH  18  19
TORSDOF 3
ENDMDL
MODEL 2
REMARK VINA RESULT:      -6.0     20.962     22.738
REMARK  Name = ZINC03824868
REMARK  4 active torsions:
REMARK  status: ('A' for Active; 'I' for Inactive)
REMARK    1  A    between atoms: C1_1  and  C2_2
REMARK    2  A    between atoms: C6_6  and  O1_8
REMARK    3  A    between atoms: C12_14  and  O4_18
REMARK    4  A    between atoms: C14_16  and  O3_17
REMARK                            x       y       z     vdW  Elec       q    Type
REMARK                         _______ _______ _______ _____ _____    ______ ____
ROOT
ATOM      1  C   UNL     1      49.421  20.603  19.522  0.00  0.00    +0.112 C 
ATOM      2  C   UNL     1      47.993  20.246  19.847  0.00  0.00    -0.047 A 
ATOM      3  C   UNL     1      46.971  21.116  19.499  0.00  0.00    +0.069 A 
ATOM      4  C   UNL     1      45.653  20.792  19.796  0.00  0.00    -0.102 A 
ATOM      5  C   UNL     1      45.361  19.580  20.450  0.00  0.00    -0.157 A 
ATOM      6  C   UNL     1      43.961  19.236  20.765  0.00  0.00    +0.433 C 
ATOM      7  C   UNL     1      42.871  20.001  20.133  0.00  0.00    -0.161 A 
ATOM      8  C   UNL     1      43.158  21.215  19.478  0.00  0.00    -0.088 A 
ATOM      9  C   UNL     1      42.134  21.936  18.881  0.00  0.00    +0.048 A 
ATOM     10  C   UNL     1      40.826  21.457  18.933  0.00  0.00    +0.150 A 
ATOM     13  C   UNL     1      40.540  20.265  19.577  0.00  0.00    -0.006 A 
ATOM     14  C   UNL     1      41.554  19.531  20.180  0.00  0.00    +0.182 A 
ATOM     17  O   UNL     1      43.709  18.333  21.540  0.00  0.00    -0.401 OA
ATOM     18  C   UNL     1      46.400  18.712  20.793  0.00  0.00    +0.168 A 
ATOM     21  C   UNL     1      44.552  21.709  19.432  0.00  0.00    +0.439 C 
ATOM     22  O   UNL     1      44.789  22.853  19.098  0.00  0.00    -0.418 OA
ATOM     23  C   UNL     1      47.714  19.054  20.481  0.00  0.00    +0.016 A 
ENDROOT
BRANCH  10  11
ATOM     11  O   UNL     1      39.826  22.164  18.347  0.00  0.00    -0.489 OA
ATOM     12  H   UNL     1      39.905  22.238  17.387  0.00  0.00    +0.402 HD
ENDBRANCH  10  11
BRANCH  14  15
ATOM     15  O   UNL     1      41.269  18.364  20.808  0.00  0.00    -0.477 OA
ATOM     16  H   UNL     1      42.006  18.005  21.322  0.00  0.00    +0.405 HD
ENDBRANCH  14  15
BRANCH  18  19
ATOM     19  O   UNL     1      46.131  17.541  21.422  0.00  0.00    -0.475 OA
ATOM     20  H   UNL     1      45.582  17.635  22.212  0.00  0.00    +0.399 HD
ENDBRANCH  18  19
TORSDOF 3
ENDMDL
MODEL 3
REMARK VINA RESULT:      -5.9     20.741     22.694
REMARK  Name = ZINC03824868
REMARK  4 active torsions:
REMARK  status: ('A' for Active; 'I' for Inactive)
REMARK    1  A    between atoms: C1_1  and  C2_2
REMARK    2  A    between atoms: C6_6  and  O1_8
REMARK    3  A    between atoms: C12_14  and  O4_18
REMARK    4  A    between atoms: C14_16  and  O3_17
REMARK                            x       y       z     vdW  Elec       q    Type
REMARK                         _______ _______ _______ _____ _____    ______ ____
ROOT
ATOM      1  C   UNL     1      39.510  21.122  18.204  0.00  0.00    +0.112 C 
ATOM      2  C   UNL     1      40.867  20.961  18.840  0.00  0.00    -0.047 A 
ATOM      3  C   UNL     1      41.705  22.059  18.959  0.00  0.00    +0.069 A 
ATOM      4  C   UNL     1      42.957  21.916  19.545  0.00  0.00    -0.102 A 
ATOM      5  C   UNL     1      43.369  20.655  20.016  0.00  0.00    -0.157 A 
ATOM      6  C   UNL     1      44.698  20.504  20.639  0.00  0.00    +0.433 C 
ATOM      7  C   UNL     1      45.449  21.709  21.036  0.00  0.00    -0.161 A 
ATOM      8  C   UNL     1      45.041  22.974  20.567  0.00  0.00    -0.088 A 
ATOM      9  C   UNL     1      45.745  24.108  20.941  0.00  0.00    +0.048 A 
ATOM     10  C   UNL     1      46.854  23.994  21.777  0.00  0.00    +0.150 A 
ATOM     13  C   UNL     1      47.259  22.753  22.240  0.00  0.00    -0.006 A 
ATOM     14  C   UNL     1      46.564  21.606  21.875  0.00  0.00    +0.182 A 
ATOM     17  O   UNL     1      45.170  19.398  20.821  0.00  0.00    -0.401 OA
ATOM     18  C   UNL     1      42.514  19.558  19.892  0.00  0.00    +0.168 A 
ATOM     21  C   UNL     1      43.861  23.078  19.679  0.00  0.00    +0.439 C 
ATOM     22  O   UNL     1      43.640  24.105  19.069  0.00  0.00    -0.418 OA
ATOM     23  C   UNL     1      41.261  19.724  19.306  0.00  0.00    +0.016 A 
ENDROOT
BRANCH  10  11
ATOM     11  O   UNL     1      47.542  25.106  22.142  0.00  0.00    -0.489 OA
ATOM     12  H   UNL     1      47.631  25.763  21.439  0.00  0.00    +0.402 HD
ENDBRANCH  10  11
BRANCH  14  15
ATOM     15  O   UNL     1      46.964  20.393  22.331  0.00  0.00    -0.477 OA
ATOM     16  H   UNL     1      47.709  20.017  21.844  0.00  0.00    +0.405 HD
ENDBRANCH  14  15
BRANCH  18  19
ATOM     19  O   UNL     1      42.899  18.339  20.344  0.00  0.00    -0.475 OA
ATOM     20  H   UNL     1      42.196  17.841  20.782  0.00  0.00    +0.399 HD
ENDBRANCH  18  19
TORSDOF 3
ENDMDL
MODEL 4
REMARK VINA RESULT:      -5.8     22.346     24.027
REMARK  Name = ZINC03824868
REMARK  4 active torsions:
REMARK  status: ('A' for Active; 'I' for Inactive)
REMARK    1  A    between atoms: C1_1  and  C2_2
REMARK    2  A    between atoms: C6_6  and  O1_8
REMARK    3  A    between atoms: C12_14  and  O4_18
REMARK    4  A    between atoms: C14_16  and  O3_17
REMARK                            x       y       z     vdW  Elec       q    Type
REMARK                         _______ _______ _______ _____ _____    ______ ____
ROOT
ATOM      1  C   UNL     1      48.163  15.965  18.950  0.00  0.00    +0.112 C 
ATOM      2  C   UNL     1      46.862  16.480  19.510  0.00  0.00    -0.047 A 
ATOM      3  C   UNL     1      46.328  17.666  19.029  0.00  0.00    +0.069 A 
ATOM      4  C   UNL     1      45.129  18.145  19.542  0.00  0.00    -0.102 A 
ATOM      5  C   UNL     1      44.461  17.424  20.549  0.00  0.00    -0.157 A 
ATOM      6  C   UNL     1      43.187  17.934  21.093  0.00  0.00    +0.433 C 
ATOM      7  C   UNL     1      42.478  19.011  20.379  0.00  0.00    -0.161 A 
ATOM      8  C   UNL     1      43.143  19.737  19.371  0.00  0.00    -0.088 A 
ATOM      9  C   UNL     1      42.478  20.750  18.697  0.00  0.00    +0.048 A 
ATOM     10  C   UNL     1      41.155  21.048  19.021  0.00  0.00    +0.150 A 
ATOM     13  C   UNL     1      40.498  20.337  20.012  0.00  0.00    -0.006 A 
ATOM     14  C   UNL     1      41.151  19.319  20.696  0.00  0.00    +0.182 A 
ATOM     17  O   UNL     1      42.728  17.471  22.120  0.00  0.00    -0.401 OA
ATOM     18  C   UNL     1      45.008  16.230  21.023  0.00  0.00    +0.168 A 
ATOM     21  C   UNL     1      44.548  19.408  19.039  0.00  0.00    +0.439 C 
ATOM     22  O   UNL     1      45.213  20.166  18.361  0.00  0.00    -0.418 OA
ATOM     23  C   UNL     1      46.209  15.764  20.491  0.00  0.00    +0.016 A 
ENDROOT
BRANCH  10  11
ATOM     11  O   UNL     1      40.505  22.039  18.359  0.00  0.00    -0.489 OA
ATOM     12  H   UNL     1      40.625  22.916  18.748  0.00  0.00    +0.402 HD
ENDBRANCH  10  11
BRANCH  14  15
ATOM     15  O   UNL     1      40.503  18.626  21.665  0.00  0.00    -0.477 OA
ATOM     16  H   UNL     1      39.731  19.084  22.026  0.00  0.00    +0.405 HD
ENDBRANCH  14  15
BRANCH  18  19
ATOM     19  O   UNL     1      44.373  15.526  21.992  0.00  0.00    -0.475 OA
ATOM     20  H   UNL     1      44.964  15.154  22.660  0.00  0.00    +0.399 HD
ENDBRANCH  18  19
TORSDOF 3
ENDMDL
MODEL 5
REMARK VINA RESULT:      -5.7     22.141     24.258
REMARK  Name = ZINC03824868
REMARK  4 active torsions:
REMARK  status: ('A' for Active; 'I' for Inactive)
REMARK    1  A    between atoms: C1_1  and  C2_2
REMARK    2  A    between atoms: C6_6  and  O1_8
REMARK    3  A    between atoms: C12_14  and  O4_18
REMARK    4  A    between atoms: C14_16  and  O3_17
REMARK                            x       y       z     vdW  Elec       q    Type
REMARK                         _______ _______ _______ _____ _____    ______ ____
ROOT
ATOM      1  C   UNL     1      39.338  21.515  18.381  0.00  0.00    +0.112 C 
ATOM      2  C   UNL     1      40.695  21.217  18.967  0.00  0.00    -0.047 A 
ATOM      3  C   UNL     1      40.890  20.051  19.691  0.00  0.00    +0.069 A 
ATOM      4  C   UNL     1      42.138  19.771  20.233  0.00  0.00    -0.102 A 
ATOM      5  C   UNL     1      43.201  20.676  20.046  0.00  0.00    -0.157 A 
ATOM      6  C   UNL     1      44.526  20.378  20.622  0.00  0.00    +0.433 C 
ATOM      7  C   UNL     1      44.808  19.019  21.118  0.00  0.00    -0.161 A 
ATOM      8  C   UNL     1      43.748  18.110  21.307  0.00  0.00    -0.088 A 
ATOM      9  C   UNL     1      44.012  16.830  21.772  0.00  0.00    +0.048 A 
ATOM     10  C   UNL     1      45.323  16.449  22.051  0.00  0.00    +0.150 A 
ATOM     13  C   UNL     1      46.368  17.339  21.867  0.00  0.00    -0.006 A 
ATOM     14  C   UNL     1      46.121  18.625  21.401  0.00  0.00    +0.182 A 
ATOM     17  O   UNL     1      45.376  21.246  20.689  0.00  0.00    -0.401 OA
ATOM     18  C   UNL     1      42.991  21.846  19.314  0.00  0.00    +0.168 A 
ATOM     21  C   UNL     1      42.362  18.532  21.007  0.00  0.00    +0.439 C 
ATOM     22  O   UNL     1      41.420  17.866  21.390  0.00  0.00    -0.418 OA
ATOM     23  C   UNL     1      41.733  22.104  18.773  0.00  0.00    +0.016 A 
ENDROOT
BRANCH  10  11
ATOM     11  O   UNL     1      45.578  15.195  22.505  0.00  0.00    -0.489 OA
ATOM     12  H   UNL     1      44.814  14.757  22.903  0.00  0.00    +0.402 HD
ENDBRANCH  10  11
BRANCH  14  15
ATOM     15  O   UNL     1      47.146  19.493  21.222  0.00  0.00    -0.477 OA
ATOM     16  H   UNL     1      47.073  20.026  20.418  0.00  0.00    +0.405 HD
ENDBRANCH  14  15
BRANCH  18  19
ATOM     19  O   UNL     1      44.007  22.724  19.125  0.00  0.00    -0.475 OA
ATOM     20  H   UNL     1      44.314  23.151  19.936  0.00  0.00    +0.399 HD
ENDBRANCH  18  19
TORSDOF 3
ENDMDL
MODEL 6
REMARK VINA RESULT:      -5.6     20.751     21.300
REMARK  Name = ZINC03824868
REMARK  4 active torsions:
REMARK  status: ('A' for Active; 'I' for Inactive)
REMARK    1  A    between atoms: C1_1  and  C2_2
REMARK    2  A    between atoms: C6_6  and  O1_8
REMARK    3  A    between atoms: C12_14  and  O4_18
REMARK    4  A    between atoms: C14_16  and  O3_17
REMARK                            x       y       z     vdW  Elec       q    Type
REMARK                         _______ _______ _______ _____ _____    ______ ____
ROOT
ATOM      1  C   UNL     1      50.894  17.422  17.832  0.00  0.00    +0.112 C 
ATOM      2  C   UNL     1      49.513  17.970  18.082  0.00  0.00    -0.047 A 
ATOM      3  C   UNL     1      49.335  18.993  19.001  0.00  0.00    +0.069 A 
ATOM      4  C   UNL     1      48.064  19.502  19.235  0.00  0.00    -0.102 A 
ATOM      5  C   UNL     1      46.960  18.976  18.538  0.00  0.00    -0.157 A 
ATOM      6  C   UNL     1      45.609  19.517  18.788  0.00  0.00    +0.433 C 
ATOM      7  C   UNL     1      45.466  20.787  19.521  0.00  0.00    -0.161 A 
ATOM      8  C   UNL     1      46.568  21.318  20.221  0.00  0.00    -0.088 A 
ATOM      9  C   UNL     1      46.437  22.514  20.911  0.00  0.00    +0.048 A 
ATOM     10  C   UNL     1      45.215  23.185  20.911  0.00  0.00    +0.150 A 
ATOM     13  C   UNL     1      44.129  22.666  20.225  0.00  0.00    -0.006 A 
ATOM     14  C   UNL     1      44.245  21.470  19.528  0.00  0.00    +0.182 A 
ATOM     17  O   UNL     1      44.626  18.921  18.393  0.00  0.00    -0.401 OA
ATOM     18  C   UNL     1      47.153  17.947  17.614  0.00  0.00    +0.168 A 
ATOM     21  C   UNL     1      47.859  20.593  20.212  0.00  0.00    +0.439 C 
ATOM     22  O   UNL     1      48.738  20.891  20.996  0.00  0.00    -0.418 OA
ATOM     23  C   UNL     1      48.437  17.455  17.390  0.00  0.00    +0.016 A 
ENDROOT
BRANCH  10  11
ATOM     11  O   UNL     1      45.088  24.356  21.587  0.00  0.00    -0.489 OA
ATOM     12  H   UNL     1      45.802  24.527  22.216  0.00  0.00    +0.402 HD
ENDBRANCH  10  11
BRANCH  14  15
ATOM     15  O   UNL     1      43.180  20.966  18.858  0.00  0.00    -0.477 OA
ATOM     16  H   UNL     1      43.176  21.176  17.913  0.00  0.00    +0.405 HD
ENDBRANCH  14  15
BRANCH  18  19
ATOM     19  O   UNL     1      46.097  17.433  16.935  0.00  0.00    -0.475 OA
ATOM     20  H   UNL     1      45.321  18.009  16.919  0.00  0.00    +0.399 HD
ENDBRANCH  18  19
TORSDOF 3
ENDMDL
MODEL 7
REMARK VINA RESULT:      -5.5     22.617     23.945
REMARK  Name = ZINC03824868
REMARK  4 active torsions:
REMARK  status: ('A' for Active; 'I' for Inactive)
REMARK    1  A    between atoms: C1_1  and  C2_2
REMARK    2  A    between atoms: C6_6  and  O1_8
REMARK    3  A    between atoms: C12_14  and  O4_18
REMARK    4  A    between atoms: C14_16  and  O3_17
REMARK                            x       y       z     vdW  Elec       q    Type
REMARK                         _______ _______ _______ _____ _____    ______ ____
ROOT
ATOM      1  C   UNL     1      47.450  12.695  16.168  0.00  0.00    +0.112 C 
ATOM      2  C   UNL     1      46.813  13.573  17.214  0.00  0.00    -0.047 A 
ATOM      3  C   UNL     1      46.814  14.950  17.050  0.00  0.00    +0.069 A 
ATOM      4  C   UNL     1      46.227  15.764  18.011  0.00  0.00    -0.102 A 
ATOM      5  C   UNL     1      45.634  15.186  19.149  0.00  0.00    -0.157 A 
ATOM      6  C   UNL     1      45.010  16.052  20.170  0.00  0.00    +0.433 C 
ATOM      7  C   UNL     1      44.745  17.466  19.851  0.00  0.00    -0.161 A 
ATOM      8  C   UNL     1      45.337  18.049  18.713  0.00  0.00    -0.088 A 
ATOM      9  C   UNL     1      45.087  19.379  18.410  0.00  0.00    +0.048 A 
ATOM     10  C   UNL     1      44.253  20.134  19.232  0.00  0.00    +0.150 A 
ATOM     13  C   UNL     1      43.669  19.565  20.353  0.00  0.00    -0.006 A 
ATOM     14  C   UNL     1      43.909  18.233  20.670  0.00  0.00    +0.182 A 
ATOM     17  O   UNL     1      44.721  15.603  21.263  0.00  0.00    -0.401 OA
ATOM     18  C   UNL     1      45.638  13.798  19.302  0.00  0.00    +0.168 A 
ATOM     21  C   UNL     1      46.220  17.234  17.849  0.00  0.00    +0.439 C 
ATOM     22  O   UNL     1      46.930  17.766  17.019  0.00  0.00    -0.418 OA
ATOM     23  C   UNL     1      46.227  13.000  18.323  0.00  0.00    +0.016 A 
ENDROOT
BRANCH  10  11
ATOM     11  O   UNL     1      44.009  21.436  18.934  0.00  0.00    -0.489 OA
ATOM     12  H   UNL     1      44.061  21.640  17.990  0.00  0.00    +0.402 HD
ENDBRANCH  10  11
BRANCH  14  15
ATOM     15  O   UNL     1      43.336  17.681  21.766  0.00  0.00    -0.477 OA
ATOM     16  H   UNL     1      43.325  16.713  21.758  0.00  0.00    +0.405 HD
ENDBRANCH  14  15
BRANCH  18  19
ATOM     19  O   UNL     1      45.068  13.230  20.393  0.00  0.00    -0.475 OA
ATOM     20  H   UNL     1      44.416  12.547  20.186  0.00  0.00    +0.399 HD
ENDBRANCH  18  19
TORSDOF 3
ENDMDL
MODEL 8
REMARK VINA RESULT:      -5.5      1.873      2.358
REMARK  Name = ZINC03824868
REMARK  4 active torsions:
REMARK  status: ('A' for Active; 'I' for Inactive)
REMARK    1  A    between atoms: C1_1  and  C2_2
REMARK    2  A    between atoms: C6_6  and  O1_8
REMARK    3  A    between atoms: C12_14  and  O4_18
REMARK    4  A    between atoms: C14_16  and  O3_17
REMARK                            x       y       z     vdW  Elec       q    Type
REMARK                         _______ _______ _______ _____ _____    ______ ____
ROOT
ATOM      1  C   UNL     1      55.159  30.758  -0.865  0.00  0.00    +0.112 C 
ATOM      2  C   UNL     1      55.130  31.414   0.491  0.00  0.00    -0.047 A 
ATOM      3  C   UNL     1      53.916  31.784   1.050  0.00  0.00    +0.069 A 
ATOM      4  C   UNL     1      53.883  32.388   2.300  0.00  0.00    -0.102 A 
ATOM      5  C   UNL     1      55.085  32.624   2.995  0.00  0.00    -0.157 A 
ATOM      6  C   UNL     1      55.049  33.266   4.324  0.00  0.00    +0.433 C 
ATOM      7  C   UNL     1      53.764  33.376   5.037  0.00  0.00    -0.161 A 
ATOM      8  C   UNL     1      52.558  33.141   4.346  0.00  0.00    -0.088 A 
ATOM      9  C   UNL     1      51.348  33.242   5.016  0.00  0.00    +0.048 A 
ATOM     10  C   UNL     1      51.329  33.576   6.369  0.00  0.00    +0.150 A 
ATOM     13  C   UNL     1      52.511  33.808   7.052  0.00  0.00    -0.006 A 
ATOM     14  C   UNL     1      53.732  33.711   6.395  0.00  0.00    +0.182 A 
ATOM     17  O   UNL     1      56.069  33.702   4.823  0.00  0.00    -0.401 OA
ATOM     18  C   UNL     1      56.300  32.246   2.422  0.00  0.00    +0.168 A 
ATOM     21  C   UNL     1      52.596  32.787   2.909  0.00  0.00    +0.439 C 
ATOM     22  O   UNL     1      51.583  32.824   2.240  0.00  0.00    -0.418 OA
ATOM     23  C   UNL     1      56.310  31.635   1.170  0.00  0.00    +0.016 A 
ENDROOT
BRANCH  10  11
ATOM     11  O   UNL     1      50.143  33.674   7.023  0.00  0.00    -0.489 OA
ATOM     12  H   UNL     1      50.228  33.852   7.969  0.00  0.00    +0.402 HD
ENDBRANCH  10  11
BRANCH  14  15
ATOM     15  O   UNL     1      54.887  33.938   7.068  0.00  0.00    -0.477 OA
ATOM     16  H   UNL     1      55.632  34.176   6.499  0.00  0.00    +0.405 HD
ENDBRANCH  14  15
BRANCH  18  19
ATOM     19  O   UNL     1      57.464  32.466   3.082  0.00  0.00    -0.475 OA
ATOM     20  H   UNL     1      57.980  31.666   3.249  0.00  0.00    +0.399 HD
ENDBRANCH  18  19
TORSDOF 3
ENDMDL
MODEL 9
REMARK VINA RESULT:      -5.4      2.929      5.027
REMARK  Name = ZINC03824868
REMARK  4 active torsions:
REMARK  status: ('A' for Active; 'I' for Inactive)
REMARK    1  A    between atoms: C1_1  and  C2_2
REMARK    2  A    between atoms: C6_6  and  O1_8
REMARK    3  A    between atoms: C12_14  and  O4_18
REMARK    4  A    between atoms: C14_16  and  O3_17
REMARK                            x       y       z     vdW  Elec       q    Type
REMARK                         _______ _______ _______ _____ _____    ______ ____
ROOT
ATOM      1  C   UNL     1      54.247  31.355  -2.310  0.00  0.00    +0.112 C 
ATOM      2  C   UNL     1      53.574  31.663  -0.997  0.00  0.00    -0.047 A 
ATOM      3  C   UNL     1      54.310  31.624   0.178  0.00  0.00    +0.069 A 
ATOM      4  C   UNL     1      53.694  31.908   1.391  0.00  0.00    -0.102 A 
ATOM      5  C   UNL     1      52.325  32.232   1.422  0.00  0.00    -0.157 A 
ATOM      6  C   UNL     1      51.672  32.533   2.711  0.00  0.00    +0.433 C 
ATOM      7  C   UNL     1      52.506  32.789   3.899  0.00  0.00    -0.161 A 
ATOM      8  C   UNL     1      53.877  32.465   3.874  0.00  0.00    -0.088 A 
ATOM      9  C   UNL     1      54.664  32.706   4.990  0.00  0.00    +0.048 A 
ATOM     10  C   UNL     1      54.096  33.267   6.133  0.00  0.00    +0.150 A 
ATOM     13  C   UNL     1      52.748  33.585   6.162  0.00  0.00    -0.006 A 
ATOM     14  C   UNL     1      51.946  33.350   5.052  0.00  0.00    +0.182 A 
ATOM     17  O   UNL     1      50.459  32.568   2.792  0.00  0.00    -0.401 OA
ATOM     18  C   UNL     1      51.596  32.269   0.231  0.00  0.00    +0.168 A 
ATOM     21  C   UNL     1      54.465  31.871   2.652  0.00  0.00    +0.439 C 
ATOM     22  O   UNL     1      55.567  31.360   2.686  0.00  0.00    -0.418 OA
ATOM     23  C   UNL     1      52.234  31.988  -0.975  0.00  0.00    +0.016 A 
ENDROOT
BRANCH  10  11
ATOM     11  O   UNL     1      54.868  33.502   7.224  0.00  0.00    -0.489 OA
ATOM     12  H   UNL     1      55.166  32.702   7.676  0.00  0.00    +0.402 HD
ENDBRANCH  10  11
BRANCH  14  15
ATOM     15  O   UNL     1      50.628  33.665   5.085  0.00  0.00    -0.477 OA
ATOM     16  H   UNL     1      50.432  34.568   4.799  0.00  0.00    +0.405 HD
ENDBRANCH  14  15
BRANCH  18  19
ATOM     19  O   UNL     1      50.277  32.582   0.248  0.00  0.00    -0.475 OA
ATOM     20  H   UNL     1      50.050  33.300   0.854  0.00  0.00    +0.399 HD
ENDBRANCH  18  19
TORSDOF 3
ENDMDL
