MODEL 1
REMARK VINA RESULT:      -6.7      0.000      0.000
REMARK  Name = ZINC95486070
REMARK  0 active torsions:
REMARK  status: ('A' for Active; 'I' for Inactive)
REMARK                            x       y       z     vdW  Elec       q    Type
REMARK                         _______ _______ _______ _____ _____    ______ ____
ROOT
ATOM      1  C   UNL     1      40.229  20.596  18.383  0.00  0.00    -0.017 A 
ATOM      2  C   UNL     1      40.649  21.910  18.495  0.00  0.00    +0.037 A 
ATOM      3  C   UNL     1      41.906  22.189  18.999  0.00  0.00    -0.003 A 
ATOM      4  C   UNL     1      42.731  21.153  19.401  0.00  0.00    +0.177 A 
ATOM      5  C   UNL     1      42.305  19.833  19.304  0.00  0.00    -0.113 A 
ATOM      6  C   UNL     1      43.173  18.704  19.795  0.00  0.00    +0.056 C 
ATOM      7  C   UNL     1      42.845  18.478  21.289  0.00  0.00    +0.003 C 
ATOM      8  C   UNL     1      43.170  19.735  22.094  0.00  0.00    +0.213 C 
ATOM      9  N   UNL     1      44.568  20.162  21.910  0.00  0.00    -0.522 NA
ATOM     10  C   UNL     1      45.502  19.194  22.505  0.00  0.00    +0.237 C 
ATOM     11  C   UNL     1      46.919  19.616  22.234  0.00  0.00    -0.018 C 
ATOM     12  C   UNL     1      47.262  20.306  21.184  0.00  0.00    -0.011 C 
ATOM     13  C   UNL     1      46.293  20.761  20.154  0.00  0.00    -0.024 C 
ATOM     14  C   UNL     1      46.185  22.293  20.077  0.00  0.00    +0.092 C 
ATOM     15  C   UNL     1      44.723  22.545  19.756  0.00  0.00    +0.530 C 
ATOM     16  O   UNL     1      44.253  23.618  19.443  0.00  0.00    -0.505 OA
ATOM     17  C   UNL     1      46.552  20.154  18.766  0.00  0.00    +0.048 C 
ATOM     18  C   UNL     1      45.257  19.341  18.359  0.00  0.00    +0.042 C 
ATOM     19  C   UNL     1      44.852  20.364  20.507  0.00  0.00    +0.321 C 
ATOM     20  C   UNL     1      44.649  19.029  19.726  0.00  0.00    -0.035 C 
ATOM     21  N   UNL     1      44.026  21.399  19.875  0.00  0.00    -0.542 N 
ATOM     22  C   UNL     1      41.054  19.562  18.782  0.00  0.00    +0.035 A 
ENDROOT
TORSDOF 0
ENDMDL
MODEL 2
REMARK VINA RESULT:      -6.3      2.009      4.197
REMARK  Name = ZINC95486070
REMARK  0 active torsions:
REMARK  status: ('A' for Active; 'I' for Inactive)
REMARK                            x       y       z     vdW  Elec       q    Type
REMARK                         _______ _______ _______ _____ _____    ______ ____
ROOT
ATOM      1  C   UNL     1      44.413  15.571  21.390  0.00  0.00    -0.017 A 
ATOM      2  C   UNL     1      45.228  15.632  20.274  0.00  0.00    +0.037 A 
ATOM      3  C   UNL     1      45.473  16.850  19.666  0.00  0.00    -0.003 A 
ATOM      4  C   UNL     1      44.889  17.999  20.171  0.00  0.00    +0.177 A 
ATOM      5  C   UNL     1      44.057  17.938  21.283  0.00  0.00    -0.113 A 
ATOM      6  C   UNL     1      43.370  19.174  21.802  0.00  0.00    +0.056 C 
ATOM      7  C   UNL     1      42.019  19.304  21.062  0.00  0.00    +0.003 C 
ATOM      8  C   UNL     1      42.256  19.465  19.562  0.00  0.00    +0.213 C 
ATOM      9  N   UNL     1      43.143  20.602  19.261  0.00  0.00    -0.522 NA
ATOM     10  C   UNL     1      42.496  21.882  19.586  0.00  0.00    +0.237 C 
ATOM     11  C   UNL     1      43.451  23.016  19.343  0.00  0.00    -0.018 C 
ATOM     12  C   UNL     1      44.743  22.885  19.444  0.00  0.00    -0.011 C 
ATOM     13  C   UNL     1      45.409  21.604  19.793  0.00  0.00    -0.024 C 
ATOM     14  C   UNL     1      46.295  21.067  18.656  0.00  0.00    +0.092 C 
ATOM     15  C   UNL     1      46.142  19.560  18.748  0.00  0.00    +0.530 C 
ATOM     16  O   UNL     1      46.811  18.753  18.138  0.00  0.00    -0.505 OA
ATOM     17  C   UNL     1      46.184  21.662  21.118  0.00  0.00    +0.048 C 
ATOM     18  C   UNL     1      45.552  20.579  22.082  0.00  0.00    +0.042 C 
ATOM     19  C   UNL     1      44.398  20.461  19.966  0.00  0.00    +0.321 C 
ATOM     20  C   UNL     1      44.144  20.440  21.506  0.00  0.00    -0.035 C 
ATOM     21  N   UNL     1      45.151  19.254  19.606  0.00  0.00    -0.542 N 
ATOM     22  C   UNL     1      43.832  16.719  21.895  0.00  0.00    +0.035 A 
ENDROOT
TORSDOF 0
ENDMDL
MODEL 3
REMARK VINA RESULT:      -6.2      1.669      3.893
REMARK  Name = ZINC95486070
REMARK  0 active torsions:
REMARK  status: ('A' for Active; 'I' for Inactive)
REMARK                            x       y       z     vdW  Elec       q    Type
REMARK                         _______ _______ _______ _____ _____    ______ ____
ROOT
ATOM      1  C   UNL     1      44.129  24.417  19.100  0.00  0.00    -0.017 A 
ATOM      2  C   UNL     1      42.853  23.980  18.790  0.00  0.00    +0.037 A 
ATOM      3  C   UNL     1      42.503  22.662  19.017  0.00  0.00    -0.003 A 
ATOM      4  C   UNL     1      43.436  21.784  19.541  0.00  0.00    +0.177 A 
ATOM      5  C   UNL     1      44.723  22.216  19.838  0.00  0.00    -0.113 A 
ATOM      6  C   UNL     1      45.762  21.254  20.351  0.00  0.00    +0.056 C 
ATOM      7  C   UNL     1      46.479  20.642  19.125  0.00  0.00    +0.003 C 
ATOM      8  C   UNL     1      45.479  19.874  18.262  0.00  0.00    +0.213 C 
ATOM      9  N   UNL     1      44.760  18.845  19.032  0.00  0.00    -0.522 NA
ATOM     10  C   UNL     1      45.666  17.764  19.448  0.00  0.00    +0.237 C 
ATOM     11  C   UNL     1      44.924  16.769  20.296  0.00  0.00    -0.018 C 
ATOM     12  C   UNL     1      43.901  17.096  21.034  0.00  0.00    -0.011 C 
ATOM     13  C   UNL     1      43.353  18.475  21.106  0.00  0.00    -0.024 C 
ATOM     14  C   UNL     1      41.916  18.571  20.565  0.00  0.00    +0.092 C 
ATOM     15  C   UNL     1      41.862  19.933  19.900  0.00  0.00    +0.530 C 
ATOM     16  O   UNL     1      40.853  20.472  19.496  0.00  0.00    -0.505 OA
ATOM     17  C   UNL     1      43.460  19.100  22.505  0.00  0.00    +0.048 C 
ATOM     18  C   UNL     1      44.346  20.404  22.372  0.00  0.00    +0.042 C 
ATOM     19  C   UNL     1      44.102  19.438  20.174  0.00  0.00    +0.321 C 
ATOM     20  C   UNL     1      45.159  20.096  21.115  0.00  0.00    -0.035 C 
ATOM     21  N   UNL     1      43.101  20.453  19.823  0.00  0.00    -0.542 N 
ATOM     22  C   UNL     1      45.059  23.540  19.625  0.00  0.00    +0.035 A 
ENDROOT
TORSDOF 0
ENDMDL
MODEL 4
REMARK VINA RESULT:      -6.1      4.591      7.262
REMARK  Name = ZINC95486070
REMARK  0 active torsions:
REMARK  status: ('A' for Active; 'I' for Inactive)
REMARK                            x       y       z     vdW  Elec       q    Type
REMARK                         _______ _______ _______ _____ _____    ______ ____
ROOT
ATOM      1  C   UNL     1      52.082  20.593  16.081  0.00  0.00    -0.017 A 
ATOM      2  C   UNL     1      51.839  19.271  15.755  0.00  0.00    +0.037 A 
ATOM      3  C   UNL     1      51.012  18.506  16.557  0.00  0.00    -0.003 A 
ATOM      4  C   UNL     1      50.444  19.064  17.689  0.00  0.00    +0.177 A 
ATOM      5  C   UNL     1      50.700  20.388  18.028  0.00  0.00    -0.113 A 
ATOM      6  C   UNL     1      50.134  20.986  19.289  0.00  0.00    +0.056 C 
ATOM      7  C   UNL     1      51.147  20.721  20.427  0.00  0.00    +0.003 C 
ATOM      8  C   UNL     1      51.327  19.219  20.631  0.00  0.00    +0.213 C 
ATOM      9  N   UNL     1      50.045  18.539  20.886  0.00  0.00    -0.522 NA
ATOM     10  C   UNL     1      49.482  18.937  22.184  0.00  0.00    +0.237 C 
ATOM     11  C   UNL     1      48.140  18.289  22.382  0.00  0.00    -0.018 C 
ATOM     12  C   UNL     1      47.357  17.972  21.390  0.00  0.00    -0.011 C 
ATOM     13  C   UNL     1      47.709  18.201  19.966  0.00  0.00    -0.024 C 
ATOM     14  C   UNL     1      47.841  16.892  19.169  0.00  0.00    +0.092 C 
ATOM     15  C   UNL     1      48.963  17.169  18.185  0.00  0.00    +0.530 C 
ATOM     16  O   UNL     1      49.268  16.452  17.256  0.00  0.00    -0.505 OA
ATOM     17  C   UNL     1      46.767  19.186  19.257  0.00  0.00    +0.048 C 
ATOM     18  C   UNL     1      47.647  20.402  18.755  0.00  0.00    +0.042 C 
ATOM     19  C   UNL     1      49.114  18.803  19.812  0.00  0.00    +0.321 C 
ATOM     20  C   UNL     1      48.836  20.335  19.713  0.00  0.00    -0.035 C 
ATOM     21  N   UNL     1      49.568  18.330  18.499  0.00  0.00    -0.542 N 
ATOM     22  C   UNL     1      51.512  21.152  17.210  0.00  0.00    +0.035 A 
ENDROOT
TORSDOF 0
ENDMDL
MODEL 5
REMARK VINA RESULT:      -5.8      2.602      4.774
REMARK  Name = ZINC95486070
REMARK  0 active torsions:
REMARK  status: ('A' for Active; 'I' for Inactive)
REMARK                            x       y       z     vdW  Elec       q    Type
REMARK                         _______ _______ _______ _____ _____    ______ ____
ROOT
ATOM      1  C   UNL     1      46.112  14.953  18.333  0.00  0.00    -0.017 A 
ATOM      2  C   UNL     1      45.474  14.746  19.543  0.00  0.00    +0.037 A 
ATOM      3  C   UNL     1      45.113  15.827  20.325  0.00  0.00    -0.003 A 
ATOM      4  C   UNL     1      45.404  17.111  19.898  0.00  0.00    +0.177 A 
ATOM      5  C   UNL     1      46.058  17.322  18.690  0.00  0.00    -0.113 A 
ATOM      6  C   UNL     1      46.432  18.712  18.246  0.00  0.00    +0.056 C 
ATOM      7  C   UNL     1      47.834  19.024  18.818  0.00  0.00    +0.003 C 
ATOM      8  C   UNL     1      47.799  18.987  20.344  0.00  0.00    +0.213 C 
ATOM      9  N   UNL     1      46.781  19.896  20.896  0.00  0.00    -0.522 NA
ATOM     10  C   UNL     1      47.138  21.302  20.655  0.00  0.00    +0.237 C 
ATOM     11  C   UNL     1      46.045  22.203  21.158  0.00  0.00    -0.018 C 
ATOM     12  C   UNL     1      44.796  21.837  21.208  0.00  0.00    -0.011 C 
ATOM     13  C   UNL     1      44.321  20.494  20.790  0.00  0.00    -0.024 C 
ATOM     14  C   UNL     1      43.723  19.686  21.954  0.00  0.00    +0.092 C 
ATOM     15  C   UNL     1      44.123  18.254  21.655  0.00  0.00    +0.530 C 
ATOM     16  O   UNL     1      43.705  17.276  22.240  0.00  0.00    -0.505 OA
ATOM     17  C   UNL     1      43.359  20.535  19.593  0.00  0.00    +0.048 C 
ATOM     18  C   UNL     1      44.020  19.694  18.427  0.00  0.00    +0.042 C 
ATOM     19  C   UNL     1      45.480  19.589  20.346  0.00  0.00    +0.321 C 
ATOM     20  C   UNL     1      45.501  19.771  18.796  0.00  0.00    -0.035 C 
ATOM     21  N   UNL     1      45.013  18.230  20.645  0.00  0.00    -0.542 N 
ATOM     22  C   UNL     1      46.399  16.236  17.906  0.00  0.00    +0.035 A 
ENDROOT
TORSDOF 0
ENDMDL
MODEL 6
REMARK VINA RESULT:      -5.7      2.060      3.489
REMARK  Name = ZINC95486070
REMARK  0 active torsions:
REMARK  status: ('A' for Active; 'I' for Inactive)
REMARK                            x       y       z     vdW  Elec       q    Type
REMARK                         _______ _______ _______ _____ _____    ______ ____
ROOT
ATOM      1  C   UNL     1      43.988  22.980  19.788  0.00  0.00    -0.017 A 
ATOM      2  C   UNL     1      45.075  23.084  20.639  0.00  0.00    +0.037 A 
ATOM      3  C   UNL     1      45.604  21.947  21.221  0.00  0.00    -0.003 A 
ATOM      4  C   UNL     1      45.034  20.712  20.961  0.00  0.00    +0.177 A 
ATOM      5  C   UNL     1      43.933  20.607  20.119  0.00  0.00    -0.113 A 
ATOM      6  C   UNL     1      43.270  19.276  19.878  0.00  0.00    +0.056 C 
ATOM      7  C   UNL     1      42.189  19.088  20.968  0.00  0.00    +0.003 C 
ATOM      8  C   UNL     1      42.836  19.073  22.351  0.00  0.00    +0.213 C 
ATOM      9  N   UNL     1      43.889  18.048  22.458  0.00  0.00    -0.522 NA
ATOM     10  C   UNL     1      43.320  16.694  22.395  0.00  0.00    +0.237 C 
ATOM     11  C   UNL     1      44.422  15.672  22.427  0.00  0.00    -0.018 C 
ATOM     12  C   UNL     1      45.618  15.910  21.967  0.00  0.00    -0.011 C 
ATOM     13  C   UNL     1      46.023  17.212  21.379  0.00  0.00    -0.024 C 
ATOM     14  C   UNL     1      47.118  17.917  22.197  0.00  0.00    +0.092 C 
ATOM     15  C   UNL     1      46.784  19.392  22.068  0.00  0.00    +0.530 C 
ATOM     16  O   UNL     1      47.501  20.303  22.424  0.00  0.00    -0.505 OA
ATOM     17  C   UNL     1      46.416  17.113  19.897  0.00  0.00    +0.048 C 
ATOM     18  C   UNL     1      45.435  18.053  19.086  0.00  0.00    +0.042 C 
ATOM     19  C   UNL     1      44.885  18.242  21.428  0.00  0.00    +0.321 C 
ATOM     20  C   UNL     1      44.226  18.113  20.019  0.00  0.00    -0.035 C 
ATOM     21  N   UNL     1      45.572  19.537  21.500  0.00  0.00    -0.542 N 
ATOM     22  C   UNL     1      43.422  21.747  19.526  0.00  0.00    +0.035 A 
ENDROOT
TORSDOF 0
ENDMDL
MODEL 7
REMARK VINA RESULT:      -5.7      3.073      5.018
REMARK  Name = ZINC95486070
REMARK  0 active torsions:
REMARK  status: ('A' for Active; 'I' for Inactive)
REMARK                            x       y       z     vdW  Elec       q    Type
REMARK                         _______ _______ _______ _____ _____    ______ ____
ROOT
ATOM      1  C   UNL     1      45.096  14.011  21.966  0.00  0.00    -0.017 A 
ATOM      2  C   UNL     1      45.248  13.808  20.606  0.00  0.00    +0.037 A 
ATOM      3  C   UNL     1      45.377  14.892  19.758  0.00  0.00    -0.003 A 
ATOM      4  C   UNL     1      45.339  16.176  20.274  0.00  0.00    +0.177 A 
ATOM      5  C   UNL     1      45.170  16.384  21.638  0.00  0.00    -0.113 A 
ATOM      6  C   UNL     1      45.068  17.777  22.201  0.00  0.00    +0.056 C 
ATOM      7  C   UNL     1      43.576  18.186  22.169  0.00  0.00    +0.003 C 
ATOM      8  C   UNL     1      43.065  18.195  20.730  0.00  0.00    +0.213 C 
ATOM      9  N   UNL     1      43.877  19.065  19.861  0.00  0.00    -0.522 NA
ATOM     10  C   UNL     1      43.719  20.480  20.229  0.00  0.00    +0.237 C 
ATOM     11  C   UNL     1      44.617  21.334  19.379  0.00  0.00    -0.018 C 
ATOM     12  C   UNL     1      45.741  20.901  18.883  0.00  0.00    -0.011 C 
ATOM     13  C   UNL     1      46.247  19.520  19.091  0.00  0.00    -0.024 C 
ATOM     14  C   UNL     1      46.340  18.719  17.781  0.00  0.00    +0.092 C 
ATOM     15  C   UNL     1      45.982  17.302  18.189  0.00  0.00    +0.530 C 
ATOM     16  O   UNL     1      46.103  16.322  17.483  0.00  0.00    -0.505 OA
ATOM     17  C   UNL     1      47.572  19.469  19.867  0.00  0.00    +0.048 C 
ATOM     18  C   UNL     1      47.315  18.629  21.183  0.00  0.00    +0.042 C 
ATOM     19  C   UNL     1      45.266  18.668  19.909  0.00  0.00    +0.321 C 
ATOM     20  C   UNL     1      45.808  18.800  21.366  0.00  0.00    -0.035 C 
ATOM     21  N   UNL     1      45.509  17.295  19.449  0.00  0.00    -0.542 N 
ATOM     22  C   UNL     1      45.061  15.293  22.482  0.00  0.00    +0.035 A 
ENDROOT
TORSDOF 0
ENDMDL
MODEL 8
REMARK VINA RESULT:      -5.6      5.714      7.728
REMARK  Name = ZINC95486070
REMARK  0 active torsions:
REMARK  status: ('A' for Active; 'I' for Inactive)
REMARK                            x       y       z     vdW  Elec       q    Type
REMARK                         _______ _______ _______ _____ _____    ______ ____
ROOT
ATOM      1  C   UNL     1      49.753  14.766  16.880  0.00  0.00    -0.017 A 
ATOM      2  C   UNL     1      48.551  15.341  17.255  0.00  0.00    +0.037 A 
ATOM      3  C   UNL     1      48.541  16.590  17.846  0.00  0.00    -0.003 A 
ATOM      4  C   UNL     1      49.735  17.254  18.072  0.00  0.00    +0.177 A 
ATOM      5  C   UNL     1      50.945  16.672  17.710  0.00  0.00    -0.113 A 
ATOM      6  C   UNL     1      52.252  17.360  18.005  0.00  0.00    +0.056 C 
ATOM      7  C   UNL     1      52.704  16.918  19.417  0.00  0.00    +0.003 C 
ATOM      8  C   UNL     1      51.673  17.350  20.457  0.00  0.00    +0.213 C 
ATOM      9  N   UNL     1      51.411  18.799  20.408  0.00  0.00    -0.522 NA
ATOM     10  C   UNL     1      52.588  19.566  20.838  0.00  0.00    +0.237 C 
ATOM     11  C   UNL     1      52.319  21.039  20.703  0.00  0.00    -0.018 C 
ATOM     12  C   UNL     1      51.499  21.528  19.816  0.00  0.00    -0.011 C 
ATOM     13  C   UNL     1      50.735  20.687  18.859  0.00  0.00    -0.024 C 
ATOM     14  C   UNL     1      49.215  20.776  19.073  0.00  0.00    +0.092 C 
ATOM     15  C   UNL     1      48.714  19.380  18.755  0.00  0.00    +0.530 C 
ATOM     16  O   UNL     1      47.548  19.068  18.636  0.00  0.00    -0.505 OA
ATOM     17  C   UNL     1      51.104  20.949  17.391  0.00  0.00    +0.048 C 
ATOM     18  C   UNL     1      51.647  19.589  16.791  0.00  0.00    +0.042 C 
ATOM     19  C   UNL     1      50.994  19.189  19.080  0.00  0.00    +0.321 C 
ATOM     20  C   UNL     1      52.122  18.866  18.051  0.00  0.00    -0.035 C 
ATOM     21  N   UNL     1      49.757  18.539  18.628  0.00  0.00    -0.542 N 
ATOM     22  C   UNL     1      50.945  15.430  17.103  0.00  0.00    +0.035 A 
ENDROOT
TORSDOF 0
ENDMDL
MODEL 9
REMARK VINA RESULT:      -5.6     21.328     23.396
REMARK  Name = ZINC95486070
REMARK  0 active torsions:
REMARK  status: ('A' for Active; 'I' for Inactive)
REMARK                            x       y       z     vdW  Elec       q    Type
REMARK                         _______ _______ _______ _____ _____    ______ ____
ROOT
ATOM      1  C   UNL     1      58.287  32.080   4.513  0.00  0.00    -0.017 A 
ATOM      2  C   UNL     1      57.856  31.345   3.423  0.00  0.00    +0.037 A 
ATOM      3  C   UNL     1      56.562  31.493   2.961  0.00  0.00    -0.003 A 
ATOM      4  C   UNL     1      55.699  32.366   3.601  0.00  0.00    +0.177 A 
ATOM      5  C   UNL     1      56.125  33.094   4.707  0.00  0.00    -0.113 A 
ATOM      6  C   UNL     1      55.176  34.001   5.445  0.00  0.00    +0.056 C 
ATOM      7  C   UNL     1      54.476  33.157   6.536  0.00  0.00    +0.003 C 
ATOM      8  C   UNL     1      53.677  32.027   5.892  0.00  0.00    +0.213 C 
ATOM      9  N   UNL     1      52.710  32.529   4.900  0.00  0.00    -0.522 NA
ATOM     10  C   UNL     1      51.639  33.302   5.547  0.00  0.00    +0.237 C 
ATOM     11  C   UNL     1      50.714  33.866   4.505  0.00  0.00    -0.018 C 
ATOM     12  C   UNL     1      51.105  34.159   3.297  0.00  0.00    -0.011 C 
ATOM     13  C   UNL     1      52.495  33.955   2.817  0.00  0.00    -0.024 C 
ATOM     14  C   UNL     1      52.585  32.919   1.684  0.00  0.00    +0.092 C 
ATOM     15  C   UNL     1      53.905  32.213   1.932  0.00  0.00    +0.530 C 
ATOM     16  O   UNL     1      54.437  31.440   1.163  0.00  0.00    -0.505 OA
ATOM     17  C   UNL     1      53.203  35.262   2.430  0.00  0.00    +0.048 C 
ATOM     18  C   UNL     1      54.479  35.399   3.354  0.00  0.00    +0.042 C 
ATOM     19  C   UNL     1      53.385  33.317   3.894  0.00  0.00    +0.321 C 
ATOM     20  C   UNL     1      54.079  34.547   4.558  0.00  0.00    -0.035 C 
ATOM     21  N   UNL     1      54.395  32.572   3.133  0.00  0.00    -0.542 N 
ATOM     22  C   UNL     1      57.427  32.954   5.150  0.00  0.00    +0.035 A 
ENDROOT
TORSDOF 0
ENDMDL
