MODEL 1
REMARK VINA RESULT:      -5.3      0.000      0.000
REMARK  Name = ZINC15257800
REMARK  9 active torsions:
REMARK  status: ('A' for Active; 'I' for Inactive)
REMARK    1  A    between atoms: C1_1  and  C2_2
REMARK    2  A    between atoms: C2_2  and  C3_3
REMARK    3  A    between atoms: C2_2  and  C4_4
REMARK    4  A    between atoms: C2_2  and  O5_21
REMARK    5  A    between atoms: C5_5  and  C6_6
REMARK    6  A    between atoms: C7_7  and  O4_19
REMARK    7  A    between atoms: C9_9  and  O3_17
REMARK    8  A    between atoms: O3_17  and  C15_18
REMARK    9  A    between atoms: O4_19  and  C16_20
REMARK                            x       y       z     vdW  Elec       q    Type
REMARK                         _______ _______ _______ _____ _____    ______ ____
ROOT
ATOM      7  C   UNL     1      47.025  20.049  19.227  0.00  0.00    -0.144 A 
ATOM      8  C   UNL     1      46.234  19.241  18.401  0.00  0.00    +0.234 A 
ATOM     11  C   UNL     1      44.863  19.442  18.327  0.00  0.00    -0.175 A 
ATOM     12  C   UNL     1      44.261  20.442  19.068  0.00  0.00    +0.236 A 
ATOM     15  C   UNL     1      45.042  21.267  19.899  0.00  0.00    -0.223 A 
ATOM     16  C   UNL     1      44.441  22.302  20.661  0.00  0.00    +0.180 A 
ATOM     17  C   UNL     1      45.230  23.076  21.450  0.00  0.00    -0.109 A 
ATOM     18  C   UNL     1      46.618  22.842  21.499  0.00  0.00    +0.508 A 
ATOM     19  O   UNL     1      47.319  23.540  22.209  0.00  0.00    -0.461 OA
ATOM     20  O   UNL     1      47.179  21.853  20.783  0.00  0.00    -0.257 OA
ATOM     21  C   UNL     1      46.429  21.065  19.982  0.00  0.00    +0.233 A 
ENDROOT
BRANCH   7   6
ATOM      5  C   UNL     1      49.305  20.597  18.594  0.00  0.00    -0.010 C 
ATOM      6  C   UNL     1      48.483  19.830  19.299  0.00  0.00    +0.055 C 
BRANCH   5   2
ATOM      1  C   UNL     1      51.463  21.000  17.442  0.00  0.00    +0.018 C 
ATOM      2  C   UNL     1      50.793  20.374  18.666  0.00  0.00    +0.159 C 
ATOM     22  C   UNL     1      51.345  21.023  19.937  0.00  0.00    +0.019 C 
BRANCH   2   3
ATOM      3  O   UNL     1      51.063  18.971  18.692  0.00  0.00    -0.558 OA
ATOM      4  H   UNL     1      51.990  18.746  18.532  0.00  0.00    +0.378 HD
ENDBRANCH   2   3
ENDBRANCH   5   2
ENDBRANCH   7   6
BRANCH   8   9
ATOM      9  O   UNL     1      46.812  18.256  17.669  0.00  0.00    -0.291 OA
ATOM     10  C   UNL     1      46.180  16.974  17.694  0.00  0.00    +0.251 C 
ENDBRANCH   8   9
BRANCH  12  13
ATOM     13  O   UNL     1      42.920  20.631  18.990  0.00  0.00    -0.301 OA
ATOM     14  C   UNL     1      42.088  19.634  19.587  0.00  0.00    +0.258 C 
ENDBRANCH  12  13
TORSDOF 5
ENDMDL
MODEL 2
REMARK VINA RESULT:      -5.0      1.679      5.153
REMARK  Name = ZINC15257800
REMARK  9 active torsions:
REMARK  status: ('A' for Active; 'I' for Inactive)
REMARK    1  A    between atoms: C1_1  and  C2_2
REMARK    2  A    between atoms: C2_2  and  C3_3
REMARK    3  A    between atoms: C2_2  and  C4_4
REMARK    4  A    between atoms: C2_2  and  O5_21
REMARK    5  A    between atoms: C5_5  and  C6_6
REMARK    6  A    between atoms: C7_7  and  O4_19
REMARK    7  A    between atoms: C9_9  and  O3_17
REMARK    8  A    between atoms: O3_17  and  C15_18
REMARK    9  A    between atoms: O4_19  and  C16_20
REMARK                            x       y       z     vdW  Elec       q    Type
REMARK                         _______ _______ _______ _____ _____    ______ ____
ROOT
ATOM      7  C   UNL     1      46.124  20.137  18.827  0.00  0.00    -0.144 A 
ATOM      8  C   UNL     1      45.139  19.159  18.643  0.00  0.00    +0.234 A 
ATOM     11  C   UNL     1      45.495  17.842  18.390  0.00  0.00    -0.175 A 
ATOM     12  C   UNL     1      46.827  17.479  18.316  0.00  0.00    +0.236 A 
ATOM     15  C   UNL     1      47.830  18.449  18.505  0.00  0.00    -0.223 A 
ATOM     16  C   UNL     1      49.202  18.092  18.439  0.00  0.00    +0.180 A 
ATOM     17  C   UNL     1      50.139  19.057  18.627  0.00  0.00    -0.109 A 
ATOM     18  C   UNL     1      49.738  20.384  18.882  0.00  0.00    +0.508 A 
ATOM     19  O   UNL     1      50.584  21.244  19.049  0.00  0.00    -0.461 OA
ATOM     20  O   UNL     1      48.436  20.717  18.932  0.00  0.00    -0.257 OA
ATOM     21  C   UNL     1      47.475  19.784  18.756  0.00  0.00    +0.233 A 
ENDROOT
BRANCH   7   6
ATOM      5  C   UNL     1      45.444  21.916  20.335  0.00  0.00    -0.010 C 
ATOM      6  C   UNL     1      45.736  21.535  19.098  0.00  0.00    +0.055 C 
BRANCH   5   2
ATOM      1  C   UNL     1      46.241  24.099  21.199  0.00  0.00    +0.018 C 
ATOM      2  C   UNL     1      45.048  23.343  20.612  0.00  0.00    +0.159 C 
ATOM     22  C   UNL     1      44.612  24.014  19.307  0.00  0.00    +0.019 C 
BRANCH   2   3
ATOM      3  O   UNL     1      43.964  23.364  21.543  0.00  0.00    -0.558 OA
ATOM      4  H   UNL     1      44.121  22.841  22.340  0.00  0.00    +0.378 HD
ENDBRANCH   2   3
ENDBRANCH   5   2
ENDBRANCH   7   6
BRANCH   8   9
ATOM      9  O   UNL     1      43.827  19.501  18.712  0.00  0.00    -0.291 OA
ATOM     10  C   UNL     1      43.102  19.060  19.862  0.00  0.00    +0.251 C 
ENDBRANCH   8   9
BRANCH  12  13
ATOM     13  O   UNL     1      47.167  16.190  18.069  0.00  0.00    -0.301 OA
ATOM     14  C   UNL     1      46.262  15.181  18.522  0.00  0.00    +0.258 C 
ENDBRANCH  12  13
TORSDOF 5
ENDMDL
MODEL 3
REMARK VINA RESULT:      -5.0      2.046      6.766
REMARK  Name = ZINC15257800
REMARK  9 active torsions:
REMARK  status: ('A' for Active; 'I' for Inactive)
REMARK    1  A    between atoms: C1_1  and  C2_2
REMARK    2  A    between atoms: C2_2  and  C3_3
REMARK    3  A    between atoms: C2_2  and  C4_4
REMARK    4  A    between atoms: C2_2  and  O5_21
REMARK    5  A    between atoms: C5_5  and  C6_6
REMARK    6  A    between atoms: C7_7  and  O4_19
REMARK    7  A    between atoms: C9_9  and  O3_17
REMARK    8  A    between atoms: O3_17  and  C15_18
REMARK    9  A    between atoms: O4_19  and  C16_20
REMARK                            x       y       z     vdW  Elec       q    Type
REMARK                         _______ _______ _______ _____ _____    ______ ____
ROOT
ATOM      7  C   UNL     1      44.950  19.883  19.460  0.00  0.00    -0.144 A 
ATOM      8  C   UNL     1      45.708  21.026  19.175  0.00  0.00    +0.234 A 
ATOM     11  C   UNL     1      47.076  20.928  18.969  0.00  0.00    -0.175 A 
ATOM     12  C   UNL     1      47.710  19.702  19.044  0.00  0.00    +0.236 A 
ATOM     15  C   UNL     1      46.963  18.543  19.324  0.00  0.00    -0.223 A 
ATOM     16  C   UNL     1      47.596  17.275  19.398  0.00  0.00    +0.180 A 
ATOM     17  C   UNL     1      46.840  16.180  19.670  0.00  0.00    -0.109 A 
ATOM     18  C   UNL     1      45.453  16.318  19.873  0.00  0.00    +0.508 A 
ATOM     19  O   UNL     1      44.781  15.333  20.117  0.00  0.00    -0.461 OA
ATOM     20  O   UNL     1      44.861  17.524  19.812  0.00  0.00    -0.257 OA
ATOM     21  C   UNL     1      45.578  18.635  19.538  0.00  0.00    +0.233 A 
ENDROOT
BRANCH   7   6
ATOM      5  C   UNL     1      42.691  20.260  18.654  0.00  0.00    -0.010 C 
ATOM      6  C   UNL     1      43.495  19.995  19.676  0.00  0.00    +0.055 C 
BRANCH   5   2
ATOM      1  C   UNL     1      40.765  21.821  18.641  0.00  0.00    +0.018 C 
ATOM      2  C   UNL     1      41.204  20.375  18.874  0.00  0.00    +0.159 C 
ATOM     22  C   UNL     1      40.471  19.456  17.894  0.00  0.00    +0.019 C 
BRANCH   2   3
ATOM      3  O   UNL     1      40.890  19.990  20.214  0.00  0.00    -0.558 OA
ATOM      4  H   UNL     1      40.335  19.202  20.276  0.00  0.00    +0.378 HD
ENDBRANCH   2   3
ENDBRANCH   5   2
ENDBRANCH   7   6
BRANCH   8   9
ATOM      9  O   UNL     1      45.099  22.236  19.099  0.00  0.00    -0.291 OA
ATOM     10  C   UNL     1      45.170  23.071  20.256  0.00  0.00    +0.251 C 
ENDBRANCH   8   9
BRANCH  12  13
ATOM     13  O   UNL     1      49.048  19.615  18.842  0.00  0.00    -0.301 OA
ATOM     14  C   UNL     1      49.816  20.801  19.061  0.00  0.00    +0.258 C 
ENDBRANCH  12  13
TORSDOF 5
ENDMDL
MODEL 4
REMARK VINA RESULT:      -4.9      2.228      5.944
REMARK  Name = ZINC15257800
REMARK  9 active torsions:
REMARK  status: ('A' for Active; 'I' for Inactive)
REMARK    1  A    between atoms: C1_1  and  C2_2
REMARK    2  A    between atoms: C2_2  and  C3_3
REMARK    3  A    between atoms: C2_2  and  C4_4
REMARK    4  A    between atoms: C2_2  and  O5_21
REMARK    5  A    between atoms: C5_5  and  C6_6
REMARK    6  A    between atoms: C7_7  and  O4_19
REMARK    7  A    between atoms: C9_9  and  O3_17
REMARK    8  A    between atoms: O3_17  and  C15_18
REMARK    9  A    between atoms: O4_19  and  C16_20
REMARK                            x       y       z     vdW  Elec       q    Type
REMARK                         _______ _______ _______ _____ _____    ______ ____
ROOT
ATOM      7  C   UNL     1      48.619  19.025  18.662  0.00  0.00    -0.144 A 
ATOM      8  C   UNL     1      48.240  17.851  17.999  0.00  0.00    +0.234 A 
ATOM     11  C   UNL     1      49.171  17.121  17.275  0.00  0.00    -0.175 A 
ATOM     12  C   UNL     1      50.485  17.543  17.199  0.00  0.00    +0.236 A 
ATOM     15  C   UNL     1      50.885  18.717  17.865  0.00  0.00    -0.223 A 
ATOM     16  C   UNL     1      52.231  19.161  17.803  0.00  0.00    +0.180 A 
ATOM     17  C   UNL     1      52.577  20.298  18.459  0.00  0.00    -0.109 A 
ATOM     18  C   UNL     1      51.603  21.013  19.184  0.00  0.00    +0.508 A 
ATOM     19  O   UNL     1      51.919  22.032  19.771  0.00  0.00    -0.461 OA
ATOM     20  O   UNL     1      50.326  20.593  19.230  0.00  0.00    -0.257 OA
ATOM     21  C   UNL     1      49.946  19.463  18.595  0.00  0.00    +0.233 A 
ENDROOT
BRANCH   7   6
ATOM      5  C   UNL     1      46.754  20.574  18.800  0.00  0.00    -0.010 C 
ATOM      6  C   UNL     1      47.622  19.795  19.431  0.00  0.00    +0.055 C 
BRANCH   5   2
ATOM      1  C   UNL     1      44.660  20.415  20.118  0.00  0.00    +0.018 C 
ATOM      2  C   UNL     1      45.737  21.362  19.585  0.00  0.00    +0.159 C 
ATOM     22  C   UNL     1      46.427  22.060  20.758  0.00  0.00    +0.019 C 
BRANCH   2   3
ATOM      3  O   UNL     1      45.134  22.340  18.736  0.00  0.00    -0.558 OA
ATOM      4  H   UNL     1      45.542  23.214  18.792  0.00  0.00    +0.378 HD
ENDBRANCH   2   3
ENDBRANCH   5   2
ENDBRANCH   7   6
BRANCH   8   9
ATOM      9  O   UNL     1      46.953  17.426  18.064  0.00  0.00    -0.291 OA
ATOM     10  C   UNL     1      46.487  16.604  16.992  0.00  0.00    +0.251 C 
ENDBRANCH   8   9
BRANCH  12  13
ATOM     13  O   UNL     1      51.390  16.824  16.489  0.00  0.00    -0.301 OA
ATOM     14  C   UNL     1      51.437  15.417  16.735  0.00  0.00    +0.258 C 
ENDBRANCH  12  13
TORSDOF 5
ENDMDL
MODEL 5
REMARK VINA RESULT:      -4.8      1.820      6.657
REMARK  Name = ZINC15257800
REMARK  9 active torsions:
REMARK  status: ('A' for Active; 'I' for Inactive)
REMARK    1  A    between atoms: C1_1  and  C2_2
REMARK    2  A    between atoms: C2_2  and  C3_3
REMARK    3  A    between atoms: C2_2  and  C4_4
REMARK    4  A    between atoms: C2_2  and  O5_21
REMARK    5  A    between atoms: C5_5  and  C6_6
REMARK    6  A    between atoms: C7_7  and  O4_19
REMARK    7  A    between atoms: C9_9  and  O3_17
REMARK    8  A    between atoms: O3_17  and  C15_18
REMARK    9  A    between atoms: O4_19  and  C16_20
REMARK                            x       y       z     vdW  Elec       q    Type
REMARK                         _______ _______ _______ _____ _____    ______ ____
ROOT
ATOM      7  C   UNL     1      45.460  20.150  19.840  0.00  0.00    -0.144 A 
ATOM      8  C   UNL     1      45.981  21.178  20.634  0.00  0.00    +0.234 A 
ATOM     11  C   UNL     1      47.353  21.367  20.728  0.00  0.00    -0.175 A 
ATOM     12  C   UNL     1      48.222  20.542  20.038  0.00  0.00    +0.236 A 
ATOM     15  C   UNL     1      47.714  19.508  19.230  0.00  0.00    -0.223 A 
ATOM     16  C   UNL     1      48.592  18.656  18.510  0.00  0.00    +0.180 A 
ATOM     17  C   UNL     1      48.063  17.670  17.741  0.00  0.00    -0.109 A 
ATOM     18  C   UNL     1      46.665  17.508  17.671  0.00  0.00    +0.508 A 
ATOM     19  O   UNL     1      46.198  16.622  16.980  0.00  0.00    -0.461 OA
ATOM     20  O   UNL     1      45.840  18.312  18.365  0.00  0.00    -0.257 OA
ATOM     21  C   UNL     1      46.328  19.308  19.136  0.00  0.00    +0.233 A 
ENDROOT
BRANCH   7   6
ATOM      5  C   UNL     1      43.298  20.634  18.844  0.00  0.00    -0.010 C 
ATOM      6  C   UNL     1      44.000  19.956  19.744  0.00  0.00    +0.055 C 
BRANCH   5   2
ATOM      1  C   UNL     1      41.329  19.572  19.913  0.00  0.00    +0.018 C 
ATOM      2  C   UNL     1      41.808  20.437  18.746  0.00  0.00    +0.159 C 
ATOM     22  C   UNL     1      41.109  21.797  18.801  0.00  0.00    +0.019 C 
BRANCH   2   3
ATOM      3  O   UNL     1      41.493  19.789  17.512  0.00  0.00    -0.558 OA
ATOM      4  H   UNL     1      40.549  19.629  17.382  0.00  0.00    +0.378 HD
ENDBRANCH   2   3
ENDBRANCH   5   2
ENDBRANCH   7   6
BRANCH   8   9
ATOM      9  O   UNL     1      45.140  21.995  21.317  0.00  0.00    -0.291 OA
ATOM     10  C   UNL     1      45.226  23.393  21.038  0.00  0.00    +0.251 C 
ENDBRANCH   8   9
BRANCH  12  13
ATOM     13  O   UNL     1      49.561  20.734  20.135  0.00  0.00    -0.301 OA
ATOM     14  C   UNL     1      50.123  20.733  21.449  0.00  0.00    +0.258 C 
ENDBRANCH  12  13
TORSDOF 5
ENDMDL
MODEL 6
REMARK VINA RESULT:      -4.7      2.167      5.567
REMARK  Name = ZINC15257800
REMARK  9 active torsions:
REMARK  status: ('A' for Active; 'I' for Inactive)
REMARK    1  A    between atoms: C1_1  and  C2_2
REMARK    2  A    between atoms: C2_2  and  C3_3
REMARK    3  A    between atoms: C2_2  and  C4_4
REMARK    4  A    between atoms: C2_2  and  O5_21
REMARK    5  A    between atoms: C5_5  and  C6_6
REMARK    6  A    between atoms: C7_7  and  O4_19
REMARK    7  A    between atoms: C9_9  and  O3_17
REMARK    8  A    between atoms: O3_17  and  C15_18
REMARK    9  A    between atoms: O4_19  and  C16_20
REMARK                            x       y       z     vdW  Elec       q    Type
REMARK                         _______ _______ _______ _____ _____    ______ ____
ROOT
ATOM      7  C   UNL     1      48.010  17.752  18.950  0.00  0.00    -0.144 A 
ATOM      8  C   UNL     1      47.021  18.125  19.869  0.00  0.00    +0.234 A 
ATOM     11  C   UNL     1      47.013  19.401  20.414  0.00  0.00    -0.175 A 
ATOM     12  C   UNL     1      47.983  20.320  20.058  0.00  0.00    +0.236 A 
ATOM     15  C   UNL     1      48.980  19.964  19.131  0.00  0.00    -0.223 A 
ATOM     16  C   UNL     1      49.979  20.897  18.750  0.00  0.00    +0.180 A 
ATOM     17  C   UNL     1      50.924  20.515  17.853  0.00  0.00    -0.109 A 
ATOM     18  C   UNL     1      50.899  19.211  17.320  0.00  0.00    +0.508 A 
ATOM     19  O   UNL     1      51.750  18.875  16.517  0.00  0.00    -0.461 OA
ATOM     20  O   UNL     1      49.956  18.328  17.695  0.00  0.00    -0.257 OA
ATOM     21  C   UNL     1      48.996  18.673  18.580  0.00  0.00    +0.233 A 
ENDROOT
BRANCH   7   6
ATOM      5  C   UNL     1      47.265  16.125  17.309  0.00  0.00    -0.010 C 
ATOM      6  C   UNL     1      48.010  16.394  18.373  0.00  0.00    +0.055 C 
BRANCH   5   2
ATOM      1  C   UNL     1      48.700  14.220  16.633  0.00  0.00    +0.018 C 
ATOM      2  C   UNL     1      47.264  14.738  16.719  0.00  0.00    +0.159 C 
ATOM     22  C   UNL     1      46.439  13.807  17.609  0.00  0.00    +0.019 C 
BRANCH   2   3
ATOM      3  O   UNL     1      46.691  14.778  15.410  0.00  0.00    -0.558 OA
ATOM      4  H   UNL     1      46.033  14.088  15.248  0.00  0.00    +0.378 HD
ENDBRANCH   2   3
ENDBRANCH   5   2
ENDBRANCH   7   6
BRANCH   8   9
ATOM      9  O   UNL     1      46.064  17.232  20.228  0.00  0.00    -0.291 OA
ATOM     10  C   UNL     1      44.720  17.536  19.848  0.00  0.00    +0.251 C 
ENDBRANCH   8   9
BRANCH  12  13
ATOM     13  O   UNL     1      47.968  21.565  20.596  0.00  0.00    -0.301 OA
ATOM     14  C   UNL     1      46.732  22.016  21.154  0.00  0.00    +0.258 C 
ENDBRANCH  12  13
TORSDOF 5
ENDMDL
MODEL 7
REMARK VINA RESULT:      -4.7      1.994      4.360
REMARK  Name = ZINC15257800
REMARK  9 active torsions:
REMARK  status: ('A' for Active; 'I' for Inactive)
REMARK    1  A    between atoms: C1_1  and  C2_2
REMARK    2  A    between atoms: C2_2  and  C3_3
REMARK    3  A    between atoms: C2_2  and  C4_4
REMARK    4  A    between atoms: C2_2  and  O5_21
REMARK    5  A    between atoms: C5_5  and  C6_6
REMARK    6  A    between atoms: C7_7  and  O4_19
REMARK    7  A    between atoms: C9_9  and  O3_17
REMARK    8  A    between atoms: O3_17  and  C15_18
REMARK    9  A    between atoms: O4_19  and  C16_20
REMARK                            x       y       z     vdW  Elec       q    Type
REMARK                         _______ _______ _______ _____ _____    ______ ____
ROOT
ATOM      7  C   UNL     1      47.945  20.160  19.675  0.00  0.00    -0.144 A 
ATOM      8  C   UNL     1      47.474  20.777  20.840  0.00  0.00    +0.234 A 
ATOM     11  C   UNL     1      46.367  20.270  21.506  0.00  0.00    -0.175 A 
ATOM     12  C   UNL     1      45.716  19.148  21.027  0.00  0.00    +0.236 A 
ATOM     15  C   UNL     1      46.181  18.511  19.861  0.00  0.00    -0.223 A 
ATOM     16  C   UNL     1      45.528  17.355  19.360  0.00  0.00    +0.180 A 
ATOM     17  C   UNL     1      46.008  16.770  18.232  0.00  0.00    -0.109 A 
ATOM     18  C   UNL     1      47.134  17.314  17.584  0.00  0.00    +0.508 A 
ATOM     19  O   UNL     1      47.558  16.784  16.573  0.00  0.00    -0.461 OA
ATOM     20  O   UNL     1      47.741  18.416  18.058  0.00  0.00    -0.257 OA
ATOM     21  C   UNL     1      47.297  19.023  19.180  0.00  0.00    +0.233 A 
ENDROOT
BRANCH   7   6
ATOM      5  C   UNL     1      50.329  20.202  19.211  0.00  0.00    -0.010 C 
ATOM      6  C   UNL     1      49.124  20.705  18.974  0.00  0.00    +0.055 C 
BRANCH   5   2
ATOM      1  C   UNL     1      52.597  19.667  18.363  0.00  0.00    +0.018 C 
ATOM      2  C   UNL     1      51.533  20.758  18.496  0.00  0.00    +0.159 C 
ATOM     22  C   UNL     1      51.121  21.241  17.104  0.00  0.00    +0.019 C 
BRANCH   2   3
ATOM      3  O   UNL     1      52.065  21.855  19.242  0.00  0.00    -0.558 OA
ATOM      4  H   UNL     1      52.620  21.590  19.988  0.00  0.00    +0.378 HD
ENDBRANCH   2   3
ENDBRANCH   5   2
ENDBRANCH   7   6
BRANCH   8   9
ATOM      9  O   UNL     1      48.103  21.880  21.320  0.00  0.00    -0.291 OA
ATOM     10  C   UNL     1      47.563  22.469  22.505  0.00  0.00    +0.251 C 
ENDBRANCH   8   9
BRANCH  12  13
ATOM     13  O   UNL     1      44.635  18.658  21.684  0.00  0.00    -0.301 OA
ATOM     14  C   UNL     1      43.681  19.609  22.163  0.00  0.00    +0.258 C 
ENDBRANCH  12  13
TORSDOF 5
ENDMDL
MODEL 8
REMARK VINA RESULT:      -4.6      2.731      4.529
REMARK  Name = ZINC15257800
REMARK  9 active torsions:
REMARK  status: ('A' for Active; 'I' for Inactive)
REMARK    1  A    between atoms: C1_1  and  C2_2
REMARK    2  A    between atoms: C2_2  and  C3_3
REMARK    3  A    between atoms: C2_2  and  C4_4
REMARK    4  A    between atoms: C2_2  and  O5_21
REMARK    5  A    between atoms: C5_5  and  C6_6
REMARK    6  A    between atoms: C7_7  and  O4_19
REMARK    7  A    between atoms: C9_9  and  O3_17
REMARK    8  A    between atoms: O3_17  and  C15_18
REMARK    9  A    between atoms: O4_19  and  C16_20
REMARK                            x       y       z     vdW  Elec       q    Type
REMARK                         _______ _______ _______ _____ _____    ______ ____
ROOT
ATOM      7  C   UNL     1      49.150  17.245  18.113  0.00  0.00    -0.144 A 
ATOM      8  C   UNL     1      49.286  15.862  17.948  0.00  0.00    +0.234 A 
ATOM     11  C   UNL     1      48.176  15.033  18.023  0.00  0.00    -0.175 A 
ATOM     12  C   UNL     1      46.922  15.562  18.263  0.00  0.00    +0.236 A 
ATOM     15  C   UNL     1      46.766  16.951  18.425  0.00  0.00    -0.223 A 
ATOM     16  C   UNL     1      45.485  17.512  18.666  0.00  0.00    +0.180 A 
ATOM     17  C   UNL     1      45.377  18.857  18.817  0.00  0.00    -0.109 A 
ATOM     18  C   UNL     1      46.526  19.667  18.734  0.00  0.00    +0.508 A 
ATOM     19  O   UNL     1      46.422  20.872  18.871  0.00  0.00    -0.461 OA
ATOM     20  O   UNL     1      47.739  19.128  18.517  0.00  0.00    -0.257 OA
ATOM     21  C   UNL     1      47.886  17.795  18.356  0.00  0.00    +0.233 A 
ENDROOT
BRANCH   7   6
ATOM      5  C   UNL     1      50.642  18.716  16.884  0.00  0.00    -0.010 C 
ATOM      6  C   UNL     1      50.335  18.121  18.030  0.00  0.00    +0.055 C 
BRANCH   5   2
ATOM      1  C   UNL     1      51.403  21.065  16.662  0.00  0.00    +0.018 C 
ATOM      2  C   UNL     1      51.852  19.609  16.799  0.00  0.00    +0.159 C 
ATOM     22  C   UNL     1      52.693  19.452  18.067  0.00  0.00    +0.019 C 
BRANCH   2   3
ATOM      3  O   UNL     1      52.635  19.243  15.660  0.00  0.00    -0.558 OA
ATOM      4  H   UNL     1      52.810  18.295  15.592  0.00  0.00    +0.378 HD
ENDBRANCH   2   3
ENDBRANCH   5   2
ENDBRANCH   7   6
BRANCH   8   9
ATOM      9  O   UNL     1      50.512  15.329  17.712  0.00  0.00    -0.291 OA
ATOM     10  C   UNL     1      50.568  14.185  16.857  0.00  0.00    +0.251 C 
ENDBRANCH   8   9
BRANCH  12  13
ATOM     13  O   UNL     1      45.842  14.744  18.335  0.00  0.00    -0.301 OA
ATOM     14  C   UNL     1      46.028  13.386  17.929  0.00  0.00    +0.258 C 
ENDBRANCH  12  13
TORSDOF 5
ENDMDL
MODEL 9
REMARK VINA RESULT:      -4.6      2.443      3.952
REMARK  Name = ZINC15257800
REMARK  9 active torsions:
REMARK  status: ('A' for Active; 'I' for Inactive)
REMARK    1  A    between atoms: C1_1  and  C2_2
REMARK    2  A    between atoms: C2_2  and  C3_3
REMARK    3  A    between atoms: C2_2  and  C4_4
REMARK    4  A    between atoms: C2_2  and  O5_21
REMARK    5  A    between atoms: C5_5  and  C6_6
REMARK    6  A    between atoms: C7_7  and  O4_19
REMARK    7  A    between atoms: C9_9  and  O3_17
REMARK    8  A    between atoms: O3_17  and  C15_18
REMARK    9  A    between atoms: O4_19  and  C16_20
REMARK                            x       y       z     vdW  Elec       q    Type
REMARK                         _______ _______ _______ _____ _____    ______ ____
ROOT
ATOM      7  C   UNL     1      48.784  17.776  18.778  0.00  0.00    -0.144 A 
ATOM      8  C   UNL     1      48.930  16.391  18.922  0.00  0.00    +0.234 A 
ATOM     11  C   UNL     1      47.816  15.580  19.083  0.00  0.00    -0.175 A 
ATOM     12  C   UNL     1      46.548  16.129  19.104  0.00  0.00    +0.236 A 
ATOM     15  C   UNL     1      46.382  17.518  18.954  0.00  0.00    -0.223 A 
ATOM     16  C   UNL     1      45.087  18.098  18.967  0.00  0.00    +0.180 A 
ATOM     17  C   UNL     1      44.970  19.443  18.818  0.00  0.00    -0.109 A 
ATOM     18  C   UNL     1      46.124  20.234  18.657  0.00  0.00    +0.508 A 
ATOM     19  O   UNL     1      46.012  21.439  18.525  0.00  0.00    -0.461 OA
ATOM     20  O   UNL     1      47.349  19.679  18.657  0.00  0.00    -0.257 OA
ATOM     21  C   UNL     1      47.506  18.345  18.796  0.00  0.00    +0.233 A 
ENDROOT
BRANCH   7   6
ATOM      5  C   UNL     1      50.520  18.774  17.404  0.00  0.00    -0.010 C 
ATOM      6  C   UNL     1      49.974  18.632  18.605  0.00  0.00    +0.055 C 
BRANCH   5   2
ATOM      1  C   UNL     1      52.046  19.794  15.736  0.00  0.00    +0.018 C 
ATOM      2  C   UNL     1      51.736  19.647  17.227  0.00  0.00    +0.159 C 
ATOM     22  C   UNL     1      51.465  21.027  17.829  0.00  0.00    +0.019 C 
BRANCH   2   3
ATOM      3  O   UNL     1      52.852  19.049  17.890  0.00  0.00    -0.558 OA
ATOM      4  H   UNL     1      53.294  18.362  17.373  0.00  0.00    +0.378 HD
ENDBRANCH   2   3
ENDBRANCH   5   2
ENDBRANCH   7   6
BRANCH   8   9
ATOM      9  O   UNL     1      50.170  15.839  18.904  0.00  0.00    -0.291 OA
ATOM     10  C   UNL     1      50.537  15.036  20.028  0.00  0.00    +0.251 C 
ENDBRANCH   8   9
BRANCH  12  13
ATOM     13  O   UNL     1      45.464  15.329  19.262  0.00  0.00    -0.301 OA
ATOM     14  C   UNL     1      45.301  14.701  20.536  0.00  0.00    +0.258 C 
ENDBRANCH  12  13
TORSDOF 5
ENDMDL
