MODEL 1
REMARK VINA RESULT:      -5.7      0.000      0.000
REMARK  Name = ZINC95486209
REMARK  8 active torsions:
REMARK  status: ('A' for Active; 'I' for Inactive)
REMARK    1  A    between atoms: C1_1  and  O1_2
REMARK    2  A    between atoms: O1_2  and  C2_3
REMARK    3  A    between atoms: C3_4  and  O8_23
REMARK    4  A    between atoms: C5_6  and  O7_22
REMARK    5  A    between atoms: C10_12  and  O6_21
REMARK    6  A    between atoms: C11_13  and  O5_19
REMARK    7  A    between atoms: C12_14  and  O4_18
REMARK    8  A    between atoms: O5_19  and  C15_20
REMARK                            x       y       z     vdW  Elec       q    Type
REMARK                         _______ _______ _______ _____ _____    ______ ____
ROOT
ATOM      3  C   UNL     1      44.504  19.551  19.481  0.00  0.00    +0.034 A 
ATOM      4  C   UNL     1      43.626  19.977  20.469  0.00  0.00    +0.176 A 
ATOM      7  C   UNL     1      43.194  19.102  21.459  0.00  0.00    -0.034 A 
ATOM      8  C   UNL     1      43.634  17.791  21.464  0.00  0.00    +0.217 A 
ATOM     11  C   UNL     1      44.512  17.352  20.466  0.00  0.00    -0.254 A 
ATOM     12  C   UNL     1      44.985  15.956  20.431  0.00  0.00    +0.444 A 
ATOM     13  O   UNL     1      44.830  15.197  21.371  0.00  0.00    -0.412 OA
ATOM     14  C   UNL     1      45.645  15.531  19.179  0.00  0.00    -0.254 A 
ATOM     15  C   UNL     1      45.888  14.179  18.915  0.00  0.00    +0.201 A 
ATOM     18  C   UNL     1      46.499  13.815  17.725  0.00  0.00    +0.013 A 
ATOM     21  C   UNL     1      46.869  14.795  16.806  0.00  0.00    +0.175 A 
ATOM     24  C   UNL     1      46.636  16.135  17.069  0.00  0.00    -0.010 A 
ATOM     25  C   UNL     1      46.028  16.520  18.256  0.00  0.00    +0.183 A 
ATOM     26  O   UNL     1      45.814  17.829  18.509  0.00  0.00    -0.208 OA
ATOM     27  C   UNL     1      44.955  18.235  19.467  0.00  0.00    +0.171 A 
ENDROOT
BRANCH   3   2
ATOM      1  C   UNL     1      46.133  21.133  18.767  0.00  0.00    +0.227 C 
ATOM      2  O   UNL     1      44.918  20.422  18.519  0.00  0.00    -0.309 OA
ENDBRANCH   3   2
BRANCH   4   5
ATOM      5  O   UNL     1      43.186  21.262  20.469  0.00  0.00    -0.474 OA
ATOM      6  H   UNL     1      42.572  21.468  19.751  0.00  0.00    +0.400 HD
ENDBRANCH   4   5
BRANCH   8   9
ATOM      9  O   UNL     1      43.217  16.935  22.432  0.00  0.00    -0.470 OA
ATOM     10  H   UNL     1      43.824  16.863  23.182  0.00  0.00    +0.403 HD
ENDBRANCH   8   9
BRANCH  15  16
ATOM     16  O   UNL     1      45.530  13.230  19.817  0.00  0.00    -0.463 OA
ATOM     17  H   UNL     1      45.691  13.481  20.738  0.00  0.00    +0.402 HD
ENDBRANCH  15  16
BRANCH  18  19
ATOM     19  O   UNL     1      46.738  12.501  17.454  0.00  0.00    -0.309 OA
ATOM     20  C   UNL     1      45.724  11.794  16.738  0.00  0.00    +0.224 C 
ENDBRANCH  18  19
BRANCH  21  22
ATOM     22  O   UNL     1      47.462  14.432  15.639  0.00  0.00    -0.475 OA
ATOM     23  H   UNL     1      46.838  14.245  14.923  0.00  0.00    +0.400 HD
ENDBRANCH  21  22
TORSDOF 6
ENDMDL
MODEL 2
REMARK VINA RESULT:      -5.4      3.463      4.887
REMARK  Name = ZINC95486209
REMARK  8 active torsions:
REMARK  status: ('A' for Active; 'I' for Inactive)
REMARK    1  A    between atoms: C1_1  and  O1_2
REMARK    2  A    between atoms: O1_2  and  C2_3
REMARK    3  A    between atoms: C3_4  and  O8_23
REMARK    4  A    between atoms: C5_6  and  O7_22
REMARK    5  A    between atoms: C10_12  and  O6_21
REMARK    6  A    between atoms: C11_13  and  O5_19
REMARK    7  A    between atoms: C12_14  and  O4_18
REMARK    8  A    between atoms: O5_19  and  C15_20
REMARK                            x       y       z     vdW  Elec       q    Type
REMARK                         _______ _______ _______ _____ _____    ______ ____
ROOT
ATOM      3  C   UNL     1      45.137  20.403  20.338  0.00  0.00    +0.034 A 
ATOM      4  C   UNL     1      43.953  19.678  20.389  0.00  0.00    +0.176 A 
ATOM      7  C   UNL     1      43.930  18.332  20.048  0.00  0.00    -0.034 A 
ATOM      8  C   UNL     1      45.094  17.699  19.648  0.00  0.00    +0.217 A 
ATOM     11  C   UNL     1      46.289  18.425  19.586  0.00  0.00    -0.254 A 
ATOM     12  C   UNL     1      47.543  17.787  19.145  0.00  0.00    +0.444 A 
ATOM     13  O   UNL     1      47.651  16.578  19.041  0.00  0.00    -0.412 OA
ATOM     14  C   UNL     1      48.654  18.705  18.823  0.00  0.00    -0.254 A 
ATOM     15  C   UNL     1      49.789  18.253  18.140  0.00  0.00    +0.201 A 
ATOM     18  C   UNL     1      50.808  19.145  17.844  0.00  0.00    +0.013 A 
ATOM     21  C   UNL     1      50.697  20.480  18.229  0.00  0.00    +0.175 A 
ATOM     24  C   UNL     1      49.578  20.927  18.912  0.00  0.00    -0.010 A 
ATOM     25  C   UNL     1      48.548  20.049  19.221  0.00  0.00    +0.183 A 
ATOM     26  O   UNL     1      47.466  20.492  19.895  0.00  0.00    -0.208 OA
ATOM     27  C   UNL     1      46.316  19.786  19.935  0.00  0.00    +0.171 A 
ENDROOT
BRANCH   3   2
ATOM      1  C   UNL     1      44.845  22.660  19.641  0.00  0.00    +0.227 C 
ATOM      2  O   UNL     1      45.141  21.722  20.677  0.00  0.00    -0.309 OA
ENDBRANCH   3   2
BRANCH   4   5
ATOM      5  O   UNL     1      42.805  20.293  20.777  0.00  0.00    -0.474 OA
ATOM      6  H   UNL     1      42.828  21.256  20.699  0.00  0.00    +0.400 HD
ENDBRANCH   4   5
BRANCH   8   9
ATOM      9  O   UNL     1      45.076  16.382  19.318  0.00  0.00    -0.470 OA
ATOM     10  H   UNL     1      45.021  16.216  18.367  0.00  0.00    +0.403 HD
ENDBRANCH   8   9
BRANCH  15  16
ATOM     16  O   UNL     1      49.893  16.950  17.772  0.00  0.00    -0.463 OA
ATOM     17  H   UNL     1      49.116  16.417  17.990  0.00  0.00    +0.402 HD
ENDBRANCH  15  16
BRANCH  18  19
ATOM     19  O   UNL     1      51.916  18.718  17.176  0.00  0.00    -0.309 OA
ATOM     20  C   UNL     1      51.900  18.839  15.752  0.00  0.00    +0.224 C 
ENDBRANCH  18  19
BRANCH  21  22
ATOM     22  O   UNL     1      51.695  21.351  17.931  0.00  0.00    -0.475 OA
ATOM     23  H   UNL     1      52.039  21.832  18.697  0.00  0.00    +0.400 HD
ENDBRANCH  21  22
TORSDOF 6
ENDMDL
MODEL 3
REMARK VINA RESULT:      -5.3      1.234      6.765
REMARK  Name = ZINC95486209
REMARK  8 active torsions:
REMARK  status: ('A' for Active; 'I' for Inactive)
REMARK    1  A    between atoms: C1_1  and  O1_2
REMARK    2  A    between atoms: O1_2  and  C2_3
REMARK    3  A    between atoms: C3_4  and  O8_23
REMARK    4  A    between atoms: C5_6  and  O7_22
REMARK    5  A    between atoms: C10_12  and  O6_21
REMARK    6  A    between atoms: C11_13  and  O5_19
REMARK    7  A    between atoms: C12_14  and  O4_18
REMARK    8  A    between atoms: O5_19  and  C15_20
REMARK                            x       y       z     vdW  Elec       q    Type
REMARK                         _______ _______ _______ _____ _____    ______ ____
ROOT
ATOM      3  C   UNL     1      45.670  14.179  19.396  0.00  0.00    +0.034 A 
ATOM      4  C   UNL     1      46.351  13.549  18.362  0.00  0.00    +0.176 A 
ATOM      7  C   UNL     1      46.894  14.288  17.318  0.00  0.00    -0.034 A 
ATOM      8  C   UNL     1      46.755  15.664  17.297  0.00  0.00    +0.217 A 
ATOM     11  C   UNL     1      46.062  16.304  18.331  0.00  0.00    -0.254 A 
ATOM     12  C   UNL     1      45.878  17.767  18.330  0.00  0.00    +0.444 A 
ATOM     13  O   UNL     1      46.501  18.496  17.579  0.00  0.00    -0.412 OA
ATOM     14  C   UNL     1      44.882  18.291  19.287  0.00  0.00    -0.254 A 
ATOM     15  C   UNL     1      44.419  19.609  19.196  0.00  0.00    +0.201 A 
ATOM     18  C   UNL     1      43.475  20.064  20.103  0.00  0.00    +0.013 A 
ATOM     21  C   UNL     1      42.998  19.212  21.096  0.00  0.00    +0.175 A 
ATOM     24  C   UNL     1      43.460  17.910  21.192  0.00  0.00    -0.010 A 
ATOM     25  C   UNL     1      44.408  17.435  20.296  0.00  0.00    +0.183 A 
ATOM     26  O   UNL     1      44.861  16.168  20.403  0.00  0.00    -0.208 OA
ATOM     27  C   UNL     1      45.516  15.561  19.392  0.00  0.00    +0.171 A 
ENDROOT
BRANCH   3   2
ATOM      1  C   UNL     1      45.932  13.316  21.599  0.00  0.00    +0.227 C 
ATOM      2  O   UNL     1      45.145  13.439  20.412  0.00  0.00    -0.309 OA
ENDBRANCH   3   2
BRANCH   4   5
ATOM      5  O   UNL     1      46.489  12.198  18.372  0.00  0.00    -0.474 OA
ATOM      6  H   UNL     1      45.667  11.720  18.549  0.00  0.00    +0.400 HD
ENDBRANCH   4   5
BRANCH   8   9
ATOM      9  O   UNL     1      47.288  16.389  16.280  0.00  0.00    -0.470 OA
ATOM     10  H   UNL     1      48.147  16.066  15.976  0.00  0.00    +0.403 HD
ENDBRANCH   8   9
BRANCH  15  16
ATOM     16  O   UNL     1      44.892  20.436  18.228  0.00  0.00    -0.463 OA
ATOM     17  H   UNL     1      44.648  20.172  17.331  0.00  0.00    +0.402 HD
ENDBRANCH  15  16
BRANCH  18  19
ATOM     19  O   UNL     1      43.013  21.344  20.023  0.00  0.00    -0.309 OA
ATOM     20  C   UNL     1      41.932  21.586  19.121  0.00  0.00    +0.224 C 
ENDBRANCH  18  19
BRANCH  21  22
ATOM     22  O   UNL     1      42.068  19.661  21.978  0.00  0.00    -0.475 OA
ATOM     23  H   UNL     1      41.161  19.628  21.644  0.00  0.00    +0.400 HD
ENDBRANCH  21  22
TORSDOF 6
ENDMDL
MODEL 4
REMARK VINA RESULT:      -5.1     22.179     24.177
REMARK  Name = ZINC95486209
REMARK  8 active torsions:
REMARK  status: ('A' for Active; 'I' for Inactive)
REMARK    1  A    between atoms: C1_1  and  O1_2
REMARK    2  A    between atoms: O1_2  and  C2_3
REMARK    3  A    between atoms: C3_4  and  O8_23
REMARK    4  A    between atoms: C5_6  and  O7_22
REMARK    5  A    between atoms: C10_12  and  O6_21
REMARK    6  A    between atoms: C11_13  and  O5_19
REMARK    7  A    between atoms: C12_14  and  O4_18
REMARK    8  A    between atoms: O5_19  and  C15_20
REMARK                            x       y       z     vdW  Elec       q    Type
REMARK                         _______ _______ _______ _____ _____    ______ ____
ROOT
ATOM      3  C   UNL     1      51.595  33.146   4.792  0.00  0.00    +0.034 A 
ATOM      4  C   UNL     1      51.501  33.418   6.151  0.00  0.00    +0.176 A 
ATOM      7  C   UNL     1      52.644  33.567   6.925  0.00  0.00    -0.034 A 
ATOM      8  C   UNL     1      53.894  33.439   6.346  0.00  0.00    +0.217 A 
ATOM     11  C   UNL     1      53.997  33.157   4.979  0.00  0.00    -0.254 A 
ATOM     12  C   UNL     1      55.313  32.995   4.334  0.00  0.00    +0.444 A 
ATOM     13  O   UNL     1      56.348  33.321   4.888  0.00  0.00    -0.412 OA
ATOM     14  C   UNL     1      55.299  32.400   2.982  0.00  0.00    -0.254 A 
ATOM     15  C   UNL     1      56.478  31.945   2.382  0.00  0.00    +0.201 A 
ATOM     18  C   UNL     1      56.426  31.381   1.117  0.00  0.00    +0.013 A 
ATOM     21  C   UNL     1      55.206  31.275   0.453  0.00  0.00    +0.175 A 
ATOM     24  C   UNL     1      54.039  31.732   1.042  0.00  0.00    -0.010 A 
ATOM     25  C   UNL     1      54.070  32.303   2.307  0.00  0.00    +0.183 A 
ATOM     26  O   UNL     1      52.929  32.755   2.870  0.00  0.00    -0.208 OA
ATOM     27  C   UNL     1      52.842  33.011   4.192  0.00  0.00    +0.171 A 
ENDROOT
BRANCH   3   2
ATOM      1  C   UNL     1      49.936  34.185   3.437  0.00  0.00    +0.227 C 
ATOM      2  O   UNL     1      50.464  33.005   4.047  0.00  0.00    -0.309 OA
ENDBRANCH   3   2
BRANCH   4   5
ATOM      5  O   UNL     1      50.277  33.541   6.728  0.00  0.00    -0.474 OA
ATOM      6  H   UNL     1      50.301  33.602   7.693  0.00  0.00    +0.400 HD
ENDBRANCH   4   5
BRANCH   8   9
ATOM      9  O   UNL     1      55.014  33.588   7.100  0.00  0.00    -0.470 OA
ATOM     10  H   UNL     1      55.762  33.053   6.802  0.00  0.00    +0.403 HD
ENDBRANCH   8   9
BRANCH  15  16
ATOM     16  O   UNL     1      57.665  32.055   3.033  0.00  0.00    -0.463 OA
ATOM     17  H   UNL     1      58.427  32.163   2.447  0.00  0.00    +0.402 HD
ENDBRANCH  15  16
BRANCH  18  19
ATOM     19  O   UNL     1      57.567  30.929   0.524  0.00  0.00    -0.309 OA
ATOM     20  C   UNL     1      57.929  29.570   0.769  0.00  0.00    +0.224 C 
ENDBRANCH  18  19
BRANCH  21  22
ATOM     22  O   UNL     1      55.160  30.716  -0.784  0.00  0.00    -0.475 OA
ATOM     23  H   UNL     1      55.794  29.997  -0.914  0.00  0.00    +0.400 HD
ENDBRANCH  21  22
TORSDOF 6
ENDMDL
MODEL 5
REMARK VINA RESULT:      -5.0      3.174      4.256
REMARK  Name = ZINC95486209
REMARK  8 active torsions:
REMARK  status: ('A' for Active; 'I' for Inactive)
REMARK    1  A    between atoms: C1_1  and  O1_2
REMARK    2  A    between atoms: O1_2  and  C2_3
REMARK    3  A    between atoms: C3_4  and  O8_23
REMARK    4  A    between atoms: C5_6  and  O7_22
REMARK    5  A    between atoms: C10_12  and  O6_21
REMARK    6  A    between atoms: C11_13  and  O5_19
REMARK    7  A    between atoms: C12_14  and  O4_18
REMARK    8  A    between atoms: O5_19  and  C15_20
REMARK                            x       y       z     vdW  Elec       q    Type
REMARK                         _______ _______ _______ _____ _____    ______ ____
ROOT
ATOM      3  C   UNL     1      44.829  21.674  20.115  0.00  0.00    +0.034 A 
ATOM      4  C   UNL     1      45.007  22.493  21.222  0.00  0.00    +0.176 A 
ATOM      7  C   UNL     1      46.241  22.571  21.856  0.00  0.00    -0.034 A 
ATOM      8  C   UNL     1      47.308  21.825  21.388  0.00  0.00    +0.217 A 
ATOM     11  C   UNL     1      47.133  20.991  20.277  0.00  0.00    -0.254 A 
ATOM     12  C   UNL     1      48.243  20.167  19.764  0.00  0.00    +0.444 A 
ATOM     13  O   UNL     1      49.395  20.341  20.121  0.00  0.00    -0.412 OA
ATOM     14  C   UNL     1      47.870  19.110  18.803  0.00  0.00    -0.254 A 
ATOM     15  C   UNL     1      48.772  18.097  18.458  0.00  0.00    +0.201 A 
ATOM     18  C   UNL     1      48.384  17.114  17.561  0.00  0.00    +0.013 A 
ATOM     21  C   UNL     1      47.105  17.143  17.009  0.00  0.00    +0.175 A 
ATOM     24  C   UNL     1      46.214  18.148  17.343  0.00  0.00    -0.010 A 
ATOM     25  C   UNL     1      46.584  19.144  18.237  0.00  0.00    +0.183 A 
ATOM     26  O   UNL     1      45.712  20.126  18.550  0.00  0.00    -0.208 OA
ATOM     27  C   UNL     1      45.887  20.914  19.631  0.00  0.00    +0.171 A 
ENDROOT
BRANCH   3   2
ATOM      1  C   UNL     1      42.799  20.472  19.795  0.00  0.00    +0.227 C 
ATOM      2  O   UNL     1      43.612  21.611  19.505  0.00  0.00    -0.309 OA
ENDBRANCH   3   2
BRANCH   4   5
ATOM      5  O   UNL     1      43.964  23.226  21.691  0.00  0.00    -0.474 OA
ATOM      6  H   UNL     1      43.103  22.797  21.588  0.00  0.00    +0.400 HD
ENDBRANCH   4   5
BRANCH   8   9
ATOM      9  O   UNL     1      48.516  21.902  22.002  0.00  0.00    -0.470 OA
ATOM     10  H   UNL     1      48.794  22.804  22.211  0.00  0.00    +0.403 HD
ENDBRANCH   8   9
BRANCH  15  16
ATOM     16  O   UNL     1      50.019  18.078  18.996  0.00  0.00    -0.463 OA
ATOM     17  H   UNL     1      50.597  18.784  18.674  0.00  0.00    +0.402 HD
ENDBRANCH  15  16
BRANCH  18  19
ATOM     19  O   UNL     1      49.252  16.120  17.221  0.00  0.00    -0.309 OA
ATOM     20  C   UNL     1      49.223  14.935  18.017  0.00  0.00    +0.224 C 
ENDBRANCH  18  19
BRANCH  21  22
ATOM     22  O   UNL     1      46.728  16.173  16.136  0.00  0.00    -0.475 OA
ATOM     23  H   UNL     1      45.779  16.156  15.953  0.00  0.00    +0.400 HD
ENDBRANCH  21  22
TORSDOF 6
ENDMDL
MODEL 6
REMARK VINA RESULT:      -5.0      3.672      7.389
REMARK  Name = ZINC95486209
REMARK  8 active torsions:
REMARK  status: ('A' for Active; 'I' for Inactive)
REMARK    1  A    between atoms: C1_1  and  O1_2
REMARK    2  A    between atoms: O1_2  and  C2_3
REMARK    3  A    between atoms: C3_4  and  O8_23
REMARK    4  A    between atoms: C5_6  and  O7_22
REMARK    5  A    between atoms: C10_12  and  O6_21
REMARK    6  A    between atoms: C11_13  and  O5_19
REMARK    7  A    between atoms: C12_14  and  O4_18
REMARK    8  A    between atoms: O5_19  and  C15_20
REMARK                            x       y       z     vdW  Elec       q    Type
REMARK                         _______ _______ _______ _____ _____    ______ ____
ROOT
ATOM      3  C   UNL     1      49.984  18.223  17.768  0.00  0.00    +0.034 A 
ATOM      4  C   UNL     1      51.340  18.481  17.925  0.00  0.00    +0.176 A 
ATOM      7  C   UNL     1      51.780  19.433  18.835  0.00  0.00    -0.034 A 
ATOM      8  C   UNL     1      50.865  20.140  19.595  0.00  0.00    +0.217 A 
ATOM     11  C   UNL     1      49.496  19.892  19.437  0.00  0.00    -0.254 A 
ATOM     12  C   UNL     1      48.493  20.640  20.216  0.00  0.00    +0.444 A 
ATOM     13  O   UNL     1      48.800  21.324  21.176  0.00  0.00    -0.412 OA
ATOM     14  C   UNL     1      47.096  20.521  19.750  0.00  0.00    -0.254 A 
ATOM     15  C   UNL     1      46.102  21.385  20.223  0.00  0.00    +0.201 A 
ATOM     18  C   UNL     1      44.804  21.252  19.756  0.00  0.00    +0.013 A 
ATOM     21  C   UNL     1      44.498  20.261  18.826  0.00  0.00    +0.175 A 
ATOM     24  C   UNL     1      45.479  19.400  18.362  0.00  0.00    -0.010 A 
ATOM     25  C   UNL     1      46.785  19.515  18.820  0.00  0.00    +0.183 A 
ATOM     26  O   UNL     1      47.732  18.665  18.371  0.00  0.00    -0.208 OA
ATOM     27  C   UNL     1      49.048  18.925  18.520  0.00  0.00    +0.171 A 
ENDROOT
BRANCH   3   2
ATOM      1  C   UNL     1      49.471  15.938  17.341  0.00  0.00    +0.227 C 
ATOM      2  O   UNL     1      49.570  17.284  16.872  0.00  0.00    -0.309 OA
ENDBRANCH   3   2
BRANCH   4   5
ATOM      5  O   UNL     1      52.245  17.794  17.180  0.00  0.00    -0.474 OA
ATOM      6  H   UNL     1      52.243  18.029  16.242  0.00  0.00    +0.400 HD
ENDBRANCH   4   5
BRANCH   8   9
ATOM      9  O   UNL     1      51.292  21.069  20.489  0.00  0.00    -0.470 OA
ATOM     10  H   UNL     1      52.228  20.992  20.718  0.00  0.00    +0.403 HD
ENDBRANCH   8   9
BRANCH  15  16
ATOM     16  O   UNL     1      46.406  22.346  21.134  0.00  0.00    -0.463 OA
ATOM     17  H   UNL     1      45.662  22.605  21.695  0.00  0.00    +0.402 HD
ENDBRANCH  15  16
BRANCH  18  19
ATOM     19  O   UNL     1      43.828  22.090  20.205  0.00  0.00    -0.309 OA
ATOM     20  C   UNL     1      43.673  23.332  19.516  0.00  0.00    +0.224 C 
ENDBRANCH  18  19
BRANCH  21  22
ATOM     22  O   UNL     1      43.226  20.140  18.367  0.00  0.00    -0.475 OA
ATOM     23  H   UNL     1      42.583  20.685  18.841  0.00  0.00    +0.400 HD
ENDBRANCH  21  22
TORSDOF 6
ENDMDL
MODEL 7
REMARK VINA RESULT:      -4.9      2.857      3.220
REMARK  Name = ZINC95486209
REMARK  8 active torsions:
REMARK  status: ('A' for Active; 'I' for Inactive)
REMARK    1  A    between atoms: C1_1  and  O1_2
REMARK    2  A    between atoms: O1_2  and  C2_3
REMARK    3  A    between atoms: C3_4  and  O8_23
REMARK    4  A    between atoms: C5_6  and  O7_22
REMARK    5  A    between atoms: C10_12  and  O6_21
REMARK    6  A    between atoms: C11_13  and  O5_19
REMARK    7  A    between atoms: C12_14  and  O4_18
REMARK    8  A    between atoms: O5_19  and  C15_20
REMARK                            x       y       z     vdW  Elec       q    Type
REMARK                         _______ _______ _______ _____ _____    ______ ____
ROOT
ATOM      3  C   UNL     1      43.654  20.572  19.497  0.00  0.00    +0.034 A 
ATOM      4  C   UNL     1      42.301  20.851  19.359  0.00  0.00    +0.176 A 
ATOM      7  C   UNL     1      41.345  20.043  19.961  0.00  0.00    -0.034 A 
ATOM      8  C   UNL     1      41.736  18.944  20.705  0.00  0.00    +0.217 A 
ATOM     11  C   UNL     1      43.098  18.651  20.842  0.00  0.00    -0.254 A 
ATOM     12  C   UNL     1      43.550  17.477  21.611  0.00  0.00    +0.444 A 
ATOM     13  O   UNL     1      42.798  16.855  22.340  0.00  0.00    -0.412 OA
ATOM     14  C   UNL     1      44.965  17.094  21.430  0.00  0.00    -0.254 A 
ATOM     15  C   UNL     1      45.440  15.857  21.879  0.00  0.00    +0.201 A 
ATOM     18  C   UNL     1      46.772  15.526  21.683  0.00  0.00    +0.013 A 
ATOM     21  C   UNL     1      47.625  16.424  21.045  0.00  0.00    +0.175 A 
ATOM     24  C   UNL     1      47.158  17.653  20.607  0.00  0.00    -0.010 A 
ATOM     25  C   UNL     1      45.829  18.005  20.797  0.00  0.00    +0.183 A 
ATOM     26  O   UNL     1      45.385  19.208  20.376  0.00  0.00    -0.208 OA
ATOM     27  C   UNL     1      44.068  19.470  20.238  0.00  0.00    +0.171 A 
ENDROOT
BRANCH   3   2
ATOM      1  C   UNL     1      45.016  22.519  19.637  0.00  0.00    +0.227 C 
ATOM      2  O   UNL     1      44.578  21.376  18.900  0.00  0.00    -0.309 OA
ENDBRANCH   3   2
BRANCH   4   5
ATOM      5  O   UNL     1      41.907  21.925  18.627  0.00  0.00    -0.474 OA
ATOM      6  H   UNL     1      42.429  22.724  18.787  0.00  0.00    +0.400 HD
ENDBRANCH   4   5
BRANCH   8   9
ATOM      9  O   UNL     1      40.805  18.155  21.299  0.00  0.00    -0.470 OA
ATOM     10  H   UNL     1      40.572  17.368  20.787  0.00  0.00    +0.403 HD
ENDBRANCH   8   9
BRANCH  15  16
ATOM     16  O   UNL     1      44.605  14.988  22.504  0.00  0.00    -0.463 OA
ATOM     17  H   UNL     1      44.985  14.111  22.648  0.00  0.00    +0.402 HD
ENDBRANCH  15  16
BRANCH  18  19
ATOM     19  O   UNL     1      47.246  14.322  22.111  0.00  0.00    -0.309 OA
ATOM     20  C   UNL     1      47.190  13.237  21.184  0.00  0.00    +0.224 C 
ENDBRANCH  18  19
BRANCH  21  22
ATOM     22  O   UNL     1      48.927  16.092  20.850  0.00  0.00    -0.475 OA
ATOM     23  H   UNL     1      49.508  16.850  20.699  0.00  0.00    +0.400 HD
ENDBRANCH  21  22
TORSDOF 6
ENDMDL
MODEL 8
REMARK VINA RESULT:      -4.8      3.599      4.918
REMARK  Name = ZINC95486209
REMARK  8 active torsions:
REMARK  status: ('A' for Active; 'I' for Inactive)
REMARK    1  A    between atoms: C1_1  and  O1_2
REMARK    2  A    between atoms: O1_2  and  C2_3
REMARK    3  A    between atoms: C3_4  and  O8_23
REMARK    4  A    between atoms: C5_6  and  O7_22
REMARK    5  A    between atoms: C10_12  and  O6_21
REMARK    6  A    between atoms: C11_13  and  O5_19
REMARK    7  A    between atoms: C12_14  and  O4_18
REMARK    8  A    between atoms: O5_19  and  C15_20
REMARK                            x       y       z     vdW  Elec       q    Type
REMARK                         _______ _______ _______ _____ _____    ______ ____
ROOT
ATOM      3  C   UNL     1      50.990  19.269  17.824  0.00  0.00    +0.034 A 
ATOM      4  C   UNL     1      50.804  20.568  18.277  0.00  0.00    +0.176 A 
ATOM      7  C   UNL     1      49.642  20.925  18.949  0.00  0.00    -0.034 A 
ATOM      8  C   UNL     1      48.652  19.983  19.169  0.00  0.00    +0.217 A 
ATOM     11  C   UNL     1      48.829  18.674  18.707  0.00  0.00    -0.254 A 
ATOM     12  C   UNL     1      47.786  17.651  18.907  0.00  0.00    +0.444 A 
ATOM     13  O   UNL     1      46.849  17.823  19.666  0.00  0.00    -0.412 OA
ATOM     14  C   UNL     1      47.941  16.411  18.119  0.00  0.00    -0.254 A 
ATOM     15  C   UNL     1      46.893  15.491  18.008  0.00  0.00    +0.201 A 
ATOM     18  C   UNL     1      47.070  14.343  17.251  0.00  0.00    +0.013 A 
ATOM     21  C   UNL     1      48.285  14.114  16.611  0.00  0.00    +0.175 A 
ATOM     24  C   UNL     1      49.327  15.019  16.726  0.00  0.00    -0.010 A 
ATOM     25  C   UNL     1      49.171  16.173  17.482  0.00  0.00    +0.183 A 
ATOM     26  O   UNL     1      50.195  17.045  17.596  0.00  0.00    -0.208 OA
ATOM     27  C   UNL     1      50.006  18.308  18.032  0.00  0.00    +0.171 A 
ENDROOT
BRANCH   3   2
ATOM      1  C   UNL     1      52.161  19.146  15.755  0.00  0.00    +0.227 C 
ATOM      2  O   UNL     1      52.137  18.936  17.168  0.00  0.00    -0.309 OA
ENDBRANCH   3   2
BRANCH   4   5
ATOM      5  O   UNL     1      51.768  21.500  18.062  0.00  0.00    -0.474 OA
ATOM      6  H   UNL     1      51.672  21.982  17.229  0.00  0.00    +0.400 HD
ENDBRANCH   4   5
BRANCH   8   9
ATOM      9  O   UNL     1      47.517  20.328  19.829  0.00  0.00    -0.470 OA
ATOM     10  H   UNL     1      46.764  19.749  19.645  0.00  0.00    +0.403 HD
ENDBRANCH   8   9
BRANCH  15  16
ATOM     16  O   UNL     1      45.712  15.719  18.639  0.00  0.00    -0.463 OA
ATOM     17  H   UNL     1      45.637  15.289  19.502  0.00  0.00    +0.402 HD
ENDBRANCH  15  16
BRANCH  18  19
ATOM     19  O   UNL     1      46.055  13.442  17.132  0.00  0.00    -0.309 OA
ATOM     20  C   UNL     1      45.975  12.422  18.128  0.00  0.00    +0.224 C 
ENDBRANCH  18  19
BRANCH  21  22
ATOM     22  O   UNL     1      48.451  12.990  15.865  0.00  0.00    -0.475 OA
ATOM     23  H   UNL     1      49.371  12.802  15.636  0.00  0.00    +0.400 HD
ENDBRANCH  21  22
TORSDOF 6
ENDMDL
MODEL 9
REMARK VINA RESULT:      -4.8      3.671      6.754
REMARK  Name = ZINC95486209
REMARK  8 active torsions:
REMARK  status: ('A' for Active; 'I' for Inactive)
REMARK    1  A    between atoms: C1_1  and  O1_2
REMARK    2  A    between atoms: O1_2  and  C2_3
REMARK    3  A    between atoms: C3_4  and  O8_23
REMARK    4  A    between atoms: C5_6  and  O7_22
REMARK    5  A    between atoms: C10_12  and  O6_21
REMARK    6  A    between atoms: C11_13  and  O5_19
REMARK    7  A    between atoms: C12_14  and  O4_18
REMARK    8  A    between atoms: O5_19  and  C15_20
REMARK                            x       y       z     vdW  Elec       q    Type
REMARK                         _______ _______ _______ _____ _____    ______ ____
ROOT
ATOM      3  C   UNL     1      46.342  14.987  18.662  0.00  0.00    +0.034 A 
ATOM      4  C   UNL     1      45.976  13.750  18.148  0.00  0.00    +0.176 A 
ATOM      7  C   UNL     1      46.866  13.011  17.377  0.00  0.00    -0.034 A 
ATOM      8  C   UNL     1      48.129  13.508  17.110  0.00  0.00    +0.217 A 
ATOM     11  C   UNL     1      48.501  14.759  17.618  0.00  0.00    -0.254 A 
ATOM     12  C   UNL     1      49.832  15.327  17.337  0.00  0.00    +0.444 A 
ATOM     13  O   UNL     1      50.733  14.658  16.862  0.00  0.00    -0.412 OA
ATOM     14  C   UNL     1      50.001  16.760  17.653  0.00  0.00    -0.254 A 
ATOM     15  C   UNL     1      51.108  17.477  17.186  0.00  0.00    +0.201 A 
ATOM     18  C   UNL     1      51.228  18.823  17.492  0.00  0.00    +0.013 A 
ATOM     21  C   UNL     1      50.252  19.450  18.263  0.00  0.00    +0.175 A 
ATOM     24  C   UNL     1      49.160  18.740  18.734  0.00  0.00    -0.010 A 
ATOM     25  C   UNL     1      49.022  17.390  18.441  0.00  0.00    +0.183 A 
ATOM     26  O   UNL     1      47.959  16.704  18.912  0.00  0.00    -0.208 OA
ATOM     27  C   UNL     1      47.606  15.506  18.403  0.00  0.00    +0.171 A 
ENDROOT
BRANCH   3   2
ATOM      1  C   UNL     1      45.439  15.427  20.820  0.00  0.00    +0.227 C 
ATOM      2  O   UNL     1      45.458  15.697  19.417  0.00  0.00    -0.309 OA
ENDBRANCH   3   2
BRANCH   4   5
ATOM      5  O   UNL     1      44.737  13.256  18.401  0.00  0.00    -0.474 OA
ATOM      6  H   UNL     1      44.030  13.913  18.333  0.00  0.00    +0.400 HD
ENDBRANCH   4   5
BRANCH   8   9
ATOM      9  O   UNL     1      49.002  12.788  16.361  0.00  0.00    -0.470 OA
ATOM     10  H   UNL     1      49.156  13.151  15.478  0.00  0.00    +0.403 HD
ENDBRANCH   8   9
BRANCH  15  16
ATOM     16  O   UNL     1      52.058  16.858  16.438  0.00  0.00    -0.463 OA
ATOM     17  H   UNL     1      52.666  16.307  16.951  0.00  0.00    +0.402 HD
ENDBRANCH  15  16
BRANCH  18  19
ATOM     19  O   UNL     1      52.299  19.533  17.039  0.00  0.00    -0.309 OA
ATOM     20  C   UNL     1      52.168  20.158  15.761  0.00  0.00    +0.224 C 
ENDBRANCH  18  19
BRANCH  21  22
ATOM     22  O   UNL     1      50.372  20.771  18.555  0.00  0.00    -0.475 OA
ATOM     23  H   UNL     1      50.334  20.970  19.501  0.00  0.00    +0.400 HD
ENDBRANCH  21  22
TORSDOF 6
ENDMDL
