MODEL 1
REMARK VINA RESULT:      -7.3      0.000      0.000
REMARK  Name = ZINC95485962
REMARK  8 active torsions:
REMARK  status: ('A' for Active; 'I' for Inactive)
REMARK    1  A    between atoms: C1_1  and  C2_2
REMARK    2  A    between atoms: C7_10  and  C30_35
REMARK    3  A    between atoms: C11_15  and  C29_34
REMARK    4  A    between atoms: C14_18  and  C28_33
REMARK    5  A    between atoms: C15_19  and  C27_32
REMARK    6  A    between atoms: C18_22  and  C26_31
REMARK    7  A    between atoms: C21_26  and  C24_29
REMARK    8  A    between atoms: C21_26  and  C25_30
REMARK                            x       y       z     vdW  Elec       q    Type
REMARK                         _______ _______ _______ _____ _____    ______ ____
ROOT
ATOM      1  C   UNL     1      53.018  17.933  19.300  0.00  0.00    +0.046 C 
ATOM      2  C   UNL     1      52.668  19.241  18.560  0.00  0.00    -0.028 C 
ATOM      3  C   UNL     1      51.825  19.014  17.342  0.00  0.00    +0.369 C 
ATOM      4  C   UNL     1      51.253  20.188  16.600  0.00  0.00    +0.033 C 
ATOM      5  C   UNL     1      50.710  21.185  17.561  0.00  0.00    +0.027 C 
ATOM      6  C   UNL     1      50.702  20.727  19.028  0.00  0.00    -0.000 C 
ATOM      7  C   UNL     1      49.458  19.868  19.302  0.00  0.00    -0.028 C 
ATOM      8  C   UNL     1      48.244  20.776  19.131  0.00  0.00    +0.015 C 
ATOM      9  C   UNL     1      49.366  18.728  18.339  0.00  0.00    +0.007 C 
ATOM     10  C   UNL     1      48.025  17.944  18.629  0.00  0.00    +0.010 C 
ATOM     11  C   UNL     1      48.030  17.354  19.957  0.00  0.00    -0.015 C 
ATOM     12  C   UNL     1      49.143  16.301  20.066  0.00  0.00    +0.018 C 
ATOM     13  C   UNL     1      48.321  18.418  21.049  0.00  0.00    -0.026 C 
ATOM     14  C   UNL     1      48.787  17.597  22.331  0.00  0.00    +0.003 C 
ATOM     15  C   UNL     1      47.058  19.151  21.511  0.00  0.00    +0.004 C 
ATOM     16  C   UNL     1      45.937  18.194  21.936  0.00  0.00    +0.023 C 
ATOM     17  C   UNL     1      45.498  17.380  20.676  0.00  0.00    -0.036 C 
ATOM     18  C   UNL     1      45.051  18.331  19.549  0.00  0.00    +0.021 C 
ATOM     19  C   UNL     1      44.304  16.573  21.072  0.00  0.00    +0.009 C 
ATOM     20  C   UNL     1      44.608  15.444  21.893  0.00  0.00    +0.010 C 
ATOM     21  C   UNL     1      45.665  14.500  21.244  0.00  0.00    -0.081 C 
ATOM     22  C   UNL     1      45.981  13.287  22.180  0.00  0.00    +0.022 C 
ATOM     23  C   UNL     1      45.089  13.981  19.881  0.00  0.00    +0.012 C 
ATOM     24  C   UNL     1      46.967  15.316  20.977  0.00  0.00    +0.047 C 
ATOM     25  C   UNL     1      46.645  16.579  20.231  0.00  0.00    -0.011 C 
ATOM     26  C   UNL     1      49.393  19.341  20.751  0.00  0.00    -0.004 C 
ATOM     27  C   UNL     1      50.815  18.797  21.268  0.00  0.00    +0.015 C 
ATOM     28  C   UNL     1      51.928  19.836  21.005  0.00  0.00    +0.020 C 
ATOM     29  O   UNL     1      51.646  17.845  17.011  0.00  0.00    -0.463 OA
ATOM     30  C   UNL     1      52.037  20.213  19.476  0.00  0.00    -0.028 C 
ATOM     31  C   UNL     1      52.963  21.498  19.488  0.00  0.00    +0.010 C 
ENDROOT
TORSDOF 0
ENDMDL
MODEL 2
REMARK VINA RESULT:      -6.9      2.017      3.950
REMARK  Name = ZINC95485962
REMARK  8 active torsions:
REMARK  status: ('A' for Active; 'I' for Inactive)
REMARK    1  A    between atoms: C1_1  and  C2_2
REMARK    2  A    between atoms: C7_10  and  C30_35
REMARK    3  A    between atoms: C11_15  and  C29_34
REMARK    4  A    between atoms: C14_18  and  C28_33
REMARK    5  A    between atoms: C15_19  and  C27_32
REMARK    6  A    between atoms: C18_22  and  C26_31
REMARK    7  A    between atoms: C21_26  and  C24_29
REMARK    8  A    between atoms: C21_26  and  C25_30
REMARK                            x       y       z     vdW  Elec       q    Type
REMARK                         _______ _______ _______ _____ _____    ______ ____
ROOT
ATOM      1  C   UNL     1      50.847  18.989  16.368  0.00  0.00    +0.046 C 
ATOM      2  C   UNL     1      51.801  19.250  17.553  0.00  0.00    -0.028 C 
ATOM      3  C   UNL     1      51.679  20.638  18.103  0.00  0.00    +0.369 C 
ATOM      4  C   UNL     1      52.409  21.009  19.363  0.00  0.00    +0.033 C 
ATOM      5  C   UNL     1      52.277  19.921  20.369  0.00  0.00    +0.027 C 
ATOM      6  C   UNL     1      51.319  18.788  19.971  0.00  0.00    -0.000 C 
ATOM      7  C   UNL     1      49.871  19.189  20.295  0.00  0.00    -0.028 C 
ATOM      8  C   UNL     1      49.775  19.318  21.813  0.00  0.00    +0.015 C 
ATOM      9  C   UNL     1      49.518  20.496  19.662  0.00  0.00    +0.007 C 
ATOM     10  C   UNL     1      48.051  20.880  20.108  0.00  0.00    +0.010 C 
ATOM     11  C   UNL     1      47.077  19.916  19.620  0.00  0.00    -0.015 C 
ATOM     12  C   UNL     1      47.046  19.923  18.084  0.00  0.00    +0.018 C 
ATOM     13  C   UNL     1      47.448  18.471  20.047  0.00  0.00    -0.026 C 
ATOM     14  C   UNL     1      46.635  17.515  19.068  0.00  0.00    +0.003 C 
ATOM     15  C   UNL     1      46.923  18.114  21.441  0.00  0.00    +0.004 C 
ATOM     16  C   UNL     1      45.423  18.384  21.599  0.00  0.00    +0.023 C 
ATOM     17  C   UNL     1      45.195  19.924  21.461  0.00  0.00    -0.036 C 
ATOM     18  C   UNL     1      46.033  20.689  22.503  0.00  0.00    +0.021 C 
ATOM     19  C   UNL     1      43.757  20.184  21.775  0.00  0.00    +0.009 C 
ATOM     20  C   UNL     1      42.854  19.795  20.738  0.00  0.00    +0.010 C 
ATOM     21  C   UNL     1      43.199  20.451  19.367  0.00  0.00    -0.081 C 
ATOM     22  C   UNL     1      42.198  19.989  18.258  0.00  0.00    +0.022 C 
ATOM     23  C   UNL     1      43.122  22.009  19.534  0.00  0.00    +0.012 C 
ATOM     24  C   UNL     1      44.652  20.046  18.970  0.00  0.00    +0.047 C 
ATOM     25  C   UNL     1      45.596  20.321  20.105  0.00  0.00    -0.011 C 
ATOM     26  C   UNL     1      48.841  18.112  19.895  0.00  0.00    -0.004 C 
ATOM     27  C   UNL     1      49.144  17.486  18.445  0.00  0.00    +0.015 C 
ATOM     28  C   UNL     1      50.620  17.042  18.337  0.00  0.00    +0.020 C 
ATOM     29  O   UNL     1      50.968  21.416  17.473  0.00  0.00    -0.463 OA
ATOM     30  C   UNL     1      51.618  18.234  18.610  0.00  0.00    -0.028 C 
ATOM     31  C   UNL     1      53.012  17.504  18.788  0.00  0.00    +0.010 C 
ENDROOT
TORSDOF 0
ENDMDL
MODEL 3
REMARK VINA RESULT:      -6.9      2.537      6.971
REMARK  Name = ZINC95485962
REMARK  8 active torsions:
REMARK  status: ('A' for Active; 'I' for Inactive)
REMARK    1  A    between atoms: C1_1  and  C2_2
REMARK    2  A    between atoms: C7_10  and  C30_35
REMARK    3  A    between atoms: C11_15  and  C29_34
REMARK    4  A    between atoms: C14_18  and  C28_33
REMARK    5  A    between atoms: C15_19  and  C27_32
REMARK    6  A    between atoms: C18_22  and  C26_31
REMARK    7  A    between atoms: C21_26  and  C24_29
REMARK    8  A    between atoms: C21_26  and  C25_30
REMARK                            x       y       z     vdW  Elec       q    Type
REMARK                         _______ _______ _______ _____ _____    ______ ____
ROOT
ATOM      1  C   UNL     1      44.620  21.823  21.959  0.00  0.00    +0.046 C 
ATOM      2  C   UNL     1      43.616  20.937  21.189  0.00  0.00    -0.028 C 
ATOM      3  C   UNL     1      43.593  21.228  19.720  0.00  0.00    +0.369 C 
ATOM      4  C   UNL     1      42.800  20.346  18.797  0.00  0.00    +0.033 C 
ATOM      5  C   UNL     1      43.009  18.916  19.150  0.00  0.00    +0.027 C 
ATOM      6  C   UNL     1      44.080  18.669  20.224  0.00  0.00    -0.000 C 
ATOM      7  C   UNL     1      45.475  18.656  19.579  0.00  0.00    -0.028 C 
ATOM      8  C   UNL     1      45.521  17.452  18.643  0.00  0.00    +0.015 C 
ATOM      9  C   UNL     1      45.719  19.906  18.795  0.00  0.00    +0.007 C 
ATOM     10  C   UNL     1      47.131  19.782  18.098  0.00  0.00    +0.010 C 
ATOM     11  C   UNL     1      48.203  19.702  19.076  0.00  0.00    -0.015 C 
ATOM     12  C   UNL     1      48.272  20.998  19.897  0.00  0.00    +0.018 C 
ATOM     13  C   UNL     1      47.960  18.551  20.089  0.00  0.00    -0.026 C 
ATOM     14  C   UNL     1      48.884  18.884  21.342  0.00  0.00    +0.003 C 
ATOM     15  C   UNL     1      48.482  17.201  19.586  0.00  0.00    +0.004 C 
ATOM     16  C   UNL     1      49.946  17.260  19.136  0.00  0.00    +0.023 C 
ATOM     17  C   UNL     1      50.030  18.215  17.901  0.00  0.00    -0.036 C 
ATOM     18  C   UNL     1      49.098  17.725  16.776  0.00  0.00    +0.021 C 
ATOM     19  C   UNL     1      51.429  18.134  17.380  0.00  0.00    +0.009 C 
ATOM     20  C   UNL     1      52.390  18.824  18.181  0.00  0.00    +0.010 C 
ATOM     21  C   UNL     1      52.019  20.321  18.405  0.00  0.00    -0.081 C 
ATOM     22  C   UNL     1      53.087  21.035  19.298  0.00  0.00    +0.022 C 
ATOM     23  C   UNL     1      51.944  21.024  17.005  0.00  0.00    +0.012 C 
ATOM     24  C   UNL     1      50.621  20.392  19.094  0.00  0.00    +0.047 C 
ATOM     25  C   UNL     1      49.627  19.557  18.338  0.00  0.00    -0.011 C 
ATOM     26  C   UNL     1      46.612  18.443  20.601  0.00  0.00    -0.004 C 
ATOM     27  C   UNL     1      46.405  19.316  21.936  0.00  0.00    +0.015 C 
ATOM     28  C   UNL     1      44.981  19.122  22.502  0.00  0.00    +0.020 C 
ATOM     29  O   UNL     1      44.243  22.200  19.343  0.00  0.00    -0.463 OA
ATOM     30  C   UNL     1      43.868  19.506  21.450  0.00  0.00    -0.028 C 
ATOM     31  C   UNL     1      42.546  18.920  22.095  0.00  0.00    +0.010 C 
ENDROOT
TORSDOF 0
ENDMDL
MODEL 4
REMARK VINA RESULT:      -6.7      2.027      3.583
REMARK  Name = ZINC95485962
REMARK  8 active torsions:
REMARK  status: ('A' for Active; 'I' for Inactive)
REMARK    1  A    between atoms: C1_1  and  C2_2
REMARK    2  A    between atoms: C7_10  and  C30_35
REMARK    3  A    between atoms: C11_15  and  C29_34
REMARK    4  A    between atoms: C14_18  and  C28_33
REMARK    5  A    between atoms: C15_19  and  C27_32
REMARK    6  A    between atoms: C18_22  and  C26_31
REMARK    7  A    between atoms: C21_26  and  C24_29
REMARK    8  A    between atoms: C21_26  and  C25_30
REMARK                            x       y       z     vdW  Elec       q    Type
REMARK                         _______ _______ _______ _____ _____    ______ ____
ROOT
ATOM      1  C   UNL     1      50.400  16.140  17.250  0.00  0.00    +0.046 C 
ATOM      2  C   UNL     1      51.568  17.124  17.471  0.00  0.00    -0.028 C 
ATOM      3  C   UNL     1      51.343  18.451  16.813  0.00  0.00    +0.369 C 
ATOM      4  C   UNL     1      52.298  19.582  17.067  0.00  0.00    +0.033 C 
ATOM      5  C   UNL     1      52.637  19.650  18.514  0.00  0.00    +0.027 C 
ATOM      6  C   UNL     1      51.832  18.695  19.409  0.00  0.00    -0.000 C 
ATOM      7  C   UNL     1      50.472  19.323  19.755  0.00  0.00    -0.028 C 
ATOM      8  C   UNL     1      50.758  20.563  20.598  0.00  0.00    +0.015 C 
ATOM      9  C   UNL     1      49.732  19.722  18.518  0.00  0.00    +0.007 C 
ATOM     10  C   UNL     1      48.390  20.433  18.956  0.00  0.00    +0.010 C 
ATOM     11  C   UNL     1      47.515  19.522  19.677  0.00  0.00    -0.015 C 
ATOM     12  C   UNL     1      47.080  18.367  18.762  0.00  0.00    +0.018 C 
ATOM     13  C   UNL     1      48.244  18.876  20.886  0.00  0.00    -0.026 C 
ATOM     14  C   UNL     1      47.390  17.584  21.257  0.00  0.00    +0.003 C 
ATOM     15  C   UNL     1      48.179  19.744  22.147  0.00  0.00    +0.004 C 
ATOM     16  C   UNL     1      46.750  20.166  22.505  0.00  0.00    +0.023 C 
ATOM     17  C   UNL     1      46.216  21.079  21.355  0.00  0.00    -0.036 C 
ATOM     18  C   UNL     1      47.144  22.292  21.154  0.00  0.00    +0.021 C 
ATOM     19  C   UNL     1      44.889  21.608  21.795  0.00  0.00    +0.009 C 
ATOM     20  C   UNL     1      43.832  20.648  21.741  0.00  0.00    +0.010 C 
ATOM     21  C   UNL     1      43.678  20.007  20.329  0.00  0.00    -0.081 C 
ATOM     22  C   UNL     1      42.522  18.953  20.316  0.00  0.00    +0.022 C 
ATOM     23  C   UNL     1      43.363  21.150  19.302  0.00  0.00    +0.012 C 
ATOM     24  C   UNL     1      45.024  19.320  19.942  0.00  0.00    +0.047 C 
ATOM     25  C   UNL     1      46.166  20.277  20.126  0.00  0.00    -0.011 C 
ATOM     26  C   UNL     1      49.588  18.410  20.629  0.00  0.00    -0.004 C 
ATOM     27  C   UNL     1      49.609  16.881  20.130  0.00  0.00    +0.015 C 
ATOM     28  C   UNL     1      51.059  16.386  19.937  0.00  0.00    +0.020 C 
ATOM     29  O   UNL     1      50.361  18.539  16.080  0.00  0.00    -0.463 OA
ATOM     30  C   UNL     1      51.858  17.281  18.911  0.00  0.00    -0.028 C 
ATOM     31  C   UNL     1      53.359  16.823  19.126  0.00  0.00    +0.010 C 
ENDROOT
TORSDOF 0
ENDMDL
MODEL 5
REMARK VINA RESULT:      -6.7      3.016      7.103
REMARK  Name = ZINC95485962
REMARK  8 active torsions:
REMARK  status: ('A' for Active; 'I' for Inactive)
REMARK    1  A    between atoms: C1_1  and  C2_2
REMARK    2  A    between atoms: C7_10  and  C30_35
REMARK    3  A    between atoms: C11_15  and  C29_34
REMARK    4  A    between atoms: C14_18  and  C28_33
REMARK    5  A    between atoms: C15_19  and  C27_32
REMARK    6  A    between atoms: C18_22  and  C26_31
REMARK    7  A    between atoms: C21_26  and  C24_29
REMARK    8  A    between atoms: C21_26  and  C25_30
REMARK                            x       y       z     vdW  Elec       q    Type
REMARK                         _______ _______ _______ _____ _____    ______ ____
ROOT
ATOM      1  C   UNL     1      49.596  12.509  15.651  0.00  0.00    +0.046 C 
ATOM      2  C   UNL     1      49.230  11.829  16.987  0.00  0.00    -0.028 C 
ATOM      3  C   UNL     1      50.326  11.920  18.005  0.00  0.00    +0.369 C 
ATOM      4  C   UNL     1      50.076  11.461  19.414  0.00  0.00    +0.033 C 
ATOM      5  C   UNL     1      48.746  11.939  19.879  0.00  0.00    +0.027 C 
ATOM      6  C   UNL     1      48.033  12.899  18.915  0.00  0.00    -0.000 C 
ATOM      7  C   UNL     1      48.557  14.330  19.118  0.00  0.00    -0.028 C 
ATOM      8  C   UNL     1      48.149  14.756  20.526  0.00  0.00    +0.015 C 
ATOM      9  C   UNL     1      50.046  14.383  18.994  0.00  0.00    +0.007 C 
ATOM     10  C   UNL     1      50.513  15.862  19.297  0.00  0.00    +0.010 C 
ATOM     11  C   UNL     1      49.990  16.798  18.315  0.00  0.00    -0.015 C 
ATOM     12  C   UNL     1      50.552  16.475  16.922  0.00  0.00    +0.018 C 
ATOM     13  C   UNL     1      48.445  16.695  18.202  0.00  0.00    -0.026 C 
ATOM     14  C   UNL     1      48.075  17.362  16.805  0.00  0.00    +0.003 C 
ATOM     15  C   UNL     1      47.718  17.561  19.236  0.00  0.00    +0.004 C 
ATOM     16  C   UNL     1      48.191  19.019  19.229  0.00  0.00    +0.023 C 
ATOM     17  C   UNL     1      49.692  19.038  19.665  0.00  0.00    -0.036 C 
ATOM     18  C   UNL     1      49.861  18.382  21.048  0.00  0.00    +0.021 C 
ATOM     19  C   UNL     1      50.089  20.472  19.806  0.00  0.00    +0.009 C 
ATOM     20  C   UNL     1      50.275  21.152  18.563  0.00  0.00    +0.010 C 
ATOM     21  C   UNL     1      51.300  20.432  17.636  0.00  0.00    -0.081 C 
ATOM     22  C   UNL     1      51.463  21.198  16.281  0.00  0.00    +0.022 C 
ATOM     23  C   UNL     1      52.680  20.374  18.381  0.00  0.00    +0.012 C 
ATOM     24  C   UNL     1      50.798  18.980  17.365  0.00  0.00    +0.047 C 
ATOM     25  C   UNL     1      50.466  18.297  18.660  0.00  0.00    -0.011 C 
ATOM     26  C   UNL     1      47.910  15.352  18.161  0.00  0.00    -0.004 C 
ATOM     27  C   UNL     1      47.799  14.796  16.656  0.00  0.00    +0.015 C 
ATOM     28  C   UNL     1      47.153  13.392  16.637  0.00  0.00    +0.020 C 
ATOM     29  O   UNL     1      51.397  12.378  17.617  0.00  0.00    -0.463 OA
ATOM     30  C   UNL     1      47.958  12.359  17.518  0.00  0.00    -0.028 C 
ATOM     31  C   UNL     1      46.963  11.131  17.630  0.00  0.00    +0.010 C 
ENDROOT
TORSDOF 0
ENDMDL
MODEL 6
REMARK VINA RESULT:      -6.5      1.879      6.984
REMARK  Name = ZINC95485962
REMARK  8 active torsions:
REMARK  status: ('A' for Active; 'I' for Inactive)
REMARK    1  A    between atoms: C1_1  and  C2_2
REMARK    2  A    between atoms: C7_10  and  C30_35
REMARK    3  A    between atoms: C11_15  and  C29_34
REMARK    4  A    between atoms: C14_18  and  C28_33
REMARK    5  A    between atoms: C15_19  and  C27_32
REMARK    6  A    between atoms: C18_22  and  C26_31
REMARK    7  A    between atoms: C21_26  and  C24_29
REMARK    8  A    between atoms: C21_26  and  C25_30
REMARK                            x       y       z     vdW  Elec       q    Type
REMARK                         _______ _______ _______ _____ _____    ______ ____
ROOT
ATOM      1  C   UNL     1      47.796  12.599  18.636  0.00  0.00    +0.046 C 
ATOM      2  C   UNL     1      47.209  12.720  20.059  0.00  0.00    -0.028 C 
ATOM      3  C   UNL     1      48.252  13.003  21.096  0.00  0.00    +0.369 C 
ATOM      4  C   UNL     1      47.837  13.319  22.505  0.00  0.00    +0.033 C 
ATOM      5  C   UNL     1      46.686  14.261  22.500  0.00  0.00    +0.027 C 
ATOM      6  C   UNL     1      46.309  14.810  21.115  0.00  0.00    -0.000 C 
ATOM      7  C   UNL     1      47.214  16.000  20.760  0.00  0.00    -0.028 C 
ATOM      8  C   UNL     1      46.901  17.110  21.760  0.00  0.00    +0.015 C 
ATOM      9  C   UNL     1      48.658  15.630  20.863  0.00  0.00    +0.007 C 
ATOM     10  C   UNL     1      49.520  16.922  20.567  0.00  0.00    +0.010 C 
ATOM     11  C   UNL     1      49.319  17.396  19.207  0.00  0.00    -0.015 C 
ATOM     12  C   UNL     1      49.808  16.344  18.199  0.00  0.00    +0.018 C 
ATOM     13  C   UNL     1      47.814  17.627  18.906  0.00  0.00    -0.026 C 
ATOM     14  C   UNL     1      47.695  17.644  17.318  0.00  0.00    +0.003 C 
ATOM     15  C   UNL     1      47.333  19.018  19.333  0.00  0.00    +0.004 C 
ATOM     16  C   UNL     1      48.205  20.147  18.770  0.00  0.00    +0.023 C 
ATOM     17  C   UNL     1      49.633  20.003  19.387  0.00  0.00    -0.036 C 
ATOM     18  C   UNL     1      49.563  20.038  20.926  0.00  0.00    +0.021 C 
ATOM     19  C   UNL     1      50.419  21.198  18.955  0.00  0.00    +0.009 C 
ATOM     20  C   UNL     1      50.831  21.162  17.587  0.00  0.00    +0.010 C 
ATOM     21  C   UNL     1      51.637  19.874  17.239  0.00  0.00    -0.081 C 
ATOM     22  C   UNL     1      52.055  19.866  15.732  0.00  0.00    +0.022 C 
ATOM     23  C   UNL     1      52.918  19.835  18.144  0.00  0.00    +0.012 C 
ATOM     24  C   UNL     1      50.748  18.630  17.548  0.00  0.00    +0.047 C 
ATOM     25  C   UNL     1      50.193  18.721  18.940  0.00  0.00    -0.011 C 
ATOM     26  C   UNL     1      46.917  16.590  19.365  0.00  0.00    -0.004 C 
ATOM     27  C   UNL     1      46.699  15.449  18.253  0.00  0.00    +0.015 C 
ATOM     28  C   UNL     1      45.680  14.396  18.741  0.00  0.00    +0.020 C 
ATOM     29  O   UNL     1      49.422  12.958  20.724  0.00  0.00    -0.463 OA
ATOM     30  C   UNL     1      46.126  13.724  20.098  0.00  0.00    -0.028 C 
ATOM     31  C   UNL     1      44.818  12.966  20.571  0.00  0.00    +0.010 C 
ENDROOT
TORSDOF 0
ENDMDL
MODEL 7
REMARK VINA RESULT:      -6.4      3.106      5.711
REMARK  Name = ZINC95485962
REMARK  8 active torsions:
REMARK  status: ('A' for Active; 'I' for Inactive)
REMARK    1  A    between atoms: C1_1  and  C2_2
REMARK    2  A    between atoms: C7_10  and  C30_35
REMARK    3  A    between atoms: C11_15  and  C29_34
REMARK    4  A    between atoms: C14_18  and  C28_33
REMARK    5  A    between atoms: C15_19  and  C27_32
REMARK    6  A    between atoms: C18_22  and  C26_31
REMARK    7  A    between atoms: C21_26  and  C24_29
REMARK    8  A    between atoms: C21_26  and  C25_30
REMARK                            x       y       z     vdW  Elec       q    Type
REMARK                         _______ _______ _______ _____ _____    ______ ____
ROOT
ATOM      1  C   UNL     1      45.843  21.358  18.751  0.00  0.00    +0.046 C 
ATOM      2  C   UNL     1      44.809  21.165  19.880  0.00  0.00    -0.028 C 
ATOM      3  C   UNL     1      43.711  20.217  19.507  0.00  0.00    +0.369 C 
ATOM      4  C   UNL     1      42.714  19.783  20.544  0.00  0.00    +0.033 C 
ATOM      5  C   UNL     1      43.409  19.467  21.821  0.00  0.00    +0.027 C 
ATOM      6  C   UNL     1      44.944  19.488  21.740  0.00  0.00    -0.000 C 
ATOM      7  C   UNL     1      45.458  18.147  21.192  0.00  0.00    -0.028 C 
ATOM      8  C   UNL     1      45.097  17.079  22.220  0.00  0.00    +0.015 C 
ATOM      9  C   UNL     1      44.813  17.816  19.884  0.00  0.00    +0.007 C 
ATOM     10  C   UNL     1      45.327  16.393  19.428  0.00  0.00    +0.010 C 
ATOM     11  C   UNL     1      46.761  16.397  19.185  0.00  0.00    -0.015 C 
ATOM     12  C   UNL     1      47.100  17.339  18.020  0.00  0.00    +0.018 C 
ATOM     13  C   UNL     1      47.542  16.921  20.419  0.00  0.00    -0.026 C 
ATOM     14  C   UNL     1      48.976  17.341  19.868  0.00  0.00    +0.003 C 
ATOM     15  C   UNL     1      47.841  15.820  21.441  0.00  0.00    +0.004 C 
ATOM     16  C   UNL     1      48.522  14.597  20.816  0.00  0.00    +0.023 C 
ATOM     17  C   UNL     1      47.519  13.953  19.806  0.00  0.00    -0.036 C 
ATOM     18  C   UNL     1      46.202  13.583  20.514  0.00  0.00    +0.021 C 
ATOM     19  C   UNL     1      48.136  12.679  19.328  0.00  0.00    +0.009 C 
ATOM     20  C   UNL     1      49.205  12.860  18.398  0.00  0.00    +0.010 C 
ATOM     21  C   UNL     1      48.785  13.713  17.163  0.00  0.00    -0.081 C 
ATOM     22  C   UNL     1      49.986  13.901  16.178  0.00  0.00    +0.022 C 
ATOM     23  C   UNL     1      47.611  12.972  16.431  0.00  0.00    +0.012 C 
ATOM     24  C   UNL     1      48.286  15.104  17.661  0.00  0.00    +0.047 C 
ATOM     25  C   UNL     1      47.258  14.930  18.741  0.00  0.00    -0.011 C 
ATOM     26  C   UNL     1      46.994  18.100  21.051  0.00  0.00    -0.004 C 
ATOM     27  C   UNL     1      47.591  19.453  20.420  0.00  0.00    +0.015 C 
ATOM     28  C   UNL     1      47.047  20.693  21.165  0.00  0.00    +0.020 C 
ATOM     29  O   UNL     1      43.688  19.838  18.339  0.00  0.00    -0.463 OA
ATOM     30  C   UNL     1      45.470  20.755  21.136  0.00  0.00    -0.028 C 
ATOM     31  C   UNL     1      45.134  21.867  22.213  0.00  0.00    +0.010 C 
ENDROOT
TORSDOF 0
ENDMDL
MODEL 8
REMARK VINA RESULT:      -6.4      2.793      4.665
REMARK  Name = ZINC95485962
REMARK  8 active torsions:
REMARK  status: ('A' for Active; 'I' for Inactive)
REMARK    1  A    between atoms: C1_1  and  C2_2
REMARK    2  A    between atoms: C7_10  and  C30_35
REMARK    3  A    between atoms: C11_15  and  C29_34
REMARK    4  A    between atoms: C14_18  and  C28_33
REMARK    5  A    between atoms: C15_19  and  C27_32
REMARK    6  A    between atoms: C18_22  and  C26_31
REMARK    7  A    between atoms: C21_26  and  C24_29
REMARK    8  A    between atoms: C21_26  and  C25_30
REMARK                            x       y       z     vdW  Elec       q    Type
REMARK                         _______ _______ _______ _____ _____    ______ ____
ROOT
ATOM      1  C   UNL     1      50.339  20.990  17.306  0.00  0.00    +0.046 C 
ATOM      2  C   UNL     1      50.573  21.152  18.824  0.00  0.00    -0.028 C 
ATOM      3  C   UNL     1      49.359  20.823  19.638  0.00  0.00    +0.369 C 
ATOM      4  C   UNL     1      49.458  20.763  21.136  0.00  0.00    +0.033 C 
ATOM      5  C   UNL     1      50.697  20.043  21.538  0.00  0.00    +0.027 C 
ATOM      6  C   UNL     1      51.472  19.400  20.378  0.00  0.00    -0.000 C 
ATOM      7  C   UNL     1      50.857  18.035  20.030  0.00  0.00    -0.028 C 
ATOM      8  C   UNL     1      51.070  17.131  21.241  0.00  0.00    +0.015 C 
ATOM      9  C   UNL     1      49.394  18.158  19.751  0.00  0.00    +0.007 C 
ATOM     10  C   UNL     1      48.820  16.709  19.486  0.00  0.00    +0.010 C 
ATOM     11  C   UNL     1      49.410  16.111  18.299  0.00  0.00    -0.015 C 
ATOM     12  C   UNL     1      49.038  16.927  17.052  0.00  0.00    +0.018 C 
ATOM     13  C   UNL     1      50.961  16.109  18.379  0.00  0.00    -0.026 C 
ATOM     14  C   UNL     1      51.463  15.915  16.880  0.00  0.00    +0.003 C 
ATOM     15  C   UNL     1      51.513  14.888  19.121  0.00  0.00    +0.004 C 
ATOM     16  C   UNL     1      50.971  13.563  18.572  0.00  0.00    +0.023 C 
ATOM     17  C   UNL     1      49.430  13.532  18.827  0.00  0.00    -0.036 C 
ATOM     18  C   UNL     1      49.128  13.703  20.328  0.00  0.00    +0.021 C 
ATOM     19  C   UNL     1      48.948  12.174  18.432  0.00  0.00    +0.009 C 
ATOM     20  C   UNL     1      48.880  11.966  17.020  0.00  0.00    +0.010 C 
ATOM     21  C   UNL     1      48.012  13.040  16.299  0.00  0.00    -0.081 C 
ATOM     22  C   UNL     1      47.976  12.786  14.755  0.00  0.00    +0.022 C 
ATOM     23  C   UNL     1      46.557  12.968  16.881  0.00  0.00    +0.012 C 
ATOM     24  C   UNL     1      48.615  14.449  16.589  0.00  0.00    +0.047 C 
ATOM     25  C   UNL     1      48.822  14.631  18.065  0.00  0.00    -0.011 C 
ATOM     26  C   UNL     1      51.564  17.336  18.850  0.00  0.00    -0.004 C 
ATOM     27  C   UNL     1      51.884  18.350  17.642  0.00  0.00    +0.015 C 
ATOM     28  C   UNL     1      52.596  19.617  18.165  0.00  0.00    +0.020 C 
ATOM     29  O   UNL     1      48.321  20.617  19.015  0.00  0.00    -0.463 OA
ATOM     30  C   UNL     1      51.744  20.365  19.263  0.00  0.00    -0.028 C 
ATOM     31  C   UNL     1      52.777  21.392  19.883  0.00  0.00    +0.010 C 
ENDROOT
TORSDOF 0
ENDMDL
MODEL 9
REMARK VINA RESULT:      -6.3      2.443      3.330
REMARK  Name = ZINC95485962
REMARK  8 active torsions:
REMARK  status: ('A' for Active; 'I' for Inactive)
REMARK    1  A    between atoms: C1_1  and  C2_2
REMARK    2  A    between atoms: C7_10  and  C30_35
REMARK    3  A    between atoms: C11_15  and  C29_34
REMARK    4  A    between atoms: C14_18  and  C28_33
REMARK    5  A    between atoms: C15_19  and  C27_32
REMARK    6  A    between atoms: C18_22  and  C26_31
REMARK    7  A    between atoms: C21_26  and  C24_29
REMARK    8  A    between atoms: C21_26  and  C25_30
REMARK                            x       y       z     vdW  Elec       q    Type
REMARK                         _______ _______ _______ _____ _____    ______ ____
ROOT
ATOM      1  C   UNL     1      52.588  18.352  20.906  0.00  0.00    +0.046 C 
ATOM      2  C   UNL     1      51.918  19.625  20.348  0.00  0.00    -0.028 C 
ATOM      3  C   UNL     1      51.936  19.684  18.851  0.00  0.00    +0.369 C 
ATOM      4  C   UNL     1      51.179  20.768  18.136  0.00  0.00    +0.033 C 
ATOM      5  C   UNL     1      49.839  20.948  18.755  0.00  0.00    +0.027 C 
ATOM      6  C   UNL     1      49.480  19.910  19.830  0.00  0.00    -0.000 C 
ATOM      7  C   UNL     1      48.941  18.633  19.165  0.00  0.00    -0.028 C 
ATOM      8  C   UNL     1      47.630  19.010  18.479  0.00  0.00    +0.015 C 
ATOM      9  C   UNL     1      49.901  18.107  18.147  0.00  0.00    +0.007 C 
ATOM     10  C   UNL     1      49.243  16.850  17.452  0.00  0.00    +0.010 C 
ATOM     11  C   UNL     1      49.024  15.770  18.400  0.00  0.00    -0.015 C 
ATOM     12  C   UNL     1      50.367  15.268  18.953  0.00  0.00    +0.018 C 
ATOM     13  C   UNL     1      48.196  16.250  19.623  0.00  0.00    -0.026 C 
ATOM     14  C   UNL     1      48.458  15.171  20.764  0.00  0.00    +0.003 C 
ATOM     15  C   UNL     1      46.686  16.178  19.378  0.00  0.00    +0.004 C 
ATOM     16  C   UNL     1      46.227  14.800  18.888  0.00  0.00    +0.023 C 
ATOM     17  C   UNL     1      46.878  14.547  17.490  0.00  0.00    -0.036 C 
ATOM     18  C   UNL     1      46.495  15.668  16.505  0.00  0.00    +0.021 C 
ATOM     19  C   UNL     1      46.296  13.276  16.960  0.00  0.00    +0.009 C 
ATOM     20  C   UNL     1      46.801  12.096  17.588  0.00  0.00    +0.010 C 
ATOM     21  C   UNL     1      48.355  12.005  17.526  0.00  0.00    -0.081 C 
ATOM     22  C   UNL     1      48.868  10.709  18.237  0.00  0.00    +0.022 C 
ATOM     23  C   UNL     1      48.788  11.988  16.019  0.00  0.00    +0.012 C 
ATOM     24  C   UNL     1      48.959  13.263  18.223  0.00  0.00    +0.047 C 
ATOM     25  C   UNL     1      48.335  14.512  17.669  0.00  0.00    -0.011 C 
ATOM     26  C   UNL     1      48.586  17.526  20.179  0.00  0.00    -0.004 C 
ATOM     27  C   UNL     1      49.703  17.366  21.325  0.00  0.00    +0.015 C 
ATOM     28  C   UNL     1      50.044  18.736  21.953  0.00  0.00    +0.020 C 
ATOM     29  O   UNL     1      52.589  18.816  18.276  0.00  0.00    -0.463 OA
ATOM     30  C   UNL     1      50.546  19.773  20.875  0.00  0.00    -0.028 C 
ATOM     31  C   UNL     1      50.503  21.151  21.654  0.00  0.00    +0.010 C 
ENDROOT
TORSDOF 0
ENDMDL
