MODEL 1
REMARK VINA RESULT:      -6.0      0.000      0.000
REMARK  Name = ZINC95486299
REMARK  10 active torsions:
REMARK  status: ('A' for Active; 'I' for Inactive)
REMARK    1  A    between atoms: C1_1  and  C2_2
REMARK    2  A    between atoms: C2_2  and  C3_3
REMARK    3  A    between atoms: C2_2  and  C4_4
REMARK    4  A    between atoms: C10_12  and  O4_27
REMARK    5  A    between atoms: C11_14  and  O3_26
REMARK    6  A    between atoms: C13_18  and  C20_25
REMARK    7  A    between atoms: C17_22  and  C18_23
REMARK    8  A    between atoms: C17_22  and  C19_24
REMARK    9  A    between atoms: O4_27  and  C21_28
REMARK   10  A    between atoms: C21_28  and  C22_30
REMARK                            x       y       z     vdW  Elec       q    Type
REMARK                         _______ _______ _______ _____ _____    ______ ____
ROOT
ATOM      3  C   UNL     1      50.272  19.674  18.579  0.00  0.00    -0.431 C 
ATOM      4  C   UNL     1      50.387  20.566  19.581  0.00  0.00    +0.243 C 
ATOM      5  O   UNL     1      51.490  21.344  19.681  0.00  0.00    -0.643 OA
ATOM      6  C   UNL     1      49.296  20.693  20.581  0.00  0.00    +0.383 C 
ATOM      7  C   UNL     1      48.082  19.861  20.473  0.00  0.00    -0.104 C 
ATOM      8  C   UNL     1      47.971  18.970  19.475  0.00  0.00    -0.104 C 
ATOM      9  C   UNL     1      46.778  18.078  19.322  0.00  0.00    +0.213 C 
ATOM     14  C   UNL     1      45.512  18.521  20.020  0.00  0.00    +0.171 C 
ATOM     17  C   UNL     1      45.610  19.806  20.825  0.00  0.00    +0.041 C 
ATOM     18  C   UNL     1      45.138  21.011  20.024  0.00  0.00    -0.051 C 
ATOM     19  C   UNL     1      43.627  20.859  19.747  0.00  0.00    +0.017 C 
ATOM     20  C   UNL     1      45.851  21.120  18.677  0.00  0.00    +0.026 C 
ATOM     21  C   UNL     1      45.312  22.319  20.796  0.00  0.00    +0.016 C 
ATOM     22  C   UNL     1      46.744  22.461  21.311  0.00  0.00    +0.010 C 
ATOM     23  C   UNL     1      47.029  21.291  22.253  0.00  0.00    +0.040 C 
ATOM     24  C   UNL     1      46.971  19.983  21.472  0.00  0.00    -0.010 C 
ATOM     25  C   UNL     1      47.157  18.856  22.504  0.00  0.00    +0.038 C 
ATOM     26  O   UNL     1      49.443  21.496  21.478  0.00  0.00    -0.417 OA
ATOM     27  C   UNL     1      49.074  18.836  18.488  0.00  0.00    +0.421 C 
ATOM     28  O   UNL     1      48.995  18.016  17.595  0.00  0.00    -0.498 OA
ENDROOT
BRANCH   3   2
ATOM      1  C   UNL     1      51.587  20.874  16.854  0.00  0.00    -0.011 C 
ATOM      2  C   UNL     1      51.368  19.533  17.555  0.00  0.00    +0.076 C 
ATOM     29  C   UNL     1      52.663  19.103  18.249  0.00  0.00    -0.009 C 
ENDBRANCH   3   2
BRANCH  14  15
ATOM     15  O   UNL     1      45.052  17.453  20.874  0.00  0.00    -0.566 OA
ATOM     16  H   UNL     1      45.374  17.510  21.784  0.00  0.00    +0.381 HD
ENDBRANCH  14  15
BRANCH   9  10
ATOM     10  O   UNL     1      46.491  17.918  17.922  0.00  0.00    -0.321 OA
BRANCH  10  11
ATOM     11  C   UNL     1      46.365  16.663  17.465  0.00  0.00    +0.465 C 
ATOM     12  C   UNL     1      46.267  15.514  18.435  0.00  0.00    +0.152 C 
ATOM     13  O   UNL     1      46.328  16.453  16.275  0.00  0.00    -0.528 OA
ENDBRANCH  10  11
ENDBRANCH   9  10
TORSDOF 4
ENDMDL
MODEL 2
REMARK VINA RESULT:      -5.9      1.828      4.656
REMARK  Name = ZINC95486299
REMARK  10 active torsions:
REMARK  status: ('A' for Active; 'I' for Inactive)
REMARK    1  A    between atoms: C1_1  and  C2_2
REMARK    2  A    between atoms: C2_2  and  C3_3
REMARK    3  A    between atoms: C2_2  and  C4_4
REMARK    4  A    between atoms: C10_12  and  O4_27
REMARK    5  A    between atoms: C11_14  and  O3_26
REMARK    6  A    between atoms: C13_18  and  C20_25
REMARK    7  A    between atoms: C17_22  and  C18_23
REMARK    8  A    between atoms: C17_22  and  C19_24
REMARK    9  A    between atoms: O4_27  and  C21_28
REMARK   10  A    between atoms: C21_28  and  C22_30
REMARK                            x       y       z     vdW  Elec       q    Type
REMARK                         _______ _______ _______ _____ _____    ______ ____
ROOT
ATOM      3  C   UNL     1      50.827  19.237  17.718  0.00  0.00    -0.431 C 
ATOM      4  C   UNL     1      50.787  17.949  17.327  0.00  0.00    +0.243 C 
ATOM      5  O   UNL     1      51.829  17.405  16.657  0.00  0.00    -0.643 OA
ATOM      6  C   UNL     1      49.590  17.125  17.635  0.00  0.00    +0.383 C 
ATOM      7  C   UNL     1      48.453  17.703  18.378  0.00  0.00    -0.104 C 
ATOM      8  C   UNL     1      48.495  18.989  18.764  0.00  0.00    -0.104 C 
ATOM      9  C   UNL     1      47.367  19.645  19.499  0.00  0.00    +0.213 C 
ATOM     14  C   UNL     1      46.398  18.724  20.206  0.00  0.00    +0.171 C 
ATOM     17  C   UNL     1      46.665  17.236  20.058  0.00  0.00    +0.041 C 
ATOM     18  C   UNL     1      47.458  16.685  21.235  0.00  0.00    -0.051 C 
ATOM     19  C   UNL     1      46.587  16.782  22.505  0.00  0.00    +0.017 C 
ATOM     20  C   UNL     1      48.740  17.477  21.485  0.00  0.00    +0.026 C 
ATOM     21  C   UNL     1      47.804  15.206  21.054  0.00  0.00    +0.016 C 
ATOM     22  C   UNL     1      48.483  14.967  19.706  0.00  0.00    +0.010 C 
ATOM     23  C   UNL     1      47.510  15.384  18.603  0.00  0.00    +0.040 C 
ATOM     24  C   UNL     1      47.242  16.882  18.700  0.00  0.00    -0.010 C 
ATOM     25  C   UNL     1      46.177  17.200  17.634  0.00  0.00    +0.038 C 
ATOM     26  O   UNL     1      49.583  15.974  17.252  0.00  0.00    -0.417 OA
ATOM     27  C   UNL     1      49.688  19.813  18.438  0.00  0.00    +0.421 C 
ATOM     28  O   UNL     1      49.726  20.984  18.761  0.00  0.00    -0.498 OA
ENDROOT
BRANCH   3   2
ATOM      1  C   UNL     1      51.663  21.152  16.384  0.00  0.00    -0.011 C 
ATOM      2  C   UNL     1      52.034  20.087  17.417  0.00  0.00    +0.076 C 
ATOM     29  C   UNL     1      52.513  20.767  18.701  0.00  0.00    -0.009 C 
ENDBRANCH   3   2
BRANCH  14  15
ATOM     15  O   UNL     1      45.060  19.019  19.755  0.00  0.00    -0.566 OA
ATOM     16  H   UNL     1      44.410  18.341  19.980  0.00  0.00    +0.381 HD
ENDBRANCH  14  15
BRANCH   9  10
ATOM     10  O   UNL     1      47.910  20.560  20.466  0.00  0.00    -0.321 OA
BRANCH  10  11
ATOM     11  C   UNL     1      47.112  21.557  20.876  0.00  0.00    +0.465 C 
ATOM     12  C   UNL     1      47.373  22.236  22.196  0.00  0.00    +0.152 C 
ATOM     13  O   UNL     1      46.184  21.912  20.188  0.00  0.00    -0.528 OA
ENDBRANCH  10  11
ENDBRANCH   9  10
TORSDOF 4
ENDMDL
MODEL 3
REMARK VINA RESULT:      -5.5      1.796      5.025
REMARK  Name = ZINC95486299
REMARK  10 active torsions:
REMARK  status: ('A' for Active; 'I' for Inactive)
REMARK    1  A    between atoms: C1_1  and  C2_2
REMARK    2  A    between atoms: C2_2  and  C3_3
REMARK    3  A    between atoms: C2_2  and  C4_4
REMARK    4  A    between atoms: C10_12  and  O4_27
REMARK    5  A    between atoms: C11_14  and  O3_26
REMARK    6  A    between atoms: C13_18  and  C20_25
REMARK    7  A    between atoms: C17_22  and  C18_23
REMARK    8  A    between atoms: C17_22  and  C19_24
REMARK    9  A    between atoms: O4_27  and  C21_28
REMARK   10  A    between atoms: C21_28  and  C22_30
REMARK                            x       y       z     vdW  Elec       q    Type
REMARK                         _______ _______ _______ _____ _____    ______ ____
ROOT
ATOM      3  C   UNL     1      44.875  20.246  20.276  0.00  0.00    -0.431 C 
ATOM      4  C   UNL     1      45.592  21.149  20.972  0.00  0.00    +0.243 C 
ATOM      5  O   UNL     1      44.969  22.060  21.756  0.00  0.00    -0.643 OA
ATOM      6  C   UNL     1      47.074  21.142  20.875  0.00  0.00    +0.383 C 
ATOM      7  C   UNL     1      47.765  20.144  20.035  0.00  0.00    -0.104 C 
ATOM      8  C   UNL     1      47.047  19.248  19.339  0.00  0.00    -0.104 C 
ATOM      9  C   UNL     1      47.682  18.224  18.450  0.00  0.00    +0.213 C 
ATOM     14  C   UNL     1      49.139  17.915  18.713  0.00  0.00    +0.171 C 
ATOM     17  C   UNL     1      49.797  18.706  19.830  0.00  0.00    +0.041 C 
ATOM     18  C   UNL     1      49.789  17.940  21.145  0.00  0.00    -0.051 C 
ATOM     19  C   UNL     1      50.687  16.693  20.994  0.00  0.00    +0.017 C 
ATOM     20  C   UNL     1      48.388  17.464  21.524  0.00  0.00    +0.026 C 
ATOM     21  C   UNL     1      50.373  18.762  22.294  0.00  0.00    +0.016 C 
ATOM     22  C   UNL     1      49.692  20.126  22.389  0.00  0.00    +0.010 C 
ATOM     23  C   UNL     1      49.934  20.871  21.076  0.00  0.00    +0.040 C 
ATOM     24  C   UNL     1      49.260  20.122  19.932  0.00  0.00    -0.010 C 
ATOM     25  C   UNL     1      49.641  20.870  18.642  0.00  0.00    +0.038 C 
ATOM     26  O   UNL     1      47.685  21.981  21.504  0.00  0.00    -0.417 OA
ATOM     27  C   UNL     1      45.563  19.271  19.427  0.00  0.00    +0.421 C 
ATOM     28  O   UNL     1      44.903  18.480  18.783  0.00  0.00    -0.498 OA
ENDROOT
BRANCH   3   2
ATOM      1  C   UNL     1      42.777  20.485  18.976  0.00  0.00    -0.011 C 
ATOM      2  C   UNL     1      43.371  20.238  20.364  0.00  0.00    +0.076 C 
ATOM     29  C   UNL     1      42.897  18.879  20.887  0.00  0.00    -0.009 C 
ENDBRANCH   3   2
BRANCH  14  15
ATOM     15  O   UNL     1      49.883  18.100  17.490  0.00  0.00    -0.566 OA
ATOM     16  H   UNL     1      50.203  17.278  17.096  0.00  0.00    +0.381 HD
ENDBRANCH  14  15
BRANCH   9  10
ATOM     10  O   UNL     1      46.936  16.999  18.540  0.00  0.00    -0.321 OA
BRANCH  10  11
ATOM     11  C   UNL     1      46.866  16.244  17.433  0.00  0.00    +0.465 C 
ATOM     12  C   UNL     1      47.048  14.752  17.525  0.00  0.00    +0.152 C 
ATOM     13  O   UNL     1      46.657  16.762  16.360  0.00  0.00    -0.528 OA
ENDBRANCH  10  11
ENDBRANCH   9  10
TORSDOF 4
ENDMDL
MODEL 4
REMARK VINA RESULT:      -5.4      2.404      5.748
REMARK  Name = ZINC95486299
REMARK  10 active torsions:
REMARK  status: ('A' for Active; 'I' for Inactive)
REMARK    1  A    between atoms: C1_1  and  C2_2
REMARK    2  A    between atoms: C2_2  and  C3_3
REMARK    3  A    between atoms: C2_2  and  C4_4
REMARK    4  A    between atoms: C10_12  and  O4_27
REMARK    5  A    between atoms: C11_14  and  O3_26
REMARK    6  A    between atoms: C13_18  and  C20_25
REMARK    7  A    between atoms: C17_22  and  C18_23
REMARK    8  A    between atoms: C17_22  and  C19_24
REMARK    9  A    between atoms: O4_27  and  C21_28
REMARK   10  A    between atoms: C21_28  and  C22_30
REMARK                            x       y       z     vdW  Elec       q    Type
REMARK                         _______ _______ _______ _____ _____    ______ ____
ROOT
ATOM      3  C   UNL     1      46.832  18.711  18.690  0.00  0.00    -0.431 C 
ATOM      4  C   UNL     1      47.343  19.842  19.213  0.00  0.00    +0.243 C 
ATOM      5  O   UNL     1      46.539  20.729  19.842  0.00  0.00    -0.643 OA
ATOM      6  C   UNL     1      48.799  20.113  19.094  0.00  0.00    +0.383 C 
ATOM      7  C   UNL     1      49.688  19.145  18.422  0.00  0.00    -0.104 C 
ATOM      8  C   UNL     1      49.175  18.020  17.899  0.00  0.00    -0.104 C 
ATOM      9  C   UNL     1      50.016  17.009  17.184  0.00  0.00    +0.213 C 
ATOM     14  C   UNL     1      51.501  17.044  17.471  0.00  0.00    +0.171 C 
ATOM     17  C   UNL     1      51.969  18.127  18.428  0.00  0.00    +0.041 C 
ATOM     18  C   UNL     1      52.090  17.606  19.853  0.00  0.00    -0.051 C 
ATOM     19  C   UNL     1      53.220  16.555  19.899  0.00  0.00    +0.017 C 
ATOM     20  C   UNL     1      50.805  16.932  20.331  0.00  0.00    +0.026 C 
ATOM     21  C   UNL     1      52.480  18.710  20.837  0.00  0.00    +0.016 C 
ATOM     22  C   UNL     1      51.539  19.907  20.713  0.00  0.00    +0.010 C 
ATOM     23  C   UNL     1      51.651  20.454  19.289  0.00  0.00    +0.040 C 
ATOM     24  C   UNL     1      51.159  19.404  18.299  0.00  0.00    -0.010 C 
ATOM     25  C   UNL     1      51.407  19.985  16.895  0.00  0.00    +0.038 C 
ATOM     26  O   UNL     1      49.220  21.150  19.562  0.00  0.00    -0.417 OA
ATOM     27  C   UNL     1      47.715  17.763  18.007  0.00  0.00    +0.421 C 
ATOM     28  O   UNL     1      47.236  16.760  17.516  0.00  0.00    -0.498 OA
ENDROOT
BRANCH   3   2
ATOM      1  C   UNL     1      45.018  18.063  20.251  0.00  0.00    -0.011 C 
ATOM      2  C   UNL     1      45.358  18.419  18.803  0.00  0.00    +0.076 C 
ATOM     29  C   UNL     1      44.558  19.654  18.381  0.00  0.00    -0.009 C 
ENDBRANCH   3   2
BRANCH  14  15
ATOM     15  O   UNL     1      52.214  17.165  16.223  0.00  0.00    -0.566 OA
ATOM     16  H   UNL     1      52.879  17.866  16.216  0.00  0.00    +0.381 HD
ENDBRANCH  14  15
BRANCH   9  10
ATOM     10  O   UNL     1      49.526  15.693  17.492  0.00  0.00    -0.321 OA
BRANCH  10  11
ATOM     11  C   UNL     1      50.354  14.663  17.254  0.00  0.00    +0.465 C 
ATOM     12  C   UNL     1      50.800  13.778  18.389  0.00  0.00    +0.152 C 
ATOM     13  O   UNL     1      50.742  14.446  16.130  0.00  0.00    -0.528 OA
ENDBRANCH  10  11
ENDBRANCH   9  10
TORSDOF 4
ENDMDL
MODEL 5
REMARK VINA RESULT:      -5.4      2.217      6.333
REMARK  Name = ZINC95486299
REMARK  10 active torsions:
REMARK  status: ('A' for Active; 'I' for Inactive)
REMARK    1  A    between atoms: C1_1  and  C2_2
REMARK    2  A    between atoms: C2_2  and  C3_3
REMARK    3  A    between atoms: C2_2  and  C4_4
REMARK    4  A    between atoms: C10_12  and  O4_27
REMARK    5  A    between atoms: C11_14  and  O3_26
REMARK    6  A    between atoms: C13_18  and  C20_25
REMARK    7  A    between atoms: C17_22  and  C18_23
REMARK    8  A    between atoms: C17_22  and  C19_24
REMARK    9  A    between atoms: O4_27  and  C21_28
REMARK   10  A    between atoms: C21_28  and  C22_30
REMARK                            x       y       z     vdW  Elec       q    Type
REMARK                         _______ _______ _______ _____ _____    ______ ____
ROOT
ATOM      3  C   UNL     1      45.505  18.768  19.697  0.00  0.00    -0.431 C 
ATOM      4  C   UNL     1      44.782  17.753  20.207  0.00  0.00    +0.243 C 
ATOM      5  O   UNL     1      43.525  17.968  20.658  0.00  0.00    -0.643 OA
ATOM      6  C   UNL     1      45.373  16.392  20.273  0.00  0.00    +0.383 C 
ATOM      7  C   UNL     1      46.738  16.143  19.770  0.00  0.00    -0.104 C 
ATOM      8  C   UNL     1      47.458  17.158  19.265  0.00  0.00    -0.104 C 
ATOM      9  C   UNL     1      48.856  16.980  18.761  0.00  0.00    +0.213 C 
ATOM     14  C   UNL     1      49.266  15.570  18.396  0.00  0.00    +0.171 C 
ATOM     17  C   UNL     1      48.218  14.494  18.617  0.00  0.00    +0.041 C 
ATOM     18  C   UNL     1      47.441  14.192  17.343  0.00  0.00    -0.051 C 
ATOM     19  C   UNL     1      48.406  13.566  16.314  0.00  0.00    +0.017 C 
ATOM     20  C   UNL     1      46.846  15.454  16.720  0.00  0.00    +0.026 C 
ATOM     21  C   UNL     1      46.327  13.170  17.577  0.00  0.00    +0.016 C 
ATOM     22  C   UNL     1      45.433  13.595  18.741  0.00  0.00    +0.010 C 
ATOM     23  C   UNL     1      46.298  13.679  19.999  0.00  0.00    +0.040 C 
ATOM     24  C   UNL     1      47.345  14.774  19.826  0.00  0.00    -0.010 C 
ATOM     25  C   UNL     1      48.237  14.719  21.080  0.00  0.00    +0.038 C 
ATOM     26  O   UNL     1      44.698  15.506  20.754  0.00  0.00    -0.417 OA
ATOM     27  C   UNL     1      46.867  18.521  19.217  0.00  0.00    +0.421 C 
ATOM     28  O   UNL     1      47.518  19.452  18.785  0.00  0.00    -0.498 OA
ENDROOT
BRANCH   3   2
ATOM      1  C   UNL     1      43.630  20.121  18.800  0.00  0.00    -0.011 C 
ATOM      2  C   UNL     1      44.921  20.155  19.620  0.00  0.00    +0.076 C 
ATOM     29  C   UNL     1      44.614  20.659  21.032  0.00  0.00    -0.009 C 
ENDBRANCH   3   2
BRANCH  14  15
ATOM     15  O   UNL     1      50.465  15.231  19.123  0.00  0.00    -0.566 OA
ATOM     16  H   UNL     1      51.177  15.878  19.032  0.00  0.00    +0.381 HD
ENDBRANCH  14  15
BRANCH   9  10
ATOM     10  O   UNL     1      49.048  17.820  17.610  0.00  0.00    -0.321 OA
BRANCH  10  11
ATOM     11  C   UNL     1      50.283  18.300  17.404  0.00  0.00    +0.465 C 
ATOM     12  C   UNL     1      51.069  18.874  18.554  0.00  0.00    +0.152 C 
ATOM     13  O   UNL     1      50.767  18.273  16.297  0.00  0.00    -0.528 OA
ENDBRANCH  10  11
ENDBRANCH   9  10
TORSDOF 4
ENDMDL
MODEL 6
REMARK VINA RESULT:      -5.3      1.899      5.408
REMARK  Name = ZINC95486299
REMARK  10 active torsions:
REMARK  status: ('A' for Active; 'I' for Inactive)
REMARK    1  A    between atoms: C1_1  and  C2_2
REMARK    2  A    between atoms: C2_2  and  C3_3
REMARK    3  A    between atoms: C2_2  and  C4_4
REMARK    4  A    between atoms: C10_12  and  O4_27
REMARK    5  A    between atoms: C11_14  and  O3_26
REMARK    6  A    between atoms: C13_18  and  C20_25
REMARK    7  A    between atoms: C17_22  and  C18_23
REMARK    8  A    between atoms: C17_22  and  C19_24
REMARK    9  A    between atoms: O4_27  and  C21_28
REMARK   10  A    between atoms: C21_28  and  C22_30
REMARK                            x       y       z     vdW  Elec       q    Type
REMARK                         _______ _______ _______ _____ _____    ______ ____
ROOT
ATOM      3  C   UNL     1      47.970  15.283  17.650  0.00  0.00    -0.431 C 
ATOM      4  C   UNL     1      46.787  15.425  18.279  0.00  0.00    +0.243 C 
ATOM      5  O   UNL     1      45.900  14.404  18.305  0.00  0.00    -0.643 OA
ATOM      6  C   UNL     1      46.460  16.711  18.946  0.00  0.00    +0.383 C 
ATOM      7  C   UNL     1      47.426  17.827  18.937  0.00  0.00    -0.104 C 
ATOM      8  C   UNL     1      48.602  17.684  18.306  0.00  0.00    -0.104 C 
ATOM      9  C   UNL     1      49.617  18.783  18.238  0.00  0.00    +0.213 C 
ATOM     14  C   UNL     1      49.498  19.874  19.278  0.00  0.00    +0.171 C 
ATOM     17  C   UNL     1      48.340  19.744  20.251  0.00  0.00    +0.041 C 
ATOM     18  C   UNL     1      48.767  19.075  21.551  0.00  0.00    -0.051 C 
ATOM     19  C   UNL     1      49.762  20.004  22.279  0.00  0.00    +0.017 C 
ATOM     20  C   UNL     1      49.467  17.739  21.306  0.00  0.00    +0.026 C 
ATOM     21  C   UNL     1      47.589  18.863  22.503  0.00  0.00    +0.016 C 
ATOM     22  C   UNL     1      46.444  18.136  21.800  0.00  0.00    +0.010 C 
ATOM     23  C   UNL     1      45.981  19.000  20.626  0.00  0.00    +0.040 C 
ATOM     24  C   UNL     1      47.110  19.128  19.610  0.00  0.00    -0.010 C 
ATOM     25  C   UNL     1      46.605  20.095  18.524  0.00  0.00    +0.038 C 
ATOM     26  O   UNL     1      45.378  16.806  19.488  0.00  0.00    -0.417 OA
ATOM     27  C   UNL     1      48.917  16.400  17.626  0.00  0.00    +0.421 C 
ATOM     28  O   UNL     1      49.969  16.268  17.031  0.00  0.00    -0.498 OA
ENDROOT
BRANCH   3   2
ATOM      1  C   UNL     1      48.410  12.871  18.013  0.00  0.00    -0.011 C 
ATOM      2  C   UNL     1      48.320  13.985  16.970  0.00  0.00    +0.076 C 
ATOM     29  C   UNL     1      47.237  13.637  15.945  0.00  0.00    -0.009 C 
ENDBRANCH   3   2
BRANCH  14  15
ATOM     15  O   UNL     1      49.422  21.150  18.608  0.00  0.00    -0.566 OA
ATOM     16  H   UNL     1      49.284  21.899  19.204  0.00  0.00    +0.381 HD
ENDBRANCH  14  15
BRANCH   9  10
ATOM     10  O   UNL     1      50.933  18.210  18.330  0.00  0.00    -0.321 OA
BRANCH  10  11
ATOM     11  C   UNL     1      51.934  18.885  17.744  0.00  0.00    +0.465 C 
ATOM     12  C   UNL     1      51.855  19.228  16.280  0.00  0.00    +0.152 C 
ATOM     13  O   UNL     1      52.899  19.218  18.392  0.00  0.00    -0.528 OA
ENDBRANCH  10  11
ENDBRANCH   9  10
TORSDOF 4
ENDMDL
MODEL 7
REMARK VINA RESULT:      -5.2      4.026      7.224
REMARK  Name = ZINC95486299
REMARK  10 active torsions:
REMARK  status: ('A' for Active; 'I' for Inactive)
REMARK    1  A    between atoms: C1_1  and  C2_2
REMARK    2  A    between atoms: C2_2  and  C3_3
REMARK    3  A    between atoms: C2_2  and  C4_4
REMARK    4  A    between atoms: C10_12  and  O4_27
REMARK    5  A    between atoms: C11_14  and  O3_26
REMARK    6  A    between atoms: C13_18  and  C20_25
REMARK    7  A    between atoms: C17_22  and  C18_23
REMARK    8  A    between atoms: C17_22  and  C19_24
REMARK    9  A    between atoms: O4_27  and  C21_28
REMARK   10  A    between atoms: C21_28  and  C22_30
REMARK                            x       y       z     vdW  Elec       q    Type
REMARK                         _______ _______ _______ _____ _____    ______ ____
ROOT
ATOM      3  C   UNL     1      48.692  12.645  15.649  0.00  0.00    -0.431 C 
ATOM      4  C   UNL     1      47.427  12.379  16.026  0.00  0.00    +0.243 C 
ATOM      5  O   UNL     1      46.774  11.306  15.523  0.00  0.00    -0.643 OA
ATOM      6  C   UNL     1      46.747  13.273  16.999  0.00  0.00    +0.383 C 
ATOM      7  C   UNL     1      47.454  14.439  17.565  0.00  0.00    -0.104 C 
ATOM      8  C   UNL     1      48.714  14.703  17.184  0.00  0.00    -0.104 C 
ATOM      9  C   UNL     1      49.480  15.881  17.700  0.00  0.00    +0.213 C 
ATOM     14  C   UNL     1      48.988  16.489  18.995  0.00  0.00    +0.171 C 
ATOM     17  C   UNL     1      47.752  15.851  19.603  0.00  0.00    +0.041 C 
ATOM     18  C   UNL     1      48.112  14.820  20.665  0.00  0.00    -0.051 C 
ATOM     19  C   UNL     1      48.777  15.549  21.853  0.00  0.00    +0.017 C 
ATOM     20  C   UNL     1      49.100  13.779  20.142  0.00  0.00    +0.026 C 
ATOM     21  C   UNL     1      46.876  14.112  21.222  0.00  0.00    +0.016 C 
ATOM     22  C   UNL     1      46.022  13.539  20.093  0.00  0.00    +0.010 C 
ATOM     23  C   UNL     1      45.567  14.698  19.205  0.00  0.00    +0.040 C 
ATOM     24  C   UNL     1      46.782  15.346  18.551  0.00  0.00    -0.010 C 
ATOM     25  C   UNL     1      46.254  16.562  17.768  0.00  0.00    +0.038 C 
ATOM     26  O   UNL     1      45.602  13.011  17.301  0.00  0.00    -0.417 OA
ATOM     27  C   UNL     1      49.383  13.814  16.198  0.00  0.00    +0.421 C 
ATOM     28  O   UNL     1      50.514  14.058  15.828  0.00  0.00    -0.498 OA
ENDROOT
BRANCH   3   2
ATOM      1  C   UNL     1      49.925  12.585  13.499  0.00  0.00    -0.011 C 
ATOM      2  C   UNL     1      49.397  11.748  14.665  0.00  0.00    +0.076 C 
ATOM     29  C   UNL     1      50.567  11.047  15.360  0.00  0.00    -0.009 C 
ENDBRANCH   3   2
BRANCH  14  15
ATOM     15  O   UNL     1      48.750  17.897  18.789  0.00  0.00    -0.566 OA
ATOM     16  H   UNL     1      48.128  18.287  19.418  0.00  0.00    +0.381 HD
ENDBRANCH  14  15
BRANCH   9  10
ATOM     10  O   UNL     1      50.857  15.505  17.871  0.00  0.00    -0.321 OA
BRANCH  10  11
ATOM     11  C   UNL     1      51.777  16.466  17.698  0.00  0.00    +0.465 C 
ATOM     12  C   UNL     1      51.624  17.464  16.580  0.00  0.00    +0.152 C 
ATOM     13  O   UNL     1      52.730  16.532  18.439  0.00  0.00    -0.528 OA
ENDBRANCH  10  11
ENDBRANCH   9  10
TORSDOF 4
ENDMDL
MODEL 8
REMARK VINA RESULT:      -5.2      2.231      5.582
REMARK  Name = ZINC95486299
REMARK  10 active torsions:
REMARK  status: ('A' for Active; 'I' for Inactive)
REMARK    1  A    between atoms: C1_1  and  C2_2
REMARK    2  A    between atoms: C2_2  and  C3_3
REMARK    3  A    between atoms: C2_2  and  C4_4
REMARK    4  A    between atoms: C10_12  and  O4_27
REMARK    5  A    between atoms: C11_14  and  O3_26
REMARK    6  A    between atoms: C13_18  and  C20_25
REMARK    7  A    between atoms: C17_22  and  C18_23
REMARK    8  A    between atoms: C17_22  and  C19_24
REMARK    9  A    between atoms: O4_27  and  C21_28
REMARK   10  A    between atoms: C21_28  and  C22_30
REMARK                            x       y       z     vdW  Elec       q    Type
REMARK                         _______ _______ _______ _____ _____    ______ ____
ROOT
ATOM      3  C   UNL     1      48.161  15.008  18.561  0.00  0.00    -0.431 C 
ATOM      4  C   UNL     1      49.410  14.691  18.952  0.00  0.00    +0.243 C 
ATOM      5  O   UNL     1      49.872  13.427  18.809  0.00  0.00    -0.643 OA
ATOM      6  C   UNL     1      50.281  15.738  19.545  0.00  0.00    +0.383 C 
ATOM      7  C   UNL     1      49.793  17.123  19.693  0.00  0.00    -0.104 C 
ATOM      8  C   UNL     1      48.546  17.435  19.305  0.00  0.00    -0.104 C 
ATOM      9  C   UNL     1      47.981  18.814  19.448  0.00  0.00    +0.213 C 
ATOM     14  C   UNL     1      48.980  19.940  19.595  0.00  0.00    +0.171 C 
ATOM     17  C   UNL     1      50.443  19.534  19.614  0.00  0.00    +0.041 C 
ATOM     18  C   UNL     1      51.080  19.656  18.236  0.00  0.00    -0.051 C 
ATOM     19  C   UNL     1      51.113  21.147  17.839  0.00  0.00    +0.017 C 
ATOM     20  C   UNL     1      50.288  18.904  17.168  0.00  0.00    +0.026 C 
ATOM     21  C   UNL     1      52.530  19.169  18.228  0.00  0.00    +0.016 C 
ATOM     22  C   UNL     1      52.636  17.763  18.817  0.00  0.00    +0.010 C 
ATOM     23  C   UNL     1      52.141  17.816  20.263  0.00  0.00    +0.040 C 
ATOM     24  C   UNL     1      50.664  18.190  20.284  0.00  0.00    -0.010 C 
ATOM     25  C   UNL     1      50.274  18.329  21.767  0.00  0.00    +0.038 C 
ATOM     26  O   UNL     1      51.394  15.411  19.901  0.00  0.00    -0.417 OA
ATOM     27  C   UNL     1      47.674  16.379  18.728  0.00  0.00    +0.421 C 
ATOM     28  O   UNL     1      46.535  16.645  18.396  0.00  0.00    -0.498 OA
ENDROOT
BRANCH   3   2
ATOM      1  C   UNL     1      45.959  13.885  18.749  0.00  0.00    -0.011 C 
ATOM      2  C   UNL     1      47.264  13.959  17.956  0.00  0.00    +0.076 C 
ATOM     29  C   UNL     1      46.957  14.327  16.502  0.00  0.00    -0.009 C 
ENDBRANCH   3   2
BRANCH  14  15
ATOM     15  O   UNL     1      48.672  20.683  20.793  0.00  0.00    -0.566 OA
ATOM     16  H   UNL     1      48.318  20.142  21.512  0.00  0.00    +0.381 HD
ENDBRANCH  14  15
BRANCH   9  10
ATOM     10  O   UNL     1      47.144  19.096  18.313  0.00  0.00    -0.321 OA
BRANCH  10  11
ATOM     11  C   UNL     1      46.141  19.968  18.497  0.00  0.00    +0.465 C 
ATOM     12  C   UNL     1      44.728  19.469  18.650  0.00  0.00    +0.152 C 
ATOM     13  O   UNL     1      46.371  21.154  18.540  0.00  0.00    -0.528 OA
ENDBRANCH  10  11
ENDBRANCH   9  10
TORSDOF 4
ENDMDL
MODEL 9
REMARK VINA RESULT:      -5.2      3.459      6.472
REMARK  Name = ZINC95486299
REMARK  10 active torsions:
REMARK  status: ('A' for Active; 'I' for Inactive)
REMARK    1  A    between atoms: C1_1  and  C2_2
REMARK    2  A    between atoms: C2_2  and  C3_3
REMARK    3  A    between atoms: C2_2  and  C4_4
REMARK    4  A    between atoms: C10_12  and  O4_27
REMARK    5  A    between atoms: C11_14  and  O3_26
REMARK    6  A    between atoms: C13_18  and  C20_25
REMARK    7  A    between atoms: C17_22  and  C18_23
REMARK    8  A    between atoms: C17_22  and  C19_24
REMARK    9  A    between atoms: O4_27  and  C21_28
REMARK   10  A    between atoms: C21_28  and  C22_30
REMARK                            x       y       z     vdW  Elec       q    Type
REMARK                         _______ _______ _______ _____ _____    ______ ____
ROOT
ATOM      3  C   UNL     1      48.363  13.203  15.914  0.00  0.00    -0.431 C 
ATOM      4  C   UNL     1      49.685  13.379  15.731  0.00  0.00    +0.243 C 
ATOM      5  O   UNL     1      50.319  12.780  14.696  0.00  0.00    -0.643 OA
ATOM      6  C   UNL     1      50.449  14.235  16.675  0.00  0.00    +0.383 C 
ATOM      7  C   UNL     1      49.766  14.905  17.799  0.00  0.00    -0.104 C 
ATOM      8  C   UNL     1      48.448  14.724  17.980  0.00  0.00    -0.104 C 
ATOM      9  C   UNL     1      47.698  15.354  19.113  0.00  0.00    +0.213 C 
ATOM     14  C   UNL     1      48.344  16.558  19.761  0.00  0.00    +0.171 C 
ATOM     17  C   UNL     1      49.698  16.967  19.207  0.00  0.00    +0.041 C 
ATOM     18  C   UNL     1      49.572  18.070  18.166  0.00  0.00    -0.051 C 
ATOM     19  C   UNL     1      49.053  19.347  18.861  0.00  0.00    +0.017 C 
ATOM     20  C   UNL     1      48.583  17.706  17.059  0.00  0.00    +0.026 C 
ATOM     21  C   UNL     1      50.920  18.429  17.541  0.00  0.00    +0.016 C 
ATOM     22  C   UNL     1      51.625  17.181  17.013  0.00  0.00    +0.010 C 
ATOM     23  C   UNL     1      51.863  16.234  18.190  0.00  0.00    +0.040 C 
ATOM     24  C   UNL     1      50.523  15.776  18.754  0.00  0.00    -0.010 C 
ATOM     25  C   UNL     1      50.846  14.923  19.994  0.00  0.00    +0.038 C 
ATOM     26  O   UNL     1      51.641  14.357  16.487  0.00  0.00    -0.417 OA
ATOM     27  C   UNL     1      47.692  13.852  17.042  0.00  0.00    +0.421 C 
ATOM     28  O   UNL     1      46.504  13.662  17.211  0.00  0.00    -0.498 OA
ENDROOT
BRANCH   3   2
ATOM      1  C   UNL     1      47.765  12.842  13.535  0.00  0.00    -0.011 C 
ATOM      2  C   UNL     1      47.572  12.338  14.966  0.00  0.00    +0.076 C 
ATOM     29  C   UNL     1      48.059  10.891  15.067  0.00  0.00    -0.009 C 
ENDBRANCH   3   2
BRANCH  14  15
ATOM     15  O   UNL     1      48.458  16.318  21.180  0.00  0.00    -0.566 OA
ATOM     16  H   UNL     1      47.708  16.644  21.695  0.00  0.00    +0.381 HD
ENDBRANCH  14  15
BRANCH   9  10
ATOM     10  O   UNL     1      46.390  15.735  18.653  0.00  0.00    -0.321 OA
BRANCH  10  11
ATOM     11  C   UNL     1      45.444  15.914  19.587  0.00  0.00    +0.465 C 
ATOM     12  C   UNL     1      45.151  14.823  20.583  0.00  0.00    +0.152 C 
ATOM     13  O   UNL     1      44.825  16.952  19.630  0.00  0.00    -0.528 OA
ENDBRANCH  10  11
ENDBRANCH   9  10
TORSDOF 4
ENDMDL
