MODEL 1
REMARK VINA RESULT:      -6.8      0.000      0.000
REMARK  Name = ZINC95486354
REMARK  11 active torsions:
REMARK  status: ('A' for Active; 'I' for Inactive)
REMARK    1  A    between atoms: C3_3  and  O10_35
REMARK    2  A    between atoms: C4_4  and  O9_34
REMARK    3  A    between atoms: C6_6  and  C7_7
REMARK    4  A    between atoms: C8_8  and  O4_20
REMARK    5  A    between atoms: C13_14  and  O3_18
REMARK    6  A    between atoms: C15_16  and  O2_17
REMARK    7  A    between atoms: O4_20  and  C17_21
REMARK    8  A    between atoms: C18_23  and  O8_33
REMARK    9  A    between atoms: C19_25  and  O7_32
REMARK   10  A    between atoms: C20_27  and  C21_30
REMARK   11  A    between atoms: C21_30  and  O6_31
REMARK                            x       y       z     vdW  Elec       q    Type
REMARK                         _______ _______ _______ _____ _____    ______ ____
ROOT
ATOM     11  C   UNL     1      47.650  19.447  18.877  0.00  0.00    -0.045 C 
ATOM     12  C   UNL     1      47.965  18.298  18.250  0.00  0.00    +0.025 C 
ATOM     26  C   UNL     1      49.304  18.128  17.666  0.00  0.00    +0.405 C 
ATOM     27  C   UNL     1      50.366  19.055  18.103  0.00  0.00    -0.195 A 
ATOM     28  C   UNL     1      50.018  20.238  18.759  0.00  0.00    -0.008 A 
ATOM     29  C   UNL     1      51.008  21.090  19.175  0.00  0.00    -0.025 A 
ATOM     30  C   UNL     1      52.346  20.788  18.943  0.00  0.00    +0.161 A 
ATOM     33  C   UNL     1      52.700  19.620  18.285  0.00  0.00    -0.045 A 
ATOM     34  C   UNL     1      51.712  18.747  17.860  0.00  0.00    +0.194 A 
ATOM     37  O   UNL     1      49.528  17.252  16.850  0.00  0.00    -0.386 OA
ATOM     38  C   UNL     1      48.583  20.608  19.002  0.00  0.00    +0.184 C 
ENDROOT
BRANCH  11  10
ATOM      1  C   UNL     1      46.116  19.297  20.828  0.00  0.00    +0.038 A 
ATOM      2  C   UNL     1      44.859  19.413  21.380  0.00  0.00    +0.008 A 
ATOM      3  C   UNL     1      43.784  19.798  20.592  0.00  0.00    +0.088 A 
ATOM      6  C   UNL     1      43.968  20.070  19.237  0.00  0.00    +0.083 A 
ATOM      9  C   UNL     1      45.224  19.956  18.675  0.00  0.00    +0.037 A 
ATOM     10  C   UNL     1      46.310  19.568  19.470  0.00  0.00    -0.051 A 
BRANCH   3   4
ATOM      4  O   UNL     1      42.546  19.909  21.142  0.00  0.00    -0.487 OA
ATOM      5  H   UNL     1      41.987  20.577  20.721  0.00  0.00    +0.390 HD
ENDBRANCH   3   4
BRANCH   6   7
ATOM      7  O   UNL     1      42.912  20.447  18.469  0.00  0.00    -0.485 OA
ATOM      8  H   UNL     1      42.119  19.909  18.599  0.00  0.00    +0.389 HD
ENDBRANCH   6   7
ENDBRANCH  11  10
BRANCH  30  31
ATOM     31  O   UNL     1      53.312  21.643  19.365  0.00  0.00    -0.495 OA
ATOM     32  H   UNL     1      53.347  22.473  18.870  0.00  0.00    +0.400 HD
ENDBRANCH  30  31
BRANCH  34  35
ATOM     35  O   UNL     1      52.044  17.601  17.213  0.00  0.00    -0.476 OA
ATOM     36  H   UNL     1      51.833  16.796  17.705  0.00  0.00    +0.402 HD
ENDBRANCH  34  35
BRANCH  12  13
ATOM     13  O   UNL     1      47.049  17.298  18.157  0.00  0.00    -0.285 OA
BRANCH  13  14
ATOM     14  C   UNL     1      47.348  16.078  18.838  0.00  0.00    +0.283 C 
ATOM     15  C   UNL     1      46.203  15.705  19.804  0.00  0.00    +0.142 C 
ATOM     18  C   UNL     1      46.113  14.166  19.706  0.00  0.00    +0.176 C 
ATOM     21  C   UNL     1      47.216  13.790  18.693  0.00  0.00    +0.177 C 
ATOM     25  O   UNL     1      47.412  14.981  17.899  0.00  0.00    -0.344 OA
BRANCH  15  16
ATOM     16  O   UNL     1      44.977  16.308  19.383  0.00  0.00    -0.531 OA
ATOM     17  H   UNL     1      45.094  17.109  18.855  0.00  0.00    +0.389 HD
ENDBRANCH  15  16
BRANCH  18  19
ATOM     19  O   UNL     1      44.828  13.768  19.224  0.00  0.00    -0.535 OA
ATOM     20  H   UNL     1      44.747  13.787  18.261  0.00  0.00    +0.388 HD
ENDBRANCH  18  19
BRANCH  21  22
ATOM     22  C   UNL     1      46.754  12.628  17.810  0.00  0.00    +0.224 C 
BRANCH  22  23
ATOM     23  O   UNL     1      46.121  13.144  16.638  0.00  0.00    -0.569 OA
ATOM     24  H   UNL     1      45.945  12.476  15.960  0.00  0.00    +0.381 HD
ENDBRANCH  22  23
ENDBRANCH  21  22
ENDBRANCH  13  14
ENDBRANCH  12  13
TORSDOF 11
ENDMDL
MODEL 2
REMARK VINA RESULT:      -6.4      1.904      6.005
REMARK  Name = ZINC95486354
REMARK  11 active torsions:
REMARK  status: ('A' for Active; 'I' for Inactive)
REMARK    1  A    between atoms: C3_3  and  O10_35
REMARK    2  A    between atoms: C4_4  and  O9_34
REMARK    3  A    between atoms: C6_6  and  C7_7
REMARK    4  A    between atoms: C8_8  and  O4_20
REMARK    5  A    between atoms: C13_14  and  O3_18
REMARK    6  A    between atoms: C15_16  and  O2_17
REMARK    7  A    between atoms: O4_20  and  C17_21
REMARK    8  A    between atoms: C18_23  and  O8_33
REMARK    9  A    between atoms: C19_25  and  O7_32
REMARK   10  A    between atoms: C20_27  and  C21_30
REMARK   11  A    between atoms: C21_30  and  O6_31
REMARK                            x       y       z     vdW  Elec       q    Type
REMARK                         _______ _______ _______ _____ _____    ______ ____
ROOT
ATOM     11  C   UNL     1      48.216  20.326  20.167  0.00  0.00    -0.045 C 
ATOM     12  C   UNL     1      47.912  19.026  20.344  0.00  0.00    +0.025 C 
ATOM     26  C   UNL     1      46.516  18.629  20.582  0.00  0.00    +0.405 C 
ATOM     27  C   UNL     1      45.459  19.605  20.251  0.00  0.00    -0.195 A 
ATOM     28  C   UNL     1      45.797  20.947  20.063  0.00  0.00    -0.008 A 
ATOM     29  C   UNL     1      44.815  21.847  19.742  0.00  0.00    -0.025 A 
ATOM     30  C   UNL     1      43.493  21.436  19.612  0.00  0.00    +0.161 A 
ATOM     33  C   UNL     1      43.147  20.107  19.806  0.00  0.00    -0.045 A 
ATOM     34  C   UNL     1      44.127  19.184  20.127  0.00  0.00    +0.194 A 
ATOM     37  O   UNL     1      46.242  17.533  21.036  0.00  0.00    -0.386 OA
ATOM     38  C   UNL     1      47.211  21.430  20.222  0.00  0.00    +0.184 C 
ENDROOT
BRANCH  11  10
ATOM      1  C   UNL     1      50.509  20.849  20.973  0.00  0.00    +0.038 A 
ATOM      2  C   UNL     1      51.824  21.179  20.725  0.00  0.00    +0.008 A 
ATOM      3  C   UNL     1      52.269  21.344  19.421  0.00  0.00    +0.088 A 
ATOM      6  C   UNL     1      51.388  21.177  18.353  0.00  0.00    +0.083 A 
ATOM      9  C   UNL     1      50.069  20.847  18.591  0.00  0.00    +0.037 A 
ATOM     10  C   UNL     1      49.619  20.679  19.907  0.00  0.00    -0.051 A 
BRANCH   3   4
ATOM      4  O   UNL     1      53.566  21.670  19.184  0.00  0.00    -0.487 OA
ATOM      5  H   UNL     1      54.040  21.028  18.637  0.00  0.00    +0.390 HD
ENDBRANCH   3   4
BRANCH   6   7
ATOM      7  O   UNL     1      51.828  21.341  17.077  0.00  0.00    -0.485 OA
ATOM      8  H   UNL     1      52.693  21.768  17.011  0.00  0.00    +0.389 HD
ENDBRANCH   6   7
ENDBRANCH  11  10
BRANCH  30  31
ATOM     31  O   UNL     1      42.534  22.342  19.292  0.00  0.00    -0.495 OA
ATOM     32  H   UNL     1      41.965  22.071  18.559  0.00  0.00    +0.400 HD
ENDBRANCH  30  31
BRANCH  34  35
ATOM     35  O   UNL     1      43.802  17.881  20.321  0.00  0.00    -0.476 OA
ATOM     36  H   UNL     1      44.458  17.257  19.981  0.00  0.00    +0.402 HD
ENDBRANCH  34  35
BRANCH  12  13
ATOM     13  O   UNL     1      48.891  18.084  20.305  0.00  0.00    -0.285 OA
BRANCH  13  14
ATOM     14  C   UNL     1      49.066  17.382  19.072  0.00  0.00    +0.283 C 
ATOM     15  C   UNL     1      49.041  15.857  19.314  0.00  0.00    +0.142 C 
ATOM     18  C   UNL     1      48.300  15.293  18.081  0.00  0.00    +0.176 C 
ATOM     21  C   UNL     1      47.965  16.544  17.239  0.00  0.00    +0.177 C 
ATOM     25  O   UNL     1      47.953  17.636  18.187  0.00  0.00    -0.344 OA
BRANCH  15  16
ATOM     16  O   UNL     1      48.326  15.551  20.513  0.00  0.00    -0.531 OA
ATOM     17  H   UNL     1      47.967  14.654  20.539  0.00  0.00    +0.389 HD
ENDBRANCH  15  16
BRANCH  18  19
ATOM     19  O   UNL     1      47.104  14.620  18.479  0.00  0.00    -0.535 OA
ATOM     20  H   UNL     1      46.313  14.907  18.002  0.00  0.00    +0.388 HD
ENDBRANCH  18  19
BRANCH  21  22
ATOM     22  C   UNL     1      46.592  16.392  16.580  0.00  0.00    +0.224 C 
BRANCH  22  23
ATOM     23  O   UNL     1      46.604  15.257  15.713  0.00  0.00    -0.569 OA
ATOM     24  H   UNL     1      46.288  14.442  16.128  0.00  0.00    +0.381 HD
ENDBRANCH  22  23
ENDBRANCH  21  22
ENDBRANCH  13  14
ENDBRANCH  12  13
TORSDOF 11
ENDMDL
MODEL 3
REMARK VINA RESULT:      -6.3      2.077      5.744
REMARK  Name = ZINC95486354
REMARK  11 active torsions:
REMARK  status: ('A' for Active; 'I' for Inactive)
REMARK    1  A    between atoms: C3_3  and  O10_35
REMARK    2  A    between atoms: C4_4  and  O9_34
REMARK    3  A    between atoms: C6_6  and  C7_7
REMARK    4  A    between atoms: C8_8  and  O4_20
REMARK    5  A    between atoms: C13_14  and  O3_18
REMARK    6  A    between atoms: C15_16  and  O2_17
REMARK    7  A    between atoms: O4_20  and  C17_21
REMARK    8  A    between atoms: C18_23  and  O8_33
REMARK    9  A    between atoms: C19_25  and  O7_32
REMARK   10  A    between atoms: C20_27  and  C21_30
REMARK   11  A    between atoms: C21_30  and  O6_31
REMARK                            x       y       z     vdW  Elec       q    Type
REMARK                         _______ _______ _______ _____ _____    ______ ____
ROOT
ATOM     11  C   UNL     1      48.403  19.174  19.366  0.00  0.00    -0.045 C 
ATOM     12  C   UNL     1      47.456  18.722  18.523  0.00  0.00    +0.025 C 
ATOM     26  C   UNL     1      46.073  19.203  18.654  0.00  0.00    +0.405 C 
ATOM     27  C   UNL     1      45.843  20.426  19.447  0.00  0.00    -0.195 A 
ATOM     28  C   UNL     1      46.842  20.883  20.310  0.00  0.00    -0.008 A 
ATOM     29  C   UNL     1      46.630  22.027  21.034  0.00  0.00    -0.025 A 
ATOM     30  C   UNL     1      45.433  22.726  20.921  0.00  0.00    +0.161 A 
ATOM     33  C   UNL     1      44.432  22.274  20.074  0.00  0.00    -0.045 A 
ATOM     34  C   UNL     1      44.631  21.122  19.332  0.00  0.00    +0.194 A 
ATOM     37  O   UNL     1      45.148  18.613  18.125  0.00  0.00    -0.386 OA
ATOM     38  C   UNL     1      48.136  20.138  20.476  0.00  0.00    +0.184 C 
ENDROOT
BRANCH  11  10
ATOM      1  C   UNL     1      50.320  17.765  20.089  0.00  0.00    +0.038 A 
ATOM      2  C   UNL     1      51.610  17.311  19.916  0.00  0.00    +0.008 A 
ATOM      3  C   UNL     1      52.374  17.765  18.852  0.00  0.00    +0.088 A 
ATOM      6  C   UNL     1      51.842  18.686  17.948  0.00  0.00    +0.083 A 
ATOM      9  C   UNL     1      50.551  19.147  18.113  0.00  0.00    +0.037 A 
ATOM     10  C   UNL     1      49.779  18.688  19.187  0.00  0.00    -0.051 A 
BRANCH   3   4
ATOM      4  O   UNL     1      53.645  17.314  18.688  0.00  0.00    -0.487 OA
ATOM      5  H   UNL     1      53.743  16.361  18.818  0.00  0.00    +0.390 HD
ENDBRANCH   3   4
BRANCH   6   7
ATOM      7  O   UNL     1      52.594  19.129  16.907  0.00  0.00    -0.485 OA
ATOM      8  H   UNL     1      52.375  20.024  16.615  0.00  0.00    +0.389 HD
ENDBRANCH   6   7
ENDBRANCH  11  10
BRANCH  30  31
ATOM     31  O   UNL     1      45.243  23.858  21.646  0.00  0.00    -0.495 OA
ATOM     32  H   UNL     1      45.195  23.711  22.600  0.00  0.00    +0.400 HD
ENDBRANCH  30  31
BRANCH  34  35
ATOM     35  O   UNL     1      43.659  20.669  18.500  0.00  0.00    -0.476 OA
ATOM     36  H   UNL     1      43.303  21.344  17.907  0.00  0.00    +0.402 HD
ENDBRANCH  34  35
BRANCH  12  13
ATOM     13  O   UNL     1      47.776  17.823  17.554  0.00  0.00    -0.285 OA
BRANCH  13  14
ATOM     14  C   UNL     1      47.717  16.440  17.907  0.00  0.00    +0.283 C 
ATOM     15  C   UNL     1      46.563  15.741  17.156  0.00  0.00    +0.142 C 
ATOM     18  C   UNL     1      47.125  14.342  16.821  0.00  0.00    +0.176 C 
ATOM     21  C   UNL     1      48.552  14.359  17.410  0.00  0.00    +0.177 C 
ATOM     25  O   UNL     1      48.913  15.758  17.467  0.00  0.00    -0.344 OA
BRANCH  15  16
ATOM     16  O   UNL     1      46.240  16.453  15.960  0.00  0.00    -0.531 OA
ATOM     17  H   UNL     1      46.814  17.212  15.787  0.00  0.00    +0.389 HD
ENDBRANCH  15  16
BRANCH  18  19
ATOM     19  O   UNL     1      47.165  14.144  15.406  0.00  0.00    -0.535 OA
ATOM     20  H   UNL     1      47.815  13.487  15.120  0.00  0.00    +0.388 HD
ENDBRANCH  18  19
BRANCH  21  22
ATOM     22  C   UNL     1      49.515  13.595  16.497  0.00  0.00    +0.224 C 
BRANCH  22  23
ATOM     23  O   UNL     1      49.086  12.237  16.384  0.00  0.00    -0.569 OA
ATOM     24  H   UNL     1      48.254  12.049  16.842  0.00  0.00    +0.381 HD
ENDBRANCH  22  23
ENDBRANCH  21  22
ENDBRANCH  13  14
ENDBRANCH  12  13
TORSDOF 11
ENDMDL
MODEL 4
REMARK VINA RESULT:      -6.0      2.301      5.763
REMARK  Name = ZINC95486354
REMARK  11 active torsions:
REMARK  status: ('A' for Active; 'I' for Inactive)
REMARK    1  A    between atoms: C3_3  and  O10_35
REMARK    2  A    between atoms: C4_4  and  O9_34
REMARK    3  A    between atoms: C6_6  and  C7_7
REMARK    4  A    between atoms: C8_8  and  O4_20
REMARK    5  A    between atoms: C13_14  and  O3_18
REMARK    6  A    between atoms: C15_16  and  O2_17
REMARK    7  A    between atoms: O4_20  and  C17_21
REMARK    8  A    between atoms: C18_23  and  O8_33
REMARK    9  A    between atoms: C19_25  and  O7_32
REMARK   10  A    between atoms: C20_27  and  C21_30
REMARK   11  A    between atoms: C21_30  and  O6_31
REMARK                            x       y       z     vdW  Elec       q    Type
REMARK                         _______ _______ _______ _____ _____    ______ ____
ROOT
ATOM     11  C   UNL     1      46.775  18.731  19.439  0.00  0.00    -0.045 C 
ATOM     12  C   UNL     1      48.065  18.705  19.827  0.00  0.00    +0.025 C 
ATOM     26  C   UNL     1      48.903  17.544  19.496  0.00  0.00    +0.405 C 
ATOM     27  C   UNL     1      48.422  16.626  18.445  0.00  0.00    -0.195 A 
ATOM     28  C   UNL     1      47.082  16.675  18.051  0.00  0.00    -0.008 A 
ATOM     29  C   UNL     1      46.642  15.831  17.065  0.00  0.00    -0.025 A 
ATOM     30  C   UNL     1      47.513  14.929  16.464  0.00  0.00    +0.161 A 
ATOM     33  C   UNL     1      48.843  14.867  16.855  0.00  0.00    -0.045 A 
ATOM     34  C   UNL     1      49.305  15.715  17.848  0.00  0.00    +0.194 A 
ATOM     37  O   UNL     1      49.959  17.345  20.069  0.00  0.00    -0.386 OA
ATOM     38  C   UNL     1      46.109  17.618  18.698  0.00  0.00    +0.184 C 
ENDROOT
BRANCH  11  10
ATOM      1  C   UNL     1      45.867  20.968  18.846  0.00  0.00    +0.038 A 
ATOM      2  C   UNL     1      45.117  22.081  19.157  0.00  0.00    +0.008 A 
ATOM      3  C   UNL     1      44.470  22.167  20.382  0.00  0.00    +0.088 A 
ATOM      6  C   UNL     1      44.575  21.128  21.306  0.00  0.00    +0.083 A 
ATOM      9  C   UNL     1      45.324  20.009  21.003  0.00  0.00    +0.037 A 
ATOM     10  C   UNL     1      45.977  19.921  19.767  0.00  0.00    -0.051 A 
BRANCH   3   4
ATOM      4  O   UNL     1      43.732  23.268  20.682  0.00  0.00    -0.487 OA
ATOM      5  H   UNL     1      44.196  23.914  21.232  0.00  0.00    +0.390 HD
ENDBRANCH   3   4
BRANCH   6   7
ATOM      7  O   UNL     1      43.939  21.217  22.504  0.00  0.00    -0.485 OA
ATOM      8  H   UNL     1      44.536  21.275  23.263  0.00  0.00    +0.389 HD
ENDBRANCH   6   7
ENDBRANCH  11  10
BRANCH  30  31
ATOM     31  O   UNL     1      47.059  14.102  15.488  0.00  0.00    -0.495 OA
ATOM     32  H   UNL     1      46.473  13.402  15.805  0.00  0.00    +0.400 HD
ENDBRANCH  30  31
BRANCH  34  35
ATOM     35  O   UNL     1      50.603  15.664  18.241  0.00  0.00    -0.476 OA
ATOM     36  H   UNL     1      50.721  15.589  19.198  0.00  0.00    +0.402 HD
ENDBRANCH  34  35
BRANCH  12  13
ATOM     13  O   UNL     1      48.590  19.749  20.522  0.00  0.00    -0.285 OA
BRANCH  13  14
ATOM     14  C   UNL     1      49.301  20.736  19.772  0.00  0.00    +0.283 C 
ATOM     15  C   UNL     1      50.693  20.984  20.394  0.00  0.00    +0.142 C 
ATOM     18  C   UNL     1      51.616  21.201  19.174  0.00  0.00    +0.176 C 
ATOM     21  C   UNL     1      50.673  21.059  17.959  0.00  0.00    +0.177 C 
ATOM     25  O   UNL     1      49.572  20.254  18.437  0.00  0.00    -0.344 OA
BRANCH  15  16
ATOM     16  O   UNL     1      51.115  19.845  21.148  0.00  0.00    -0.531 OA
ATOM     17  H   UNL     1      52.075  19.734  21.187  0.00  0.00    +0.389 HD
ENDBRANCH  15  16
BRANCH  18  19
ATOM     19  O   UNL     1      52.639  20.204  19.136  0.00  0.00    -0.535 OA
ATOM     20  H   UNL     1      52.939  19.982  18.244  0.00  0.00    +0.388 HD
ENDBRANCH  18  19
BRANCH  21  22
ATOM     22  C   UNL     1      51.391  20.353  16.807  0.00  0.00    +0.224 C 
BRANCH  22  23
ATOM     23  O   UNL     1      52.323  21.253  16.205  0.00  0.00    -0.569 OA
ATOM     24  H   UNL     1      53.238  21.120  16.490  0.00  0.00    +0.381 HD
ENDBRANCH  22  23
ENDBRANCH  21  22
ENDBRANCH  13  14
ENDBRANCH  12  13
TORSDOF 11
ENDMDL
MODEL 5
REMARK VINA RESULT:      -6.0      1.240      2.001
REMARK  Name = ZINC95486354
REMARK  11 active torsions:
REMARK  status: ('A' for Active; 'I' for Inactive)
REMARK    1  A    between atoms: C3_3  and  O10_35
REMARK    2  A    between atoms: C4_4  and  O9_34
REMARK    3  A    between atoms: C6_6  and  C7_7
REMARK    4  A    between atoms: C8_8  and  O4_20
REMARK    5  A    between atoms: C13_14  and  O3_18
REMARK    6  A    between atoms: C15_16  and  O2_17
REMARK    7  A    between atoms: O4_20  and  C17_21
REMARK    8  A    between atoms: C18_23  and  O8_33
REMARK    9  A    between atoms: C19_25  and  O7_32
REMARK   10  A    between atoms: C20_27  and  C21_30
REMARK   11  A    between atoms: C21_30  and  O6_31
REMARK                            x       y       z     vdW  Elec       q    Type
REMARK                         _______ _______ _______ _____ _____    ______ ____
ROOT
ATOM     11  C   UNL     1      47.706  19.455  18.885  0.00  0.00    -0.045 C 
ATOM     12  C   UNL     1      48.040  18.323  18.235  0.00  0.00    +0.025 C 
ATOM     26  C   UNL     1      49.382  18.187  17.649  0.00  0.00    +0.405 C 
ATOM     27  C   UNL     1      50.428  19.123  18.103  0.00  0.00    -0.195 A 
ATOM     28  C   UNL     1      50.061  20.288  18.782  0.00  0.00    -0.008 A 
ATOM     29  C   UNL     1      51.037  21.147  19.215  0.00  0.00    -0.025 A 
ATOM     30  C   UNL     1      52.379  20.873  18.977  0.00  0.00    +0.161 A 
ATOM     33  C   UNL     1      52.752  19.724  18.296  0.00  0.00    -0.045 A 
ATOM     34  C   UNL     1      51.780  18.842  17.855  0.00  0.00    +0.194 A 
ATOM     37  O   UNL     1      49.621  17.331  16.815  0.00  0.00    -0.386 OA
ATOM     38  C   UNL     1      48.620  20.628  19.032  0.00  0.00    +0.184 C 
ENDROOT
BRANCH  11  10
ATOM      1  C   UNL     1      46.155  19.131  20.800  0.00  0.00    +0.038 A 
ATOM      2  C   UNL     1      44.895  19.216  21.353  0.00  0.00    +0.008 A 
ATOM      3  C   UNL     1      43.835  19.707  20.606  0.00  0.00    +0.088 A 
ATOM      6  C   UNL     1      44.036  20.118  19.288  0.00  0.00    +0.083 A 
ATOM      9  C   UNL     1      45.294  20.037  18.724  0.00  0.00    +0.037 A 
ATOM     10  C   UNL     1      46.365  19.542  19.479  0.00  0.00    -0.051 A 
BRANCH   3   4
ATOM      4  O   UNL     1      42.596  19.787  21.157  0.00  0.00    -0.487 OA
ATOM      5  H   UNL     1      42.195  18.928  21.350  0.00  0.00    +0.390 HD
ENDBRANCH   3   4
BRANCH   6   7
ATOM      7  O   UNL     1      42.994  20.597  18.559  0.00  0.00    -0.485 OA
ATOM      8  H   UNL     1      43.223  21.343  17.988  0.00  0.00    +0.389 HD
ENDBRANCH   6   7
ENDBRANCH  11  10
BRANCH  30  31
ATOM     31  O   UNL     1      53.331  21.735  19.415  0.00  0.00    -0.495 OA
ATOM     32  H   UNL     1      53.320  22.594  18.970  0.00  0.00    +0.400 HD
ENDBRANCH  30  31
BRANCH  34  35
ATOM     35  O   UNL     1      52.131  17.716  17.185  0.00  0.00    -0.476 OA
ATOM     36  H   UNL     1      51.514  16.980  17.303  0.00  0.00    +0.402 HD
ENDBRANCH  34  35
BRANCH  12  13
ATOM     13  O   UNL     1      47.141  17.310  18.122  0.00  0.00    -0.285 OA
BRANCH  13  14
ATOM     14  C   UNL     1      47.388  16.134  18.897  0.00  0.00    +0.283 C 
ATOM     15  C   UNL     1      47.378  14.882  17.992  0.00  0.00    +0.142 C 
ATOM     18  C   UNL     1      48.488  13.984  18.581  0.00  0.00    +0.176 C 
ATOM     21  C   UNL     1      49.039  14.799  19.772  0.00  0.00    +0.177 C 
ATOM     25  O   UNL     1      48.718  16.174  19.460  0.00  0.00    -0.344 OA
BRANCH  15  16
ATOM     16  O   UNL     1      47.681  15.238  16.642  0.00  0.00    -0.531 OA
ATOM     17  H   UNL     1      48.224  14.587  16.176  0.00  0.00    +0.389 HD
ENDBRANCH  15  16
BRANCH  18  19
ATOM     19  O   UNL     1      49.513  13.755  17.612  0.00  0.00    -0.535 OA
ATOM     20  H   UNL     1      49.516  14.392  16.884  0.00  0.00    +0.388 HD
ENDBRANCH  18  19
BRANCH  21  22
ATOM     22  C   UNL     1      50.554  14.617  19.888  0.00  0.00    +0.224 C 
BRANCH  22  23
ATOM     23  O   UNL     1      51.212  15.535  19.014  0.00  0.00    -0.569 OA
ATOM     24  H   UNL     1      51.292  16.430  19.373  0.00  0.00    +0.381 HD
ENDBRANCH  22  23
ENDBRANCH  21  22
ENDBRANCH  13  14
ENDBRANCH  12  13
TORSDOF 11
ENDMDL
MODEL 6
REMARK VINA RESULT:      -5.8      2.075      6.352
REMARK  Name = ZINC95486354
REMARK  11 active torsions:
REMARK  status: ('A' for Active; 'I' for Inactive)
REMARK    1  A    between atoms: C3_3  and  O10_35
REMARK    2  A    between atoms: C4_4  and  O9_34
REMARK    3  A    between atoms: C6_6  and  C7_7
REMARK    4  A    between atoms: C8_8  and  O4_20
REMARK    5  A    between atoms: C13_14  and  O3_18
REMARK    6  A    between atoms: C15_16  and  O2_17
REMARK    7  A    between atoms: O4_20  and  C17_21
REMARK    8  A    between atoms: C18_23  and  O8_33
REMARK    9  A    between atoms: C19_25  and  O7_32
REMARK   10  A    between atoms: C20_27  and  C21_30
REMARK   11  A    between atoms: C21_30  and  O6_31
REMARK                            x       y       z     vdW  Elec       q    Type
REMARK                         _______ _______ _______ _____ _____    ______ ____
ROOT
ATOM     11  C   UNL     1      48.178  20.365  19.984  0.00  0.00    -0.045 C 
ATOM     12  C   UNL     1      47.819  19.067  20.021  0.00  0.00    +0.025 C 
ATOM     26  C   UNL     1      46.409  18.706  20.227  0.00  0.00    +0.405 C 
ATOM     27  C   UNL     1      45.393  19.755  20.014  0.00  0.00    -0.195 A 
ATOM     28  C   UNL     1      45.787  21.094  19.971  0.00  0.00    -0.008 A 
ATOM     29  C   UNL     1      44.842  22.065  19.759  0.00  0.00    -0.025 A 
ATOM     30  C   UNL     1      43.503  21.726  19.596  0.00  0.00    +0.161 A 
ATOM     33  C   UNL     1      43.102  20.399  19.647  0.00  0.00    -0.045 A 
ATOM     34  C   UNL     1      44.044  19.406  19.856  0.00  0.00    +0.194 A 
ATOM     37  O   UNL     1      46.090  17.579  20.561  0.00  0.00    -0.386 OA
ATOM     38  C   UNL     1      47.220  21.497  20.169  0.00  0.00    +0.184 C 
ENDROOT
BRANCH  11  10
ATOM      1  C   UNL     1      50.049  20.953  18.456  0.00  0.00    +0.038 A 
ATOM      2  C   UNL     1      51.377  21.254  18.243  0.00  0.00    +0.008 A 
ATOM      3  C   UNL     1      52.264  21.294  19.309  0.00  0.00    +0.088 A 
ATOM      6  C   UNL     1      51.817  21.029  20.604  0.00  0.00    +0.083 A 
ATOM      9  C   UNL     1      50.489  20.726  20.827  0.00  0.00    +0.037 A 
ATOM     10  C   UNL     1      49.593  20.686  19.752  0.00  0.00    -0.051 A 
BRANCH   3   4
ATOM      4  O   UNL     1      53.571  21.591  19.092  0.00  0.00    -0.487 OA
ATOM      5  H   UNL     1      53.740  22.529  18.926  0.00  0.00    +0.390 HD
ENDBRANCH   3   4
BRANCH   6   7
ATOM      7  O   UNL     1      52.690  21.069  21.645  0.00  0.00    -0.485 OA
ATOM      8  H   UNL     1      52.267  21.094  22.514  0.00  0.00    +0.389 HD
ENDBRANCH   6   7
ENDBRANCH  11  10
BRANCH  30  31
ATOM     31  O   UNL     1      42.583  22.701  19.385  0.00  0.00    -0.495 OA
ATOM     32  H   UNL     1      42.898  23.427  18.831  0.00  0.00    +0.400 HD
ENDBRANCH  30  31
BRANCH  34  35
ATOM     35  O   UNL     1      43.664  18.104  19.910  0.00  0.00    -0.476 OA
ATOM     36  H   UNL     1      42.707  17.972  19.874  0.00  0.00    +0.402 HD
ENDBRANCH  34  35
BRANCH  12  13
ATOM     13  O   UNL     1      48.757  18.095  19.870  0.00  0.00    -0.285 OA
BRANCH  13  14
ATOM     14  C   UNL     1      48.783  17.408  18.618  0.00  0.00    +0.283 C 
ATOM     15  C   UNL     1      50.216  17.396  18.041  0.00  0.00    +0.142 C 
ATOM     18  C   UNL     1      50.344  16.005  17.381  0.00  0.00    +0.176 C 
ATOM     21  C   UNL     1      48.974  15.340  17.638  0.00  0.00    +0.177 C 
ATOM     25  O   UNL     1      48.446  16.015  18.801  0.00  0.00    -0.344 OA
BRANCH  15  16
ATOM     16  O   UNL     1      51.178  17.548  19.086  0.00  0.00    -0.531 OA
ATOM     17  H   UNL     1      51.798  16.809  19.161  0.00  0.00    +0.389 HD
ENDBRANCH  15  16
BRANCH  18  19
ATOM     19  O   UNL     1      51.392  15.253  17.998  0.00  0.00    -0.535 OA
ATOM     20  H   UNL     1      51.721  15.640  18.820  0.00  0.00    +0.388 HD
ENDBRANCH  18  19
BRANCH  21  22
ATOM     22  C   UNL     1      49.150  13.846  17.919  0.00  0.00    +0.224 C 
BRANCH  22  23
ATOM     23  O   UNL     1      49.325  13.644  19.323  0.00  0.00    -0.569 OA
ATOM     24  H   UNL     1      49.241  14.452  19.849  0.00  0.00    +0.381 HD
ENDBRANCH  22  23
ENDBRANCH  21  22
ENDBRANCH  13  14
ENDBRANCH  12  13
TORSDOF 11
ENDMDL
MODEL 7
REMARK VINA RESULT:      -5.5      2.344      5.565
REMARK  Name = ZINC95486354
REMARK  11 active torsions:
REMARK  status: ('A' for Active; 'I' for Inactive)
REMARK    1  A    between atoms: C3_3  and  O10_35
REMARK    2  A    between atoms: C4_4  and  O9_34
REMARK    3  A    between atoms: C6_6  and  C7_7
REMARK    4  A    between atoms: C8_8  and  O4_20
REMARK    5  A    between atoms: C13_14  and  O3_18
REMARK    6  A    between atoms: C15_16  and  O2_17
REMARK    7  A    between atoms: O4_20  and  C17_21
REMARK    8  A    between atoms: C18_23  and  O8_33
REMARK    9  A    between atoms: C19_25  and  O7_32
REMARK   10  A    between atoms: C20_27  and  C21_30
REMARK   11  A    between atoms: C21_30  and  O6_31
REMARK                            x       y       z     vdW  Elec       q    Type
REMARK                         _______ _______ _______ _____ _____    ______ ____
ROOT
ATOM     11  C   UNL     1      49.941  16.179  17.768  0.00  0.00    -0.045 C 
ATOM     12  C   UNL     1      49.216  16.697  18.779  0.00  0.00    +0.025 C 
ATOM     26  C   UNL     1      49.472  18.073  19.229  0.00  0.00    +0.405 C 
ATOM     27  C   UNL     1      50.240  18.958  18.332  0.00  0.00    -0.195 A 
ATOM     28  C   UNL     1      50.978  18.402  17.285  0.00  0.00    -0.008 A 
ATOM     29  C   UNL     1      51.679  19.228  16.445  0.00  0.00    -0.025 A 
ATOM     30  C   UNL     1      51.665  20.605  16.633  0.00  0.00    +0.161 A 
ATOM     33  C   UNL     1      50.942  21.166  17.676  0.00  0.00    -0.045 A 
ATOM     34  C   UNL     1      50.225  20.346  18.531  0.00  0.00    +0.194 A 
ATOM     37  O   UNL     1      49.063  18.470  20.306  0.00  0.00    -0.386 OA
ATOM     38  C   UNL     1      51.036  16.916  17.069  0.00  0.00    +0.184 C 
ENDROOT
BRANCH  11  10
ATOM      1  C   UNL     1      50.443  13.744  17.752  0.00  0.00    +0.038 A 
ATOM      2  C   UNL     1      50.155  12.461  17.341  0.00  0.00    +0.008 A 
ATOM      3  C   UNL     1      49.070  12.220  16.511  0.00  0.00    +0.088 A 
ATOM      6  C   UNL     1      48.263  13.276  16.086  0.00  0.00    +0.083 A 
ATOM      9  C   UNL     1      48.543  14.565  16.493  0.00  0.00    +0.037 A 
ATOM     10  C   UNL     1      49.638  14.809  17.331  0.00  0.00    -0.051 A 
BRANCH   3   4
ATOM      4  O   UNL     1      48.792  10.953  16.108  0.00  0.00    -0.487 OA
ATOM      5  H   UNL     1      48.954  10.281  16.785  0.00  0.00    +0.390 HD
ENDBRANCH   3   4
BRANCH   6   7
ATOM      7  O   UNL     1      47.201  13.036  15.272  0.00  0.00    -0.485 OA
ATOM      8  H   UNL     1      46.351  13.010  15.731  0.00  0.00    +0.389 HD
ENDBRANCH   6   7
ENDBRANCH  11  10
BRANCH  30  31
ATOM     31  O   UNL     1      52.364  21.407  15.790  0.00  0.00    -0.495 OA
ATOM     32  H   UNL     1      51.949  21.526  14.925  0.00  0.00    +0.400 HD
ENDBRANCH  30  31
BRANCH  34  35
ATOM     35  O   UNL     1      49.516  20.881  19.556  0.00  0.00    -0.476 OA
ATOM     36  H   UNL     1      49.068  20.226  20.109  0.00  0.00    +0.402 HD
ENDBRANCH  34  35
BRANCH  12  13
ATOM     13  O   UNL     1      48.253  15.951  19.381  0.00  0.00    -0.285 OA
BRANCH  13  14
ATOM     14  C   UNL     1      46.895  16.288  19.091  0.00  0.00    +0.283 C 
ATOM     15  C   UNL     1      46.101  16.497  20.399  0.00  0.00    +0.142 C 
ATOM     18  C   UNL     1      45.146  17.668  20.076  0.00  0.00    +0.176 C 
ATOM     21  C   UNL     1      45.475  18.028  18.611  0.00  0.00    +0.177 C 
ATOM     25  O   UNL     1      46.828  17.560  18.409  0.00  0.00    -0.344 OA
BRANCH  15  16
ATOM     16  O   UNL     1      46.982  16.847  21.469  0.00  0.00    -0.531 OA
ATOM     17  H   UNL     1      47.913  16.661  21.288  0.00  0.00    +0.389 HD
ENDBRANCH  15  16
BRANCH  18  19
ATOM     19  O   UNL     1      45.405  18.778  20.938  0.00  0.00    -0.535 OA
ATOM     20  H   UNL     1      44.678  19.413  20.991  0.00  0.00    +0.388 HD
ENDBRANCH  18  19
BRANCH  21  22
ATOM     22  C   UNL     1      45.396  19.542  18.403  0.00  0.00    +0.224 C 
BRANCH  22  23
ATOM     23  O   UNL     1      46.660  20.131  18.712  0.00  0.00    -0.569 OA
ATOM     24  H   UNL     1      47.420  19.600  18.435  0.00  0.00    +0.381 HD
ENDBRANCH  22  23
ENDBRANCH  21  22
ENDBRANCH  13  14
ENDBRANCH  12  13
TORSDOF 11
ENDMDL
MODEL 8
REMARK VINA RESULT:      -5.4      2.102      6.198
REMARK  Name = ZINC95486354
REMARK  11 active torsions:
REMARK  status: ('A' for Active; 'I' for Inactive)
REMARK    1  A    between atoms: C3_3  and  O10_35
REMARK    2  A    between atoms: C4_4  and  O9_34
REMARK    3  A    between atoms: C6_6  and  C7_7
REMARK    4  A    between atoms: C8_8  and  O4_20
REMARK    5  A    between atoms: C13_14  and  O3_18
REMARK    6  A    between atoms: C15_16  and  O2_17
REMARK    7  A    between atoms: O4_20  and  C17_21
REMARK    8  A    between atoms: C18_23  and  O8_33
REMARK    9  A    between atoms: C19_25  and  O7_32
REMARK   10  A    between atoms: C20_27  and  C21_30
REMARK   11  A    between atoms: C21_30  and  O6_31
REMARK                            x       y       z     vdW  Elec       q    Type
REMARK                         _______ _______ _______ _____ _____    ______ ____
ROOT
ATOM     11  C   UNL     1      50.192  17.028  17.326  0.00  0.00    -0.045 C 
ATOM     12  C   UNL     1      48.850  17.109  17.416  0.00  0.00    +0.025 C 
ATOM     26  C   UNL     1      48.024  15.951  17.044  0.00  0.00    +0.405 C 
ATOM     27  C   UNL     1      48.688  14.636  16.944  0.00  0.00    -0.195 A 
ATOM     28  C   UNL     1      50.081  14.575  16.861  0.00  0.00    -0.008 A 
ATOM     29  C   UNL     1      50.694  13.352  16.783  0.00  0.00    -0.025 A 
ATOM     30  C   UNL     1      49.943  12.182  16.779  0.00  0.00    +0.161 A 
ATOM     33  C   UNL     1      48.559  12.234  16.853  0.00  0.00    -0.045 A 
ATOM     34  C   UNL     1      47.923  13.461  16.936  0.00  0.00    +0.194 A 
ATOM     37  O   UNL     1      46.831  16.072  16.826  0.00  0.00    -0.386 OA
ATOM     38  C   UNL     1      50.921  15.820  16.835  0.00  0.00    +0.184 C 
ENDROOT
BRANCH  11  10
ATOM      1  C   UNL     1      51.439  18.316  19.048  0.00  0.00    +0.038 A 
ATOM      2  C   UNL     1      52.183  19.415  19.423  0.00  0.00    +0.008 A 
ATOM      3  C   UNL     1      52.482  20.404  18.498  0.00  0.00    +0.088 A 
ATOM      6  C   UNL     1      52.031  20.295  17.182  0.00  0.00    +0.083 A 
ATOM      9  C   UNL     1      51.285  19.198  16.798  0.00  0.00    +0.037 A 
ATOM     10  C   UNL     1      50.984  18.199  17.731  0.00  0.00    -0.051 A 
BRANCH   3   4
ATOM      4  O   UNL     1      53.214  21.485  18.874  0.00  0.00    -0.487 OA
ATOM      5  H   UNL     1      54.167  21.323  18.903  0.00  0.00    +0.390 HD
ENDBRANCH   3   4
BRANCH   6   7
ATOM      7  O   UNL     1      52.326  21.267  16.280  0.00  0.00    -0.485 OA
ATOM      8  H   UNL     1      51.686  21.992  16.259  0.00  0.00    +0.389 HD
ENDBRANCH   6   7
ENDBRANCH  11  10
BRANCH  30  31
ATOM     31  O   UNL     1      50.569  10.980  16.703  0.00  0.00    -0.495 OA
ATOM     32  H   UNL     1      50.441  10.419  17.480  0.00  0.00    +0.400 HD
ENDBRANCH  30  31
BRANCH  34  35
ATOM     35  O   UNL     1      46.570  13.526  17.007  0.00  0.00    -0.476 OA
ATOM     36  H   UNL     1      46.172  14.143  16.377  0.00  0.00    +0.402 HD
ENDBRANCH  34  35
BRANCH  12  13
ATOM     13  O   UNL     1      48.262  18.255  17.848  0.00  0.00    -0.285 OA
BRANCH  13  14
ATOM     14  C   UNL     1      47.711  18.245  19.166  0.00  0.00    +0.283 C 
ATOM     15  C   UNL     1      46.222  18.655  19.131  0.00  0.00    +0.142 C 
ATOM     18  C   UNL     1      45.559  17.759  20.200  0.00  0.00    +0.176 C 
ATOM     21  C   UNL     1      46.725  16.913  20.757  0.00  0.00    +0.177 C 
ATOM     25  O   UNL     1      47.712  16.902  19.701  0.00  0.00    -0.344 OA
BRANCH  15  16
ATOM     16  O   UNL     1      45.663  18.397  17.841  0.00  0.00    -0.531 OA
ATOM     17  H   UNL     1      44.740  18.110  17.863  0.00  0.00    +0.389 HD
ENDBRANCH  15  16
BRANCH  18  19
ATOM     19  O   UNL     1      44.567  16.920  19.606  0.00  0.00    -0.535 OA
ATOM     20  H   UNL     1      44.601  16.000  19.902  0.00  0.00    +0.388 HD
ENDBRANCH  18  19
BRANCH  21  22
ATOM     22  C   UNL     1      46.253  15.490  21.062  0.00  0.00    +0.224 C 
BRANCH  22  23
ATOM     23  O   UNL     1      46.284  14.711  19.865  0.00  0.00    -0.569 OA
ATOM     24  H   UNL     1      45.643  13.986  19.851  0.00  0.00    +0.381 HD
ENDBRANCH  22  23
ENDBRANCH  21  22
ENDBRANCH  13  14
ENDBRANCH  12  13
TORSDOF 11
ENDMDL
MODEL 9
REMARK VINA RESULT:      -5.4      3.180      6.223
REMARK  Name = ZINC95486354
REMARK  11 active torsions:
REMARK  status: ('A' for Active; 'I' for Inactive)
REMARK    1  A    between atoms: C3_3  and  O10_35
REMARK    2  A    between atoms: C4_4  and  O9_34
REMARK    3  A    between atoms: C6_6  and  C7_7
REMARK    4  A    between atoms: C8_8  and  O4_20
REMARK    5  A    between atoms: C13_14  and  O3_18
REMARK    6  A    between atoms: C15_16  and  O2_17
REMARK    7  A    between atoms: O4_20  and  C17_21
REMARK    8  A    between atoms: C18_23  and  O8_33
REMARK    9  A    between atoms: C19_25  and  O7_32
REMARK   10  A    between atoms: C20_27  and  C21_30
REMARK   11  A    between atoms: C21_30  and  O6_31
REMARK                            x       y       z     vdW  Elec       q    Type
REMARK                         _______ _______ _______ _____ _____    ______ ____
ROOT
ATOM     11  C   UNL     1      50.970  15.671  17.163  0.00  0.00    -0.045 C 
ATOM     12  C   UNL     1      49.657  15.918  17.341  0.00  0.00    +0.025 C 
ATOM     26  C   UNL     1      49.234  17.115  18.082  0.00  0.00    +0.405 C 
ATOM     27  C   UNL     1      50.228  18.187  18.282  0.00  0.00    -0.195 A 
ATOM     28  C   UNL     1      51.584  17.913  18.085  0.00  0.00    -0.008 A 
ATOM     29  C   UNL     1      52.503  18.915  18.258  0.00  0.00    -0.025 A 
ATOM     30  C   UNL     1      52.097  20.191  18.632  0.00  0.00    +0.161 A 
ATOM     33  C   UNL     1      50.754  20.470  18.839  0.00  0.00    -0.045 A 
ATOM     34  C   UNL     1      49.812  19.470  18.665  0.00  0.00    +0.194 A 
ATOM     37  O   UNL     1      48.100  17.218  18.517  0.00  0.00    -0.386 OA
ATOM     38  C   UNL     1      52.058  16.539  17.706  0.00  0.00    +0.184 C 
ENDROOT
BRANCH  11  10
ATOM      1  C   UNL     1      51.591  13.267  17.053  0.00  0.00    +0.038 A 
ATOM      2  C   UNL     1      51.948  12.150  16.329  0.00  0.00    +0.008 A 
ATOM      3  C   UNL     1      52.072  12.222  14.949  0.00  0.00    +0.088 A 
ATOM      6  C   UNL     1      51.836  13.426  14.286  0.00  0.00    +0.083 A 
ATOM      9  C   UNL     1      51.478  14.550  15.002  0.00  0.00    +0.037 A 
ATOM     10  C   UNL     1      51.352  14.478  16.395  0.00  0.00    -0.051 A 
BRANCH   3   4
ATOM      4  O   UNL     1      52.425  11.118  14.242  0.00  0.00    -0.487 OA
ATOM      5  H   UNL     1      53.366  10.902  14.293  0.00  0.00    +0.390 HD
ENDBRANCH   3   4
BRANCH   6   7
ATOM      7  O   UNL     1      51.959  13.492  12.933  0.00  0.00    -0.485 OA
ATOM      8  H   UNL     1      51.175  13.836  12.483  0.00  0.00    +0.389 HD
ENDBRANCH   6   7
ENDBRANCH  11  10
BRANCH  30  31
ATOM     31  O   UNL     1      53.022  21.170  18.797  0.00  0.00    -0.495 OA
ATOM     32  H   UNL     1      53.007  21.583  19.671  0.00  0.00    +0.400 HD
ENDBRANCH  30  31
BRANCH  34  35
ATOM     35  O   UNL     1      48.495  19.729  18.866  0.00  0.00    -0.476 OA
ATOM     36  H   UNL     1      48.081  20.236  18.153  0.00  0.00    +0.402 HD
ENDBRANCH  34  35
BRANCH  12  13
ATOM     13  O   UNL     1      48.728  15.064  16.837  0.00  0.00    -0.285 OA
BRANCH  13  14
ATOM     14  C   UNL     1      48.412  13.912  17.621  0.00  0.00    +0.283 C 
ATOM     15  C   UNL     1      47.092  14.131  18.392  0.00  0.00    +0.142 C 
ATOM     18  C   UNL     1      46.404  12.748  18.360  0.00  0.00    +0.176 C 
ATOM     21  C   UNL     1      47.389  11.856  17.573  0.00  0.00    +0.177 C 
ATOM     25  O   UNL     1      48.157  12.776  16.765  0.00  0.00    -0.344 OA
BRANCH  15  16
ATOM     16  O   UNL     1      46.285  15.110  17.735  0.00  0.00    -0.531 OA
ATOM     17  H   UNL     1      45.956  15.806  18.321  0.00  0.00    +0.389 HD
ENDBRANCH  15  16
BRANCH  18  19
ATOM     19  O   UNL     1      45.148  12.829  17.683  0.00  0.00    -0.535 OA
ATOM     20  H   UNL     1      44.518  13.436  18.096  0.00  0.00    +0.388 HD
ENDBRANCH  18  19
BRANCH  21  22
ATOM     22  C   UNL     1      46.625  10.872  16.684  0.00  0.00    +0.224 C 
BRANCH  22  23
ATOM     23  O   UNL     1      46.256  11.520  15.466  0.00  0.00    -0.569 OA
ATOM     24  H   UNL     1      46.881  11.378  14.741  0.00  0.00    +0.381 HD
ENDBRANCH  22  23
ENDBRANCH  21  22
ENDBRANCH  13  14
ENDBRANCH  12  13
TORSDOF 11
ENDMDL
