MODEL 1
REMARK VINA RESULT:      -5.9      0.000      0.000
REMARK  Name = ZINC95485994
REMARK  12 active torsions:
REMARK  status: ('A' for Active; 'I' for Inactive)
REMARK    1  A    between atoms: C1_1  and  C2_2
REMARK    2  A    between atoms: C6_8  and  C25_33
REMARK    3  A    between atoms: C6_8  and  C26_34
REMARK    4  A    between atoms: C7_9  and  O3_32
REMARK    5  A    between atoms: C8_11  and  C21_28
REMARK    6  A    between atoms: C8_11  and  C22_29
REMARK    7  A    between atoms: C9_12  and  O1_17
REMARK    8  A    between atoms: O1_17  and  C12_18
REMARK    9  A    between atoms: C12_18  and  C13_20
REMARK   10  A    between atoms: C14_21  and  C15_22
REMARK   11  A    between atoms: C22_29  and  C23_30
REMARK   12  A    between atoms: C22_29  and  C24_31
REMARK                            x       y       z     vdW  Elec       q    Type
REMARK                         _______ _______ _______ _____ _____    ______ ____
ROOT
ATOM      1  C   UNL     1      42.713  18.299  21.855  0.00  0.00    +0.018 C 
ATOM      2  C   UNL     1      44.099  17.655  21.814  0.00  0.00    -0.022 C 
ATOM      3  C   UNL     1      44.457  17.231  20.374  0.00  0.00    +0.017 C 
ATOM      4  C   UNL     1      46.011  17.162  20.393  0.00  0.00    +0.002 C 
ATOM      5  C   UNL     1      46.501  17.295  18.999  0.00  0.00    +0.029 C 
ATOM      6  C   UNL     1      47.969  17.293  18.706  0.00  0.00    -0.075 C 
ATOM      7  C   UNL     1      48.114  17.011  17.186  0.00  0.00    +0.016 C 
ATOM      8  C   UNL     1      48.631  16.103  19.416  0.00  0.00    +0.027 C 
ATOM      9  C   UNL     1      48.714  18.550  18.975  0.00  0.00    +0.194 C 
ATOM     12  C   UNL     1      48.591  19.194  20.330  0.00  0.00    -0.036 C 
ATOM     16  C   UNL     1      49.481  18.483  21.351  0.00  0.00    +0.049 C 
ATOM     17  C   UNL     1      47.231  19.390  20.886  0.00  0.00    +0.211 C 
ATOM     29  C   UNL     1      46.445  18.217  21.380  0.00  0.00    -0.017 C 
ATOM     30  C   UNL     1      45.197  18.689  22.163  0.00  0.00    +0.014 C 
ENDROOT
BRANCH  12  13
ATOM     13  C   UNL     1      49.189  20.617  20.179  0.00  0.00    -0.031 C 
ATOM     14  C   UNL     1      49.484  20.893  18.703  0.00  0.00    +0.032 C 
ATOM     15  C   UNL     1      50.487  20.712  20.983  0.00  0.00    +0.016 C 
ENDBRANCH  12  13
BRANCH   9  10
ATOM     10  O   UNL     1      50.110  18.319  18.707  0.00  0.00    -0.559 OA
ATOM     11  H   UNL     1      50.276  17.612  18.068  0.00  0.00    +0.368 HD
ENDBRANCH   9  10
BRANCH  17  18
ATOM     18  O   UNL     1      46.444  20.066  19.899  0.00  0.00    -0.337 OA
BRANCH  18  19
ATOM     19  C   UNL     1      45.775  21.168  20.298  0.00  0.00    +0.494 C 
ATOM     28  O   UNL     1      46.351  22.031  20.931  0.00  0.00    -0.509 OA
BRANCH  19  20
ATOM     20  C   UNL     1      44.359  21.323  19.968  0.00  0.00    -0.058 C 
ATOM     21  C   UNL     1      43.777  20.487  19.082  0.00  0.00    +0.136 C 
BRANCH  21  22
ATOM     22  C   UNL     1      42.352  20.644  18.751  0.00  0.00    -0.084 A 
ATOM     23  C   UNL     1      41.617  19.553  18.273  0.00  0.00    +0.032 A 
ATOM     24  C   UNL     1      40.282  19.709  17.965  0.00  0.00    +0.005 A 
ATOM     25  C   UNL     1      39.670  20.939  18.126  0.00  0.00    +0.023 A 
ATOM     26  C   UNL     1      40.390  22.023  18.598  0.00  0.00    +0.005 A 
ATOM     27  C   UNL     1      41.724  21.882  18.916  0.00  0.00    +0.039 A 
ENDBRANCH  21  22
ENDBRANCH  19  20
ENDBRANCH  18  19
ENDBRANCH  17  18
TORSDOF 6
ENDMDL
MODEL 2
REMARK VINA RESULT:      -5.8      2.104      6.568
REMARK  Name = ZINC95485994
REMARK  12 active torsions:
REMARK  status: ('A' for Active; 'I' for Inactive)
REMARK    1  A    between atoms: C1_1  and  C2_2
REMARK    2  A    between atoms: C6_8  and  C25_33
REMARK    3  A    between atoms: C6_8  and  C26_34
REMARK    4  A    between atoms: C7_9  and  O3_32
REMARK    5  A    between atoms: C8_11  and  C21_28
REMARK    6  A    between atoms: C8_11  and  C22_29
REMARK    7  A    between atoms: C9_12  and  O1_17
REMARK    8  A    between atoms: O1_17  and  C12_18
REMARK    9  A    between atoms: C12_18  and  C13_20
REMARK   10  A    between atoms: C14_21  and  C15_22
REMARK   11  A    between atoms: C22_29  and  C23_30
REMARK   12  A    between atoms: C22_29  and  C24_31
REMARK                            x       y       z     vdW  Elec       q    Type
REMARK                         _______ _______ _______ _____ _____    ______ ____
ROOT
ATOM      1  C   UNL     1      48.053  16.224  17.270  0.00  0.00    +0.018 C 
ATOM      2  C   UNL     1      46.738  16.970  17.495  0.00  0.00    -0.022 C 
ATOM      3  C   UNL     1      45.958  16.350  18.674  0.00  0.00    +0.017 C 
ATOM      4  C   UNL     1      45.020  17.503  19.133  0.00  0.00    +0.002 C 
ATOM      5  C   UNL     1      44.621  17.247  20.540  0.00  0.00    +0.029 C 
ATOM      6  C   UNL     1      43.736  18.212  21.266  0.00  0.00    -0.075 C 
ATOM      7  C   UNL     1      43.179  17.453  22.501  0.00  0.00    +0.016 C 
ATOM      8  C   UNL     1      42.516  18.542  20.395  0.00  0.00    +0.027 C 
ATOM      9  C   UNL     1      44.368  19.453  21.783  0.00  0.00    +0.194 C 
ATOM     12  C   UNL     1      45.177  20.305  20.841  0.00  0.00    -0.036 C 
ATOM     16  C   UNL     1      44.264  21.168  19.970  0.00  0.00    +0.049 C 
ATOM     17  C   UNL     1      46.200  19.635  20.003  0.00  0.00    +0.211 C 
ATOM     29  C   UNL     1      45.783  18.774  18.854  0.00  0.00    -0.017 C 
ATOM     30  C   UNL     1      47.001  18.421  17.968  0.00  0.00    +0.014 C 
ENDROOT
BRANCH  12  13
ATOM     13  C   UNL     1      45.958  21.302  21.737  0.00  0.00    -0.031 C 
ATOM     14  C   UNL     1      44.970  22.180  22.505  0.00  0.00    +0.032 C 
ATOM     15  C   UNL     1      46.849  22.184  20.860  0.00  0.00    +0.016 C 
ENDBRANCH  12  13
BRANCH   9  10
ATOM     10  O   UNL     1      43.344  20.275  22.372  0.00  0.00    -0.559 OA
ATOM     11  H   UNL     1      43.223  20.133  23.321  0.00  0.00    +0.368 HD
ENDBRANCH   9  10
BRANCH  17  18
ATOM     18  O   UNL     1      47.033  18.851  20.864  0.00  0.00    -0.337 OA
BRANCH  18  19
ATOM     19  C   UNL     1      48.346  19.161  20.897  0.00  0.00    +0.494 C 
ATOM     28  O   UNL     1      48.860  19.518  21.940  0.00  0.00    -0.509 OA
BRANCH  19  20
ATOM     20  C   UNL     1      49.150  19.067  19.679  0.00  0.00    -0.058 C 
ATOM     21  C   UNL     1      49.835  20.143  19.239  0.00  0.00    +0.136 C 
BRANCH  21  22
ATOM     22  C   UNL     1      50.644  20.049  18.013  0.00  0.00    -0.084 A 
ATOM     23  C   UNL     1      51.119  21.210  17.394  0.00  0.00    +0.032 A 
ATOM     24  C   UNL     1      51.877  21.112  16.245  0.00  0.00    +0.005 A 
ATOM     25  C   UNL     1      52.166  19.871  15.706  0.00  0.00    +0.023 A 
ATOM     26  C   UNL     1      51.700  18.718  16.314  0.00  0.00    +0.005 A 
ATOM     27  C   UNL     1      50.946  18.799  17.465  0.00  0.00    +0.039 A 
ENDBRANCH  21  22
ENDBRANCH  19  20
ENDBRANCH  18  19
ENDBRANCH  17  18
TORSDOF 6
ENDMDL
MODEL 3
REMARK VINA RESULT:      -5.8      2.060      4.377
REMARK  Name = ZINC95485994
REMARK  12 active torsions:
REMARK  status: ('A' for Active; 'I' for Inactive)
REMARK    1  A    between atoms: C1_1  and  C2_2
REMARK    2  A    between atoms: C6_8  and  C25_33
REMARK    3  A    between atoms: C6_8  and  C26_34
REMARK    4  A    between atoms: C7_9  and  O3_32
REMARK    5  A    between atoms: C8_11  and  C21_28
REMARK    6  A    between atoms: C8_11  and  C22_29
REMARK    7  A    between atoms: C9_12  and  O1_17
REMARK    8  A    between atoms: O1_17  and  C12_18
REMARK    9  A    between atoms: C12_18  and  C13_20
REMARK   10  A    between atoms: C14_21  and  C15_22
REMARK   11  A    between atoms: C22_29  and  C23_30
REMARK   12  A    between atoms: C22_29  and  C24_31
REMARK                            x       y       z     vdW  Elec       q    Type
REMARK                         _______ _______ _______ _____ _____    ______ ____
ROOT
ATOM      1  C   UNL     1      45.869  21.132  21.464  0.00  0.00    +0.018 C 
ATOM      2  C   UNL     1      47.284  21.525  21.038  0.00  0.00    -0.022 C 
ATOM      3  C   UNL     1      48.331  20.684  21.798  0.00  0.00    +0.017 C 
ATOM      4  C   UNL     1      49.588  20.761  20.885  0.00  0.00    +0.002 C 
ATOM      5  C   UNL     1      50.464  19.604  21.198  0.00  0.00    +0.029 C 
ATOM      6  C   UNL     1      51.744  19.395  20.450  0.00  0.00    -0.075 C 
ATOM      7  C   UNL     1      52.588  18.401  21.293  0.00  0.00    +0.016 C 
ATOM      8  C   UNL     1      52.543  20.706  20.429  0.00  0.00    +0.027 C 
ATOM      9  C   UNL     1      51.644  18.814  19.087  0.00  0.00    +0.194 C 
ATOM     12  C   UNL     1      50.714  19.453  18.090  0.00  0.00    -0.036 C 
ATOM     16  C   UNL     1      51.349  20.702  17.479  0.00  0.00    +0.049 C 
ATOM     17  C   UNL     1      49.325  19.743  18.521  0.00  0.00    +0.211 C 
ATOM     29  C   UNL     1      49.053  20.859  19.477  0.00  0.00    -0.017 C 
ATOM     30  C   UNL     1      47.537  21.152  19.557  0.00  0.00    +0.014 C 
ENDROOT
BRANCH  12  13
ATOM     13  C   UNL     1      50.585  18.440  16.922  0.00  0.00    -0.031 C 
ATOM     14  C   UNL     1      51.036  17.056  17.394  0.00  0.00    +0.032 C 
ATOM     15  C   UNL     1      51.466  18.892  15.756  0.00  0.00    +0.016 C 
ENDBRANCH  12  13
BRANCH   9  10
ATOM     10  O   UNL     1      52.963  18.770  18.513  0.00  0.00    -0.559 OA
ATOM     11  H   UNL     1      53.607  18.281  19.044  0.00  0.00    +0.368 HD
ENDBRANCH   9  10
BRANCH  17  18
ATOM     18  O   UNL     1      48.775  18.542  19.074  0.00  0.00    -0.337 OA
BRANCH  18  19
ATOM     19  C   UNL     1      47.581  18.136  18.593  0.00  0.00    +0.494 C 
ATOM     28  O   UNL     1      47.486  17.770  17.437  0.00  0.00    -0.509 OA
BRANCH  19  20
ATOM     20  C   UNL     1      46.404  18.136  19.460  0.00  0.00    -0.058 C 
ATOM     21  C   UNL     1      45.208  18.528  18.974  0.00  0.00    +0.136 C 
BRANCH  21  22
ATOM     22  C   UNL     1      44.024  18.528  19.847  0.00  0.00    -0.084 A 
ATOM     23  C   UNL     1      44.019  17.773  21.025  0.00  0.00    +0.032 A 
ATOM     24  C   UNL     1      42.904  17.779  21.837  0.00  0.00    +0.005 A 
ATOM     25  C   UNL     1      41.794  18.527  21.490  0.00  0.00    +0.023 A 
ATOM     26  C   UNL     1      41.791  19.276  20.326  0.00  0.00    +0.005 A 
ATOM     27  C   UNL     1      42.900  19.285  19.506  0.00  0.00    +0.039 A 
ENDBRANCH  21  22
ENDBRANCH  19  20
ENDBRANCH  18  19
ENDBRANCH  17  18
TORSDOF 6
ENDMDL
MODEL 4
REMARK VINA RESULT:      -5.6      1.942      3.099
REMARK  Name = ZINC95485994
REMARK  12 active torsions:
REMARK  status: ('A' for Active; 'I' for Inactive)
REMARK    1  A    between atoms: C1_1  and  C2_2
REMARK    2  A    between atoms: C6_8  and  C25_33
REMARK    3  A    between atoms: C6_8  and  C26_34
REMARK    4  A    between atoms: C7_9  and  O3_32
REMARK    5  A    between atoms: C8_11  and  C21_28
REMARK    6  A    between atoms: C8_11  and  C22_29
REMARK    7  A    between atoms: C9_12  and  O1_17
REMARK    8  A    between atoms: O1_17  and  C12_18
REMARK    9  A    between atoms: C12_18  and  C13_20
REMARK   10  A    between atoms: C14_21  and  C15_22
REMARK   11  A    between atoms: C22_29  and  C23_30
REMARK   12  A    between atoms: C22_29  and  C24_31
REMARK                            x       y       z     vdW  Elec       q    Type
REMARK                         _______ _______ _______ _____ _____    ______ ____
ROOT
ATOM      1  C   UNL     1      45.355  17.017  19.268  0.00  0.00    +0.018 C 
ATOM      2  C   UNL     1      46.828  16.611  19.245  0.00  0.00    -0.022 C 
ATOM      3  C   UNL     1      47.466  16.964  17.884  0.00  0.00    +0.017 C 
ATOM      4  C   UNL     1      48.985  17.048  18.208  0.00  0.00    +0.002 C 
ATOM      5  C   UNL     1      49.639  17.879  17.166  0.00  0.00    +0.029 C 
ATOM      6  C   UNL     1      51.107  18.163  17.231  0.00  0.00    -0.075 C 
ATOM      7  C   UNL     1      51.523  18.656  15.818  0.00  0.00    +0.016 C 
ATOM      8  C   UNL     1      51.873  16.851  17.456  0.00  0.00    +0.027 C 
ATOM      9  C   UNL     1      51.553  19.206  18.190  0.00  0.00    +0.194 C 
ATOM     12  C   UNL     1      51.114  19.109  19.627  0.00  0.00    -0.036 C 
ATOM     16  C   UNL     1      51.964  18.089  20.386  0.00  0.00    +0.049 C 
ATOM     17  C   UNL     1      49.675  18.879  19.901  0.00  0.00    +0.211 C 
ATOM     29  C   UNL     1      49.063  17.542  19.632  0.00  0.00    -0.017 C 
ATOM     30  C   UNL     1      47.648  17.456  20.250  0.00  0.00    +0.014 C 
ENDROOT
BRANCH  12  13
ATOM     13  C   UNL     1      51.447  20.483  20.265  0.00  0.00    -0.031 C 
ATOM     14  C   UNL     1      51.882  21.461  19.173  0.00  0.00    +0.032 C 
ATOM     15  C   UNL     1      52.581  20.313  21.278  0.00  0.00    +0.016 C 
ENDBRANCH  12  13
BRANCH   9  10
ATOM     10  O   UNL     1      52.991  19.270  18.158  0.00  0.00    -0.559 OA
ATOM     11  H   UNL     1      53.389  19.586  18.981  0.00  0.00    +0.368 HD
ENDBRANCH   9  10
BRANCH  17  18
ATOM     18  O   UNL     1      48.926  19.863  19.178  0.00  0.00    -0.337 OA
BRANCH  18  19
ATOM     19  C   UNL     1      48.043  20.601  19.882  0.00  0.00    +0.494 C 
ATOM     28  O   UNL     1      48.384  21.119  20.929  0.00  0.00    -0.509 OA
BRANCH  19  20
ATOM     20  C   UNL     1      46.679  20.779  19.387  0.00  0.00    -0.058 C 
ATOM     21  C   UNL     1      45.704  21.184  20.228  0.00  0.00    +0.136 C 
BRANCH  21  22
ATOM     22  C   UNL     1      44.331  21.363  19.731  0.00  0.00    -0.084 A 
ATOM     23  C   UNL     1      43.769  22.642  19.661  0.00  0.00    +0.032 A 
ATOM     24  C   UNL     1      42.482  22.800  19.193  0.00  0.00    +0.005 A 
ATOM     25  C   UNL     1      41.746  21.699  18.794  0.00  0.00    +0.023 A 
ATOM     26  C   UNL     1      42.295  20.430  18.860  0.00  0.00    +0.005 A 
ATOM     27  C   UNL     1      43.583  20.256  19.320  0.00  0.00    +0.039 A 
ENDBRANCH  21  22
ENDBRANCH  19  20
ENDBRANCH  18  19
ENDBRANCH  17  18
TORSDOF 6
ENDMDL
MODEL 5
REMARK VINA RESULT:      -5.6      2.563      5.345
REMARK  Name = ZINC95485994
REMARK  12 active torsions:
REMARK  status: ('A' for Active; 'I' for Inactive)
REMARK    1  A    between atoms: C1_1  and  C2_2
REMARK    2  A    between atoms: C6_8  and  C25_33
REMARK    3  A    between atoms: C6_8  and  C26_34
REMARK    4  A    between atoms: C7_9  and  O3_32
REMARK    5  A    between atoms: C8_11  and  C21_28
REMARK    6  A    between atoms: C8_11  and  C22_29
REMARK    7  A    between atoms: C9_12  and  O1_17
REMARK    8  A    between atoms: O1_17  and  C12_18
REMARK    9  A    between atoms: C12_18  and  C13_20
REMARK   10  A    between atoms: C14_21  and  C15_22
REMARK   11  A    between atoms: C22_29  and  C23_30
REMARK   12  A    between atoms: C22_29  and  C24_31
REMARK                            x       y       z     vdW  Elec       q    Type
REMARK                         _______ _______ _______ _____ _____    ______ ____
ROOT
ATOM      1  C   UNL     1      50.491  13.885  16.571  0.00  0.00    +0.018 C 
ATOM      2  C   UNL     1      51.221  14.983  17.346  0.00  0.00    -0.022 C 
ATOM      3  C   UNL     1      51.452  16.217  16.447  0.00  0.00    +0.017 C 
ATOM      4  C   UNL     1      51.636  17.377  17.467  0.00  0.00    +0.002 C 
ATOM      5  C   UNL     1      51.334  18.656  16.777  0.00  0.00    +0.029 C 
ATOM      6  C   UNL     1      51.399  19.954  17.520  0.00  0.00    -0.075 C 
ATOM      7  C   UNL     1      51.464  21.073  16.446  0.00  0.00    +0.016 C 
ATOM      8  C   UNL     1      52.725  20.037  18.290  0.00  0.00    +0.027 C 
ATOM      9  C   UNL     1      50.252  20.284  18.405  0.00  0.00    +0.194 C 
ATOM     12  C   UNL     1      49.808  19.274  19.429  0.00  0.00    -0.036 C 
ATOM     16  C   UNL     1      50.723  19.304  20.653  0.00  0.00    +0.049 C 
ATOM     17  C   UNL     1      49.598  17.876  18.982  0.00  0.00    +0.211 C 
ATOM     29  C   UNL     1      50.771  17.011  18.648  0.00  0.00    -0.017 C 
ATOM     30  C   UNL     1      50.331  15.536  18.485  0.00  0.00    +0.014 C 
ENDROOT
BRANCH  12  13
ATOM     13  C   UNL     1      48.425  19.762  19.934  0.00  0.00    -0.031 C 
ATOM     14  C   UNL     1      47.850  20.778  18.945  0.00  0.00    +0.032 C 
ATOM     15  C   UNL     1      48.586  20.421  21.305  0.00  0.00    +0.016 C 
ENDBRANCH  12  13
BRANCH   9  10
ATOM     10  O   UNL     1      50.541  21.521  19.083  0.00  0.00    -0.559 OA
ATOM     11  H   UNL     1      49.880  22.212  18.940  0.00  0.00    +0.368 HD
ENDBRANCH   9  10
BRANCH  17  18
ATOM     18  O   UNL     1      48.729  17.902  17.844  0.00  0.00    -0.337 OA
BRANCH  18  19
ATOM     19  C   UNL     1      47.717  17.010  17.824  0.00  0.00    +0.494 C 
ATOM     28  O   UNL     1      47.592  16.255  16.879  0.00  0.00    -0.509 OA
BRANCH  19  20
ATOM     20  C   UNL     1      46.773  16.951  18.939  0.00  0.00    -0.058 C 
ATOM     21  C   UNL     1      45.634  17.674  18.897  0.00  0.00    +0.136 C 
BRANCH  21  22
ATOM     22  C   UNL     1      44.684  17.614  20.018  0.00  0.00    -0.084 A 
ATOM     23  C   UNL     1      43.689  18.590  20.150  0.00  0.00    +0.032 A 
ATOM     24  C   UNL     1      42.802  18.526  21.204  0.00  0.00    +0.005 A 
ATOM     25  C   UNL     1      42.895  17.503  22.130  0.00  0.00    +0.023 A 
ATOM     26  C   UNL     1      43.875  16.534  22.007  0.00  0.00    +0.005 A 
ATOM     27  C   UNL     1      44.766  16.580  20.955  0.00  0.00    +0.039 A 
ENDBRANCH  21  22
ENDBRANCH  19  20
ENDBRANCH  18  19
ENDBRANCH  17  18
TORSDOF 6
ENDMDL
MODEL 6
REMARK VINA RESULT:      -5.5      3.494      6.843
REMARK  Name = ZINC95485994
REMARK  12 active torsions:
REMARK  status: ('A' for Active; 'I' for Inactive)
REMARK    1  A    between atoms: C1_1  and  C2_2
REMARK    2  A    between atoms: C6_8  and  C25_33
REMARK    3  A    between atoms: C6_8  and  C26_34
REMARK    4  A    between atoms: C7_9  and  O3_32
REMARK    5  A    between atoms: C8_11  and  C21_28
REMARK    6  A    between atoms: C8_11  and  C22_29
REMARK    7  A    between atoms: C9_12  and  O1_17
REMARK    8  A    between atoms: O1_17  and  C12_18
REMARK    9  A    between atoms: C12_18  and  C13_20
REMARK   10  A    between atoms: C14_21  and  C15_22
REMARK   11  A    between atoms: C22_29  and  C23_30
REMARK   12  A    between atoms: C22_29  and  C24_31
REMARK                            x       y       z     vdW  Elec       q    Type
REMARK                         _______ _______ _______ _____ _____    ______ ____
ROOT
ATOM      1  C   UNL     1      46.462  19.722  18.380  0.00  0.00    +0.018 C 
ATOM      2  C   UNL     1      45.856  18.318  18.381  0.00  0.00    -0.022 C 
ATOM      3  C   UNL     1      46.508  17.447  17.287  0.00  0.00    +0.017 C 
ATOM      4  C   UNL     1      46.247  15.994  17.778  0.00  0.00    +0.002 C 
ATOM      5  C   UNL     1      47.245  15.100  17.141  0.00  0.00    +0.029 C 
ATOM      6  C   UNL     1      47.259  13.635  17.450  0.00  0.00    -0.075 C 
ATOM      7  C   UNL     1      48.094  12.957  16.329  0.00  0.00    +0.016 C 
ATOM      8  C   UNL     1      45.839  13.069  17.311  0.00  0.00    +0.027 C 
ATOM      9  C   UNL     1      47.870  13.221  18.739  0.00  0.00    +0.194 C 
ATOM     12  C   UNL     1      47.402  13.879  20.010  0.00  0.00    -0.036 C 
ATOM     16  C   UNL     1      46.077  13.277  20.478  0.00  0.00    +0.049 C 
ATOM     17  C   UNL     1      47.330  15.360  20.040  0.00  0.00    +0.211 C 
ATOM     29  C   UNL     1      46.256  16.075  19.285  0.00  0.00    -0.017 C 
ATOM     30  C   UNL     1      46.207  17.567  19.688  0.00  0.00    +0.014 C 
ENDROOT
BRANCH  12  13
ATOM     13  C   UNL     1      48.440  13.490  21.095  0.00  0.00    -0.031 C 
ATOM     14  C   UNL     1      49.640  12.811  20.433  0.00  0.00    +0.032 C 
ATOM     15  C   UNL     1      47.796  12.526  22.094  0.00  0.00    +0.016 C 
ENDBRANCH  12  13
BRANCH   9  10
ATOM     10  O   UNL     1      47.713  11.797  18.882  0.00  0.00    -0.559 OA
ATOM     11  H   UNL     1      46.795  11.511  18.988  0.00  0.00    +0.368 HD
ENDBRANCH   9  10
BRANCH  17  18
ATOM     18  O   UNL     1      48.594  15.873  19.606  0.00  0.00    -0.337 OA
BRANCH  18  19
ATOM     19  C   UNL     1      49.107  16.910  20.300  0.00  0.00    +0.494 C 
ATOM     28  O   UNL     1      49.047  16.915  21.515  0.00  0.00    -0.509 OA
BRANCH  19  20
ATOM     20  C   UNL     1      49.733  18.026  19.593  0.00  0.00    -0.058 C 
ATOM     21  C   UNL     1      50.021  17.915  18.279  0.00  0.00    +0.136 C 
BRANCH  21  22
ATOM     22  C   UNL     1      50.652  19.038  17.567  0.00  0.00    -0.084 A 
ATOM     23  C   UNL     1      50.494  20.346  18.038  0.00  0.00    +0.032 A 
ATOM     24  C   UNL     1      51.089  21.392  17.364  0.00  0.00    +0.005 A 
ATOM     25  C   UNL     1      51.838  21.151  16.227  0.00  0.00    +0.023 A 
ATOM     26  C   UNL     1      52.000  19.860  15.756  0.00  0.00    +0.005 A 
ATOM     27  C   UNL     1      51.416  18.802  16.421  0.00  0.00    +0.039 A 
ENDBRANCH  21  22
ENDBRANCH  19  20
ENDBRANCH  18  19
ENDBRANCH  17  18
TORSDOF 6
ENDMDL
MODEL 7
REMARK VINA RESULT:      -5.4      1.753      2.383
REMARK  Name = ZINC95485994
REMARK  12 active torsions:
REMARK  status: ('A' for Active; 'I' for Inactive)
REMARK    1  A    between atoms: C1_1  and  C2_2
REMARK    2  A    between atoms: C6_8  and  C25_33
REMARK    3  A    between atoms: C6_8  and  C26_34
REMARK    4  A    between atoms: C7_9  and  O3_32
REMARK    5  A    between atoms: C8_11  and  C21_28
REMARK    6  A    between atoms: C8_11  and  C22_29
REMARK    7  A    between atoms: C9_12  and  O1_17
REMARK    8  A    between atoms: O1_17  and  C12_18
REMARK    9  A    between atoms: C12_18  and  C13_20
REMARK   10  A    between atoms: C14_21  and  C15_22
REMARK   11  A    between atoms: C22_29  and  C23_30
REMARK   12  A    between atoms: C22_29  and  C24_31
REMARK                            x       y       z     vdW  Elec       q    Type
REMARK                         _______ _______ _______ _____ _____    ______ ____
ROOT
ATOM      1  C   UNL     1      43.544  19.744  22.440  0.00  0.00    +0.018 C 
ATOM      2  C   UNL     1      44.518  18.568  22.505  0.00  0.00    -0.022 C 
ATOM      3  C   UNL     1      44.091  17.457  21.522  0.00  0.00    +0.017 C 
ATOM      4  C   UNL     1      45.408  16.665  21.277  0.00  0.00    +0.002 C 
ATOM      5  C   UNL     1      45.281  15.937  19.990  0.00  0.00    +0.029 C 
ATOM      6  C   UNL     1      46.414  15.106  19.473  0.00  0.00    -0.075 C 
ATOM      7  C   UNL     1      45.814  14.172  18.387  0.00  0.00    +0.016 C 
ATOM      8  C   UNL     1      46.918  14.178  20.588  0.00  0.00    +0.027 C 
ATOM      9  C   UNL     1      47.544  15.826  18.832  0.00  0.00    +0.194 C 
ATOM     12  C   UNL     1      48.203  16.956  19.577  0.00  0.00    -0.036 C 
ATOM     16  C   UNL     1      49.178  16.419  20.626  0.00  0.00    +0.049 C 
ATOM     17  C   UNL     1      47.332  17.997  20.174  0.00  0.00    +0.211 C 
ATOM     29  C   UNL     1      46.513  17.686  21.386  0.00  0.00    -0.017 C 
ATOM     30  C   UNL     1      45.917  18.981  21.987  0.00  0.00    +0.014 C 
ENDROOT
BRANCH  12  13
ATOM     13  C   UNL     1      49.082  17.695  18.535  0.00  0.00    -0.031 C 
ATOM     14  C   UNL     1      48.689  17.246  17.126  0.00  0.00    +0.032 C 
ATOM     15  C   UNL     1      50.555  17.364  18.782  0.00  0.00    +0.016 C 
ENDBRANCH  12  13
BRANCH   9  10
ATOM     10  O   UNL     1      48.556  14.864  18.479  0.00  0.00    -0.559 OA
ATOM     11  H   UNL     1      48.872  14.942  17.568  0.00  0.00    +0.368 HD
ENDBRANCH   9  10
BRANCH  17  18
ATOM     18  O   UNL     1      46.448  18.473  19.152  0.00  0.00    -0.337 OA
BRANCH  18  19
ATOM     19  C   UNL     1      46.344  19.810  19.006  0.00  0.00    +0.494 C 
ATOM     28  O   UNL     1      47.347  20.496  18.960  0.00  0.00    -0.509 OA
BRANCH  19  20
ATOM     20  C   UNL     1      45.025  20.433  18.901  0.00  0.00    -0.058 C 
ATOM     21  C   UNL     1      43.929  19.667  18.722  0.00  0.00    +0.136 C 
BRANCH  21  22
ATOM     22  C   UNL     1      42.603  20.294  18.617  0.00  0.00    -0.084 A 
ATOM     23  C   UNL     1      42.432  21.640  18.961  0.00  0.00    +0.032 A 
ATOM     24  C   UNL     1      41.185  22.220  18.859  0.00  0.00    +0.005 A 
ATOM     25  C   UNL     1      40.105  21.475  18.419  0.00  0.00    +0.023 A 
ATOM     26  C   UNL     1      40.266  20.144  18.077  0.00  0.00    +0.005 A 
ATOM     27  C   UNL     1      41.507  19.551  18.168  0.00  0.00    +0.039 A 
ENDBRANCH  21  22
ENDBRANCH  19  20
ENDBRANCH  18  19
ENDBRANCH  17  18
TORSDOF 6
ENDMDL
MODEL 8
REMARK VINA RESULT:      -5.3      3.161      5.968
REMARK  Name = ZINC95485994
REMARK  12 active torsions:
REMARK  status: ('A' for Active; 'I' for Inactive)
REMARK    1  A    between atoms: C1_1  and  C2_2
REMARK    2  A    between atoms: C6_8  and  C25_33
REMARK    3  A    between atoms: C6_8  and  C26_34
REMARK    4  A    between atoms: C7_9  and  O3_32
REMARK    5  A    between atoms: C8_11  and  C21_28
REMARK    6  A    between atoms: C8_11  and  C22_29
REMARK    7  A    between atoms: C9_12  and  O1_17
REMARK    8  A    between atoms: O1_17  and  C12_18
REMARK    9  A    between atoms: C12_18  and  C13_20
REMARK   10  A    between atoms: C14_21  and  C15_22
REMARK   11  A    between atoms: C22_29  and  C23_30
REMARK   12  A    between atoms: C22_29  and  C24_31
REMARK                            x       y       z     vdW  Elec       q    Type
REMARK                         _______ _______ _______ _____ _____    ______ ____
ROOT
ATOM      1  C   UNL     1      45.524  19.998  20.599  0.00  0.00    +0.018 C 
ATOM      2  C   UNL     1      46.509  20.243  19.456  0.00  0.00    -0.022 C 
ATOM      3  C   UNL     1      47.772  20.963  19.976  0.00  0.00    +0.017 C 
ATOM      4  C   UNL     1      48.850  20.617  18.908  0.00  0.00    +0.002 C 
ATOM      5  C   UNL     1      50.189  20.777  19.528  0.00  0.00    +0.029 C 
ATOM      6  C   UNL     1      51.429  20.483  18.744  0.00  0.00    -0.075 C 
ATOM      7  C   UNL     1      52.603  21.151  19.510  0.00  0.00    +0.016 C 
ATOM      8  C   UNL     1      51.358  21.197  17.386  0.00  0.00    +0.027 C 
ATOM      9  C   UNL     1      51.798  19.054  18.571  0.00  0.00    +0.194 C 
ATOM     12  C   UNL     1      50.767  18.096  18.036  0.00  0.00    -0.036 C 
ATOM     16  C   UNL     1      50.648  18.219  16.517  0.00  0.00    +0.049 C 
ATOM     17  C   UNL     1      49.420  18.106  18.657  0.00  0.00    +0.211 C 
ATOM     29  C   UNL     1      48.484  19.244  18.402  0.00  0.00    -0.017 C 
ATOM     30  C   UNL     1      47.063  18.904  18.911  0.00  0.00    +0.014 C 
ENDROOT
BRANCH  12  13
ATOM     13  C   UNL     1      51.335  16.676  18.294  0.00  0.00    -0.031 C 
ATOM     14  C   UNL     1      52.594  16.778  19.157  0.00  0.00    +0.032 C 
ATOM     15  C   UNL     1      51.685  16.017  16.958  0.00  0.00    +0.016 C 
ENDBRANCH  12  13
BRANCH   9  10
ATOM     10  O   UNL     1      52.963  18.983  17.728  0.00  0.00    -0.559 OA
ATOM     11  H   UNL     1      53.736  19.441  18.087  0.00  0.00    +0.368 HD
ENDBRANCH   9  10
BRANCH  17  18
ATOM     18  O   UNL     1      49.586  17.978  20.074  0.00  0.00    -0.337 OA
BRANCH  18  19
ATOM     19  C   UNL     1      49.017  16.907  20.664  0.00  0.00    +0.494 C 
ATOM     28  O   UNL     1      48.999  16.820  21.877  0.00  0.00    -0.509 OA
BRANCH  19  20
ATOM     20  C   UNL     1      48.421  15.852  19.846  0.00  0.00    -0.058 C 
ATOM     21  C   UNL     1      47.101  15.589  19.940  0.00  0.00    +0.136 C 
BRANCH  21  22
ATOM     22  C   UNL     1      46.502  14.527  19.117  0.00  0.00    -0.084 A 
ATOM     23  C   UNL     1      45.325  13.895  19.533  0.00  0.00    +0.032 A 
ATOM     24  C   UNL     1      44.770  12.901  18.755  0.00  0.00    +0.005 A 
ATOM     25  C   UNL     1      45.374  12.527  17.568  0.00  0.00    +0.023 A 
ATOM     26  C   UNL     1      46.538  13.148  17.149  0.00  0.00    +0.005 A 
ATOM     27  C   UNL     1      47.102  14.148  17.913  0.00  0.00    +0.039 A 
ENDBRANCH  21  22
ENDBRANCH  19  20
ENDBRANCH  18  19
ENDBRANCH  17  18
TORSDOF 6
ENDMDL
MODEL 9
REMARK VINA RESULT:      -5.2      3.410      6.321
REMARK  Name = ZINC95485994
REMARK  12 active torsions:
REMARK  status: ('A' for Active; 'I' for Inactive)
REMARK    1  A    between atoms: C1_1  and  C2_2
REMARK    2  A    between atoms: C6_8  and  C25_33
REMARK    3  A    between atoms: C6_8  and  C26_34
REMARK    4  A    between atoms: C7_9  and  O3_32
REMARK    5  A    between atoms: C8_11  and  C21_28
REMARK    6  A    between atoms: C8_11  and  C22_29
REMARK    7  A    between atoms: C9_12  and  O1_17
REMARK    8  A    between atoms: O1_17  and  C12_18
REMARK    9  A    between atoms: C12_18  and  C13_20
REMARK   10  A    between atoms: C14_21  and  C15_22
REMARK   11  A    between atoms: C22_29  and  C23_30
REMARK   12  A    between atoms: C22_29  and  C24_31
REMARK                            x       y       z     vdW  Elec       q    Type
REMARK                         _______ _______ _______ _____ _____    ______ ____
ROOT
ATOM      1  C   UNL     1      51.458  21.153  16.242  0.00  0.00    +0.018 C 
ATOM      2  C   UNL     1      52.208  19.894  16.680  0.00  0.00    -0.022 C 
ATOM      3  C   UNL     1      52.360  19.862  18.216  0.00  0.00    +0.017 C 
ATOM      4  C   UNL     1      52.578  18.353  18.526  0.00  0.00    +0.002 C 
ATOM      5  C   UNL     1      52.210  18.110  19.943  0.00  0.00    +0.029 C 
ATOM      6  C   UNL     1      52.289  16.733  20.524  0.00  0.00    -0.075 C 
ATOM      7  C   UNL     1      52.267  16.904  22.067  0.00  0.00    +0.016 C 
ATOM      8  C   UNL     1      53.656  16.116  20.192  0.00  0.00    +0.027 C 
ATOM      9  C   UNL     1      51.189  15.792  20.188  0.00  0.00    +0.194 C 
ATOM     12  C   UNL     1      50.828  15.582  18.742  0.00  0.00    -0.036 C 
ATOM     16  C   UNL     1      51.812  14.624  18.070  0.00  0.00    +0.049 C 
ATOM     17  C   UNL     1      50.623  16.781  17.894  0.00  0.00    +0.211 C 
ATOM     29  C   UNL     1      51.792  17.612  17.473  0.00  0.00    -0.017 C 
ATOM     30  C   UNL     1      51.376  18.624  16.380  0.00  0.00    +0.014 C 
ENDROOT
BRANCH  12  13
ATOM     13  C   UNL     1      49.467  14.839  18.749  0.00  0.00    -0.031 C 
ATOM     14  C   UNL     1      48.875  14.871  20.160  0.00  0.00    +0.032 C 
ATOM     15  C   UNL     1      49.677  13.386  18.318  0.00  0.00    +0.016 C 
ENDBRANCH  12  13
BRANCH   9  10
ATOM     10  O   UNL     1      51.491  14.511  20.771  0.00  0.00    -0.559 OA
ATOM     11  H   UNL     1      52.434  14.295  20.779  0.00  0.00    +0.368 HD
ENDBRANCH   9  10
BRANCH  17  18
ATOM     18  O   UNL     1      49.688  17.638  18.561  0.00  0.00    -0.337 OA
BRANCH  18  19
ATOM     19  C   UNL     1      48.520  17.878  17.930  0.00  0.00    +0.494 C 
ATOM     28  O   UNL     1      48.237  17.262  16.921  0.00  0.00    -0.509 OA
BRANCH  19  20
ATOM     20  C   UNL     1      47.595  18.879  18.461  0.00  0.00    -0.058 C 
ATOM     21  C   UNL     1      48.070  19.944  19.140  0.00  0.00    +0.136 C 
BRANCH  21  22
ATOM     22  C   UNL     1      47.140  20.950  19.674  0.00  0.00    -0.084 A 
ATOM     23  C   UNL     1      47.422  21.599  20.881  0.00  0.00    +0.032 A 
ATOM     24  C   UNL     1      46.545  22.542  21.374  0.00  0.00    +0.005 A 
ATOM     25  C   UNL     1      45.387  22.845  20.679  0.00  0.00    +0.023 A 
ATOM     26  C   UNL     1      45.100  22.208  19.485  0.00  0.00    +0.005 A 
ATOM     27  C   UNL     1      45.971  21.267  18.976  0.00  0.00    +0.039 A 
ENDBRANCH  21  22
ENDBRANCH  19  20
ENDBRANCH  18  19
ENDBRANCH  17  18
TORSDOF 6
ENDMDL
