MODEL 1
REMARK VINA RESULT:      -5.3      0.000      0.000
REMARK  Name = ZINC04824380
REMARK  7 active torsions:
REMARK  status: ('A' for Active; 'I' for Inactive)
REMARK    1  A    between atoms: C1_1  and  N1_2
REMARK    2  A    between atoms: C12_14  and  O4_21
REMARK    3  A    between atoms: C13_15  and  O3_19
REMARK    4  A    between atoms: C14_16  and  O2_17
REMARK    5  A    between atoms: O2_17  and  C15_18
REMARK    6  A    between atoms: O3_19  and  C16_20
REMARK    7  A    between atoms: O4_21  and  C17_22
REMARK                            x       y       z     vdW  Elec       q    Type
REMARK                         _______ _______ _______ _____ _____    ______ ____
ROOT
ATOM      1  C   UNL     1      49.021  20.663  19.883  0.00  0.00    +0.315 C 
ATOM      2  N   UNL     1      49.127  19.570  18.914  0.00  0.00    -0.527 N 
ATOM      3  C   UNL     1      50.142  19.595  17.978  0.00  0.00    +0.213 A 
ATOM      4  C   UNL     1      50.857  20.768  17.749  0.00  0.00    -0.045 A 
ATOM      5  C   UNL     1      51.872  20.784  16.817  0.00  0.00    +0.082 A 
ATOM      6  C   UNL     1      52.192  19.640  16.099  0.00  0.00    -0.030 A 
ATOM      7  C   UNL     1      51.496  18.470  16.308  0.00  0.00    +0.115 A 
ATOM      8  C   UNL     1      50.465  18.439  17.247  0.00  0.00    -0.204 A 
ATOM      9  C   UNL     1      49.693  17.205  17.488  0.00  0.00    +0.442 A 
ATOM     10  C   UNL     1      48.452  17.336  18.267  0.00  0.00    -0.261 A 
ATOM     11  C   UNL     1      47.523  16.288  18.322  0.00  0.00    +0.216 A 
ATOM     14  C   UNL     1      46.370  16.437  19.068  0.00  0.00    -0.003 A 
ATOM     17  C   UNL     1      46.127  17.629  19.748  0.00  0.00    +0.196 A 
ATOM     20  C   UNL     1      47.042  18.670  19.697  0.00  0.00    -0.129 A 
ATOM     21  O   UNL     1      50.066  16.126  17.061  0.00  0.00    -0.450 OA
ATOM     22  C   UNL     1      48.212  18.534  18.963  0.00  0.00    +0.271 A 
ENDROOT
BRANCH  11  12
ATOM     12  O   UNL     1      47.762  15.126  17.661  0.00  0.00    -0.318 OA
ATOM     13  C   UNL     1      46.963  14.861  16.505  0.00  0.00    +0.252 C 
ENDBRANCH  11  12
BRANCH  14  15
ATOM     15  O   UNL     1      45.463  15.423  19.131  0.00  0.00    -0.312 OA
ATOM     16  C   UNL     1      45.614  14.483  20.196  0.00  0.00    +0.222 C 
ENDBRANCH  14  15
BRANCH  17  18
ATOM     18  O   UNL     1      44.986  17.773  20.468  0.00  0.00    -0.294 OA
ATOM     19  C   UNL     1      43.948  18.567  19.888  0.00  0.00    +0.249 C 
ENDBRANCH  17  18
TORSDOF 3
ENDMDL
MODEL 2
REMARK VINA RESULT:      -5.2      3.587      5.799
REMARK  Name = ZINC04824380
REMARK  7 active torsions:
REMARK  status: ('A' for Active; 'I' for Inactive)
REMARK    1  A    between atoms: C1_1  and  N1_2
REMARK    2  A    between atoms: C12_14  and  O4_21
REMARK    3  A    between atoms: C13_15  and  O3_19
REMARK    4  A    between atoms: C14_16  and  O2_17
REMARK    5  A    between atoms: O2_17  and  C15_18
REMARK    6  A    between atoms: O3_19  and  C16_20
REMARK    7  A    between atoms: O4_21  and  C17_22
REMARK                            x       y       z     vdW  Elec       q    Type
REMARK                         _______ _______ _______ _____ _____    ______ ____
ROOT
ATOM      1  C   UNL     1      47.044  17.169  16.568  0.00  0.00    +0.315 C 
ATOM      2  N   UNL     1      46.311  16.562  17.681  0.00  0.00    -0.527 N 
ATOM      3  C   UNL     1      46.284  15.186  17.799  0.00  0.00    +0.213 A 
ATOM      4  C   UNL     1      46.671  14.382  16.730  0.00  0.00    -0.045 A 
ATOM      5  C   UNL     1      46.646  13.010  16.858  0.00  0.00    +0.082 A 
ATOM      6  C   UNL     1      46.239  12.416  18.044  0.00  0.00    -0.030 A 
ATOM      7  C   UNL     1      45.850  13.193  19.113  0.00  0.00    +0.115 A 
ATOM      8  C   UNL     1      45.868  14.583  18.998  0.00  0.00    -0.204 A 
ATOM      9  C   UNL     1      45.448  15.444  20.120  0.00  0.00    +0.442 A 
ATOM     10  C   UNL     1      45.219  16.865  19.821  0.00  0.00    -0.261 A 
ATOM     11  C   UNL     1      44.570  17.700  20.742  0.00  0.00    +0.216 A 
ATOM     14  C   UNL     1      44.376  19.033  20.436  0.00  0.00    -0.003 A 
ATOM     17  C   UNL     1      44.810  19.539  19.212  0.00  0.00    +0.196 A 
ATOM     20  C   UNL     1      45.452  18.719  18.296  0.00  0.00    -0.129 A 
ATOM     21  O   UNL     1      45.297  14.997  21.244  0.00  0.00    -0.450 OA
ATOM     22  C   UNL     1      45.667  17.380  18.591  0.00  0.00    +0.271 A 
ENDROOT
BRANCH  11  12
ATOM     12  O   UNL     1      44.149  17.206  21.935  0.00  0.00    -0.318 OA
ATOM     13  C   UNL     1      42.740  17.038  22.108  0.00  0.00    +0.252 C 
ENDBRANCH  11  12
BRANCH  14  15
ATOM     15  O   UNL     1      43.750  19.852  21.326  0.00  0.00    -0.312 OA
ATOM     16  C   UNL     1      44.569  20.494  22.304  0.00  0.00    +0.222 C 
ENDBRANCH  14  15
BRANCH  17  18
ATOM     18  O   UNL     1      44.604  20.847  18.913  0.00  0.00    -0.294 OA
ATOM     19  C   UNL     1      45.755  21.693  18.871  0.00  0.00    +0.249 C 
ENDBRANCH  17  18
TORSDOF 3
ENDMDL
MODEL 3
REMARK VINA RESULT:      -5.1      1.752      2.594
REMARK  Name = ZINC04824380
REMARK  7 active torsions:
REMARK  status: ('A' for Active; 'I' for Inactive)
REMARK    1  A    between atoms: C1_1  and  N1_2
REMARK    2  A    between atoms: C12_14  and  O4_21
REMARK    3  A    between atoms: C13_15  and  O3_19
REMARK    4  A    between atoms: C14_16  and  O2_17
REMARK    5  A    between atoms: O2_17  and  C15_18
REMARK    6  A    between atoms: O3_19  and  C16_20
REMARK    7  A    between atoms: O4_21  and  C17_22
REMARK                            x       y       z     vdW  Elec       q    Type
REMARK                         _______ _______ _______ _____ _____    ______ ____
ROOT
ATOM      1  C   UNL     1      48.998  19.052  20.010  0.00  0.00    +0.315 C 
ATOM      2  N   UNL     1      49.556  18.434  18.804  0.00  0.00    -0.527 N 
ATOM      3  C   UNL     1      50.385  19.178  17.988  0.00  0.00    +0.213 A 
ATOM      4  C   UNL     1      50.446  20.562  18.124  0.00  0.00    -0.045 A 
ATOM      5  C   UNL     1      51.280  21.297  17.309  0.00  0.00    +0.082 A 
ATOM      6  C   UNL     1      52.064  20.672  16.349  0.00  0.00    -0.030 A 
ATOM      7  C   UNL     1      52.017  19.304  16.197  0.00  0.00    +0.115 A 
ATOM      8  C   UNL     1      51.176  18.547  17.013  0.00  0.00    -0.204 A 
ATOM      9  C   UNL     1      51.094  17.081  16.868  0.00  0.00    +0.442 A 
ATOM     10  C   UNL     1      49.984  16.404  17.556  0.00  0.00    -0.261 A 
ATOM     11  C   UNL     1      49.666  15.070  17.268  0.00  0.00    +0.216 A 
ATOM     14  C   UNL     1      48.622  14.458  17.934  0.00  0.00    -0.003 A 
ATOM     17  C   UNL     1      47.882  15.170  18.876  0.00  0.00    +0.196 A 
ATOM     20  C   UNL     1      48.191  16.491  19.165  0.00  0.00    -0.129 A 
ATOM     21  O   UNL     1      51.910  16.459  16.209  0.00  0.00    -0.450 OA
ATOM     22  C   UNL     1      49.244  17.118  18.515  0.00  0.00    +0.271 A 
ENDROOT
BRANCH  11  12
ATOM     12  O   UNL     1      50.390  14.376  16.351  0.00  0.00    -0.318 OA
ATOM     13  C   UNL     1      51.278  13.373  16.850  0.00  0.00    +0.252 C 
ENDBRANCH  11  12
BRANCH  14  15
ATOM     15  O   UNL     1      48.308  13.161  17.664  0.00  0.00    -0.312 OA
ATOM     16  C   UNL     1      47.355  12.926  16.626  0.00  0.00    +0.222 C 
ENDBRANCH  14  15
BRANCH  17  18
ATOM     18  O   UNL     1      46.849  14.566  19.518  0.00  0.00    -0.294 OA
ATOM     19  C   UNL     1      45.576  15.213  19.452  0.00  0.00    +0.249 C 
ENDBRANCH  17  18
TORSDOF 3
ENDMDL
MODEL 4
REMARK VINA RESULT:      -5.0      1.995      5.741
REMARK  Name = ZINC04824380
REMARK  7 active torsions:
REMARK  status: ('A' for Active; 'I' for Inactive)
REMARK    1  A    between atoms: C1_1  and  N1_2
REMARK    2  A    between atoms: C12_14  and  O4_21
REMARK    3  A    between atoms: C13_15  and  O3_19
REMARK    4  A    between atoms: C14_16  and  O2_17
REMARK    5  A    between atoms: O2_17  and  C15_18
REMARK    6  A    between atoms: O3_19  and  C16_20
REMARK    7  A    between atoms: O4_21  and  C17_22
REMARK                            x       y       z     vdW  Elec       q    Type
REMARK                         _______ _______ _______ _____ _____    ______ ____
ROOT
ATOM      1  C   UNL     1      46.943  21.145  20.331  0.00  0.00    +0.315 C 
ATOM      2  N   UNL     1      47.321  19.837  19.790  0.00  0.00    -0.527 N 
ATOM      3  C   UNL     1      46.460  18.769  19.948  0.00  0.00    +0.213 A 
ATOM      4  C   UNL     1      45.410  18.842  20.860  0.00  0.00    -0.045 A 
ATOM      5  C   UNL     1      44.551  17.774  21.007  0.00  0.00    +0.082 A 
ATOM      6  C   UNL     1      44.721  16.620  20.256  0.00  0.00    -0.030 A 
ATOM      7  C   UNL     1      45.754  16.526  19.350  0.00  0.00    +0.115 A 
ATOM      8  C   UNL     1      46.632  17.598  19.191  0.00  0.00    -0.204 A 
ATOM      9  C   UNL     1      47.755  17.526  18.237  0.00  0.00    +0.442 A 
ATOM     10  C   UNL     1      48.789  18.567  18.343  0.00  0.00    -0.261 A 
ATOM     11  C   UNL     1      50.013  18.437  17.672  0.00  0.00    +0.216 A 
ATOM     14  C   UNL     1      50.962  19.435  17.786  0.00  0.00    -0.003 A 
ATOM     17  C   UNL     1      50.707  20.555  18.575  0.00  0.00    +0.196 A 
ATOM     20  C   UNL     1      49.498  20.689  19.241  0.00  0.00    -0.129 A 
ATOM     21  O   UNL     1      47.823  16.643  17.398  0.00  0.00    -0.450 OA
ATOM     22  C   UNL     1      48.528  19.703  19.130  0.00  0.00    +0.271 A 
ENDROOT
BRANCH  11  12
ATOM     12  O   UNL     1      50.259  17.346  16.902  0.00  0.00    -0.318 OA
ATOM     13  C   UNL     1      51.162  16.370  17.429  0.00  0.00    +0.252 C 
ENDBRANCH  11  12
BRANCH  14  15
ATOM     15  O   UNL     1      52.152  19.319  17.135  0.00  0.00    -0.312 OA
ATOM     16  C   UNL     1      52.214  19.824  15.800  0.00  0.00    +0.222 C 
ENDBRANCH  14  15
BRANCH  17  18
ATOM     18  O   UNL     1      51.649  21.524  18.691  0.00  0.00    -0.294 OA
ATOM     19  C   UNL     1      52.435  21.526  19.886  0.00  0.00    +0.249 C 
ENDBRANCH  17  18
TORSDOF 3
ENDMDL
MODEL 5
REMARK VINA RESULT:      -4.8      2.354      5.861
REMARK  Name = ZINC04824380
REMARK  7 active torsions:
REMARK  status: ('A' for Active; 'I' for Inactive)
REMARK    1  A    between atoms: C1_1  and  N1_2
REMARK    2  A    between atoms: C12_14  and  O4_21
REMARK    3  A    between atoms: C13_15  and  O3_19
REMARK    4  A    between atoms: C14_16  and  O2_17
REMARK    5  A    between atoms: O2_17  and  C15_18
REMARK    6  A    between atoms: O3_19  and  C16_20
REMARK    7  A    between atoms: O4_21  and  C17_22
REMARK                            x       y       z     vdW  Elec       q    Type
REMARK                         _______ _______ _______ _____ _____    ______ ____
ROOT
ATOM      1  C   UNL     1      45.945  16.849  18.263  0.00  0.00    +0.315 C 
ATOM      2  N   UNL     1      46.701  18.088  18.464  0.00  0.00    -0.527 N 
ATOM      3  C   UNL     1      46.023  19.244  18.798  0.00  0.00    +0.213 A 
ATOM      4  C   UNL     1      44.641  19.317  18.645  0.00  0.00    -0.045 A 
ATOM      5  C   UNL     1      43.972  20.472  18.985  0.00  0.00    +0.082 A 
ATOM      6  C   UNL     1      44.660  21.570  19.481  0.00  0.00    -0.030 A 
ATOM      7  C   UNL     1      46.027  21.520  19.638  0.00  0.00    +0.115 A 
ATOM      8  C   UNL     1      46.719  20.358  19.296  0.00  0.00    -0.204 A 
ATOM      9  C   UNL     1      48.185  20.275  19.442  0.00  0.00    +0.442 A 
ATOM     10  C   UNL     1      48.857  19.139  18.793  0.00  0.00    -0.261 A 
ATOM     11  C   UNL     1      50.251  19.115  18.648  0.00  0.00    +0.216 A 
ATOM     14  C   UNL     1      50.855  18.031  18.039  0.00  0.00    -0.003 A 
ATOM     17  C   UNL     1      50.079  16.977  17.561  0.00  0.00    +0.196 A 
ATOM     20  C   UNL     1      48.699  16.995  17.701  0.00  0.00    -0.129 A 
ATOM     21  O   UNL     1      48.811  21.110  20.073  0.00  0.00    -0.450 OA
ATOM     22  C   UNL     1      48.076  18.069  18.320  0.00  0.00    +0.271 A 
ENDROOT
BRANCH  11  12
ATOM     12  O   UNL     1      51.006  20.142  19.117  0.00  0.00    -0.318 OA
ATOM     13  C   UNL     1      51.514  21.067  18.152  0.00  0.00    +0.252 C 
ENDBRANCH  11  12
BRANCH  14  15
ATOM     15  O   UNL     1      52.209  17.997  17.897  0.00  0.00    -0.312 OA
ATOM     16  C   UNL     1      52.955  17.369  18.941  0.00  0.00    +0.222 C 
ENDBRANCH  14  15
BRANCH  17  18
ATOM     18  O   UNL     1      50.678  15.922  16.953  0.00  0.00    -0.294 OA
ATOM     19  C   UNL     1      49.959  14.687  16.935  0.00  0.00    +0.249 C 
ENDBRANCH  17  18
TORSDOF 3
ENDMDL
MODEL 6
REMARK VINA RESULT:      -4.7      1.761      3.451
REMARK  Name = ZINC04824380
REMARK  7 active torsions:
REMARK  status: ('A' for Active; 'I' for Inactive)
REMARK    1  A    between atoms: C1_1  and  N1_2
REMARK    2  A    between atoms: C12_14  and  O4_21
REMARK    3  A    between atoms: C13_15  and  O3_19
REMARK    4  A    between atoms: C14_16  and  O2_17
REMARK    5  A    between atoms: O2_17  and  C15_18
REMARK    6  A    between atoms: O3_19  and  C16_20
REMARK    7  A    between atoms: O4_21  and  C17_22
REMARK                            x       y       z     vdW  Elec       q    Type
REMARK                         _______ _______ _______ _____ _____    ______ ____
ROOT
ATOM      1  C   UNL     1      49.810  16.423  17.167  0.00  0.00    +0.315 C 
ATOM      2  N   UNL     1      49.332  17.550  17.973  0.00  0.00    -0.527 N 
ATOM      3  C   UNL     1      50.154  18.644  18.156  0.00  0.00    +0.213 A 
ATOM      4  C   UNL     1      51.510  18.561  17.854  0.00  0.00    -0.045 A 
ATOM      5  C   UNL     1      52.323  19.660  18.034  0.00  0.00    +0.082 A 
ATOM      6  C   UNL     1      51.804  20.854  18.515  0.00  0.00    -0.030 A 
ATOM      7  C   UNL     1      50.465  20.956  18.822  0.00  0.00    +0.115 A 
ATOM      8  C   UNL     1      49.631  19.852  18.646  0.00  0.00    -0.204 A 
ATOM      9  C   UNL     1      48.194  19.925  18.975  0.00  0.00    +0.442 A 
ATOM     10  C   UNL     1      47.459  18.653  19.039  0.00  0.00    -0.261 A 
ATOM     11  C   UNL     1      46.174  18.591  19.597  0.00  0.00    +0.216 A 
ATOM     14  C   UNL     1      45.505  17.383  19.637  0.00  0.00    -0.003 A 
ATOM     17  C   UNL     1      46.113  16.232  19.139  0.00  0.00    +0.196 A 
ATOM     20  C   UNL     1      47.383  16.286  18.587  0.00  0.00    -0.129 A 
ATOM     21  O   UNL     1      47.642  20.992  19.184  0.00  0.00    -0.450 OA
ATOM     22  C   UNL     1      48.066  17.492  18.527  0.00  0.00    +0.271 A 
ENDROOT
BRANCH  11  12
ATOM     12  O   UNL     1      45.583  19.714  20.080  0.00  0.00    -0.318 OA
ATOM     13  C   UNL     1      44.522  20.275  19.303  0.00  0.00    +0.252 C 
ENDBRANCH  11  12
BRANCH  14  15
ATOM     15  O   UNL     1      44.256  17.314  20.174  0.00  0.00    -0.312 OA
ATOM     16  C   UNL     1      44.163  17.018  21.568  0.00  0.00    +0.222 C 
ENDBRANCH  14  15
BRANCH  17  18
ATOM     18  O   UNL     1      45.454  15.046  19.194  0.00  0.00    -0.294 OA
ATOM     19  C   UNL     1      46.033  14.018  20.003  0.00  0.00    +0.249 C 
ENDBRANCH  17  18
TORSDOF 3
ENDMDL
MODEL 7
REMARK VINA RESULT:      -4.7      2.174      4.709
REMARK  Name = ZINC04824380
REMARK  7 active torsions:
REMARK  status: ('A' for Active; 'I' for Inactive)
REMARK    1  A    between atoms: C1_1  and  N1_2
REMARK    2  A    between atoms: C12_14  and  O4_21
REMARK    3  A    between atoms: C13_15  and  O3_19
REMARK    4  A    between atoms: C14_16  and  O2_17
REMARK    5  A    between atoms: O2_17  and  C15_18
REMARK    6  A    between atoms: O3_19  and  C16_20
REMARK    7  A    between atoms: O4_21  and  C17_22
REMARK                            x       y       z     vdW  Elec       q    Type
REMARK                         _______ _______ _______ _____ _____    ______ ____
ROOT
ATOM      1  C   UNL     1      51.627  18.018  17.200  0.00  0.00    +0.315 C 
ATOM      2  N   UNL     1      50.252  17.673  17.569  0.00  0.00    -0.527 N 
ATOM      3  C   UNL     1      49.470  18.615  18.208  0.00  0.00    +0.213 A 
ATOM      4  C   UNL     1      50.052  19.748  18.769  0.00  0.00    -0.045 A 
ATOM      5  C   UNL     1      49.264  20.686  19.400  0.00  0.00    +0.082 A 
ATOM      6  C   UNL     1      47.889  20.515  19.484  0.00  0.00    -0.030 A 
ATOM      7  C   UNL     1      47.293  19.400  18.937  0.00  0.00    +0.115 A 
ATOM      8  C   UNL     1      48.078  18.441  18.297  0.00  0.00    -0.204 A 
ATOM      9  C   UNL     1      47.472  17.230  17.710  0.00  0.00    +0.442 A 
ATOM     10  C   UNL     1      48.388  16.147  17.322  0.00  0.00    -0.261 A 
ATOM     11  C   UNL     1      47.901  14.870  17.009  0.00  0.00    +0.216 A 
ATOM     14  C   UNL     1      48.785  13.875  16.641  0.00  0.00    -0.003 A 
ATOM     17  C   UNL     1      50.153  14.137  16.595  0.00  0.00    +0.196 A 
ATOM     20  C   UNL     1      50.641  15.397  16.905  0.00  0.00    -0.129 A 
ATOM     21  O   UNL     1      46.267  17.133  17.554  0.00  0.00    -0.450 OA
ATOM     22  C   UNL     1      49.768  16.414  17.265  0.00  0.00    +0.271 A 
ENDROOT
BRANCH  11  12
ATOM     12  O   UNL     1      46.568  14.617  17.051  0.00  0.00    -0.318 OA
ATOM     13  C   UNL     1      46.082  13.884  18.178  0.00  0.00    +0.252 C 
ENDBRANCH  11  12
BRANCH  14  15
ATOM     15  O   UNL     1      48.322  12.632  16.331  0.00  0.00    -0.312 OA
ATOM     16  C   UNL     1      47.966  12.393  14.968  0.00  0.00    +0.222 C 
ENDBRANCH  14  15
BRANCH  17  18
ATOM     18  O   UNL     1      51.017  13.150  16.245  0.00  0.00    -0.294 OA
ATOM     19  C   UNL     1      51.626  13.246  14.956  0.00  0.00    +0.249 C 
ENDBRANCH  17  18
TORSDOF 3
ENDMDL
MODEL 8
REMARK VINA RESULT:      -4.6      2.846      4.616
REMARK  Name = ZINC04824380
REMARK  7 active torsions:
REMARK  status: ('A' for Active; 'I' for Inactive)
REMARK    1  A    between atoms: C1_1  and  N1_2
REMARK    2  A    between atoms: C12_14  and  O4_21
REMARK    3  A    between atoms: C13_15  and  O3_19
REMARK    4  A    between atoms: C14_16  and  O2_17
REMARK    5  A    between atoms: O2_17  and  C15_18
REMARK    6  A    between atoms: O3_19  and  C16_20
REMARK    7  A    between atoms: O4_21  and  C17_22
REMARK                            x       y       z     vdW  Elec       q    Type
REMARK                         _______ _______ _______ _____ _____    ______ ____
ROOT
ATOM      1  C   UNL     1      46.441  17.041  16.923  0.00  0.00    +0.315 C 
ATOM      2  N   UNL     1      47.218  17.901  17.819  0.00  0.00    -0.527 N 
ATOM      3  C   UNL     1      48.590  17.754  17.871  0.00  0.00    +0.213 A 
ATOM      4  C   UNL     1      49.196  16.623  17.331  0.00  0.00    -0.045 A 
ATOM      5  C   UNL     1      50.566  16.487  17.382  0.00  0.00    +0.082 A 
ATOM      6  C   UNL     1      51.355  17.467  17.967  0.00  0.00    -0.030 A 
ATOM      7  C   UNL     1      50.776  18.594  18.508  0.00  0.00    +0.115 A 
ATOM      8  C   UNL     1      49.390  18.745  18.466  0.00  0.00    -0.204 A 
ATOM      9  C   UNL     1      48.737  19.934  19.046  0.00  0.00    +0.442 A 
ATOM     10  C   UNL     1      47.277  19.876  19.219  0.00  0.00    -0.261 A 
ATOM     11  C   UNL     1      46.606  20.831  19.995  0.00  0.00    +0.216 A 
ATOM     14  C   UNL     1      45.233  20.754  20.134  0.00  0.00    -0.003 A 
ATOM     17  C   UNL     1      44.525  19.724  19.518  0.00  0.00    +0.196 A 
ATOM     20  C   UNL     1      45.183  18.776  18.750  0.00  0.00    -0.129 A 
ATOM     21  O   UNL     1      49.378  20.920  19.366  0.00  0.00    -0.450 OA
ATOM     22  C   UNL     1      46.560  18.844  18.588  0.00  0.00    +0.271 A 
ENDROOT
BRANCH  11  12
ATOM     12  O   UNL     1      47.297  21.836  20.593  0.00  0.00    -0.318 OA
ATOM     13  C   UNL     1      47.520  21.721  22.001  0.00  0.00    +0.252 C 
ENDBRANCH  11  12
BRANCH  14  15
ATOM     15  O   UNL     1      44.572  21.680  20.883  0.00  0.00    -0.312 OA
ATOM     16  C   UNL     1      44.193  22.893  20.229  0.00  0.00    +0.222 C 
ENDBRANCH  14  15
BRANCH  17  18
ATOM     18  O   UNL     1      43.179  19.648  19.670  0.00  0.00    -0.294 OA
ATOM     19  C   UNL     1      42.374  20.170  18.610  0.00  0.00    +0.249 C 
ENDBRANCH  17  18
TORSDOF 3
ENDMDL
MODEL 9
REMARK VINA RESULT:      -4.6      1.605      3.619
REMARK  Name = ZINC04824380
REMARK  7 active torsions:
REMARK  status: ('A' for Active; 'I' for Inactive)
REMARK    1  A    between atoms: C1_1  and  N1_2
REMARK    2  A    between atoms: C12_14  and  O4_21
REMARK    3  A    between atoms: C13_15  and  O3_19
REMARK    4  A    between atoms: C14_16  and  O2_17
REMARK    5  A    between atoms: O2_17  and  C15_18
REMARK    6  A    between atoms: O3_19  and  C16_20
REMARK    7  A    between atoms: O4_21  and  C17_22
REMARK                            x       y       z     vdW  Elec       q    Type
REMARK                         _______ _______ _______ _____ _____    ______ ____
ROOT
ATOM      1  C   UNL     1      51.600  17.044  16.428  0.00  0.00    +0.315 C 
ATOM      2  N   UNL     1      50.660  17.665  17.365  0.00  0.00    -0.527 N 
ATOM      3  C   UNL     1      50.994  18.867  17.956  0.00  0.00    +0.213 A 
ATOM      4  C   UNL     1      52.307  19.328  17.917  0.00  0.00    -0.045 A 
ATOM      5  C   UNL     1      52.631  20.531  18.505  0.00  0.00    +0.082 A 
ATOM      6  C   UNL     1      51.661  21.294  19.140  0.00  0.00    -0.030 A 
ATOM      7  C   UNL     1      50.357  20.855  19.193  0.00  0.00    +0.115 A 
ATOM      8  C   UNL     1      50.014  19.638  18.604  0.00  0.00    -0.204 A 
ATOM      9  C   UNL     1      48.628  19.134  18.651  0.00  0.00    +0.442 A 
ATOM     10  C   UNL     1      48.416  17.729  18.270  0.00  0.00    -0.261 A 
ATOM     11  C   UNL     1      47.197  17.088  18.534  0.00  0.00    +0.216 A 
ATOM     14  C   UNL     1      47.024  15.770  18.158  0.00  0.00    -0.003 A 
ATOM     17  C   UNL     1      48.062  15.080  17.534  0.00  0.00    +0.196 A 
ATOM     20  C   UNL     1      49.270  15.708  17.271  0.00  0.00    -0.129 A 
ATOM     21  O   UNL     1      47.701  19.849  18.991  0.00  0.00    -0.450 OA
ATOM     22  C   UNL     1      49.458  17.035  17.630  0.00  0.00    +0.271 A 
ENDROOT
BRANCH  11  12
ATOM     12  O   UNL     1      46.186  17.762  19.140  0.00  0.00    -0.318 OA
ATOM     13  C   UNL     1      46.053  17.599  20.554  0.00  0.00    +0.252 C 
ENDBRANCH  11  12
BRANCH  14  15
ATOM     15  O   UNL     1      45.843  15.140  18.407  0.00  0.00    -0.312 OA
ATOM     16  C   UNL     1      45.802  14.258  19.531  0.00  0.00    +0.222 C 
ENDBRANCH  14  15
BRANCH  17  18
ATOM     18  O   UNL     1      47.889  13.781  17.180  0.00  0.00    -0.294 OA
ATOM     19  C   UNL     1      48.443  13.369  15.928  0.00  0.00    +0.249 C 
ENDBRANCH  17  18
TORSDOF 3
ENDMDL
