MODEL 1
REMARK VINA RESULT:      -6.7      0.000      0.000
REMARK  Name = ZINC31852149
REMARK  5 active torsions:
REMARK  status: ('A' for Active; 'I' for Inactive)
REMARK    1  A    between atoms: C1_1  and  C2_2
REMARK    2  A    between atoms: C13_14  and  O4_30
REMARK    3  A    between atoms: C15_16  and  O3_28
REMARK    4  A    between atoms: C21_24  and  C22_27
REMARK    5  A    between atoms: O3_28  and  C23_29
REMARK                            x       y       z     vdW  Elec       q    Type
REMARK                         _______ _______ _______ _____ _____    ______ ____
ROOT
ATOM      1  C   UNL     1      40.767  21.354  18.724  0.00  0.00    +0.038 C 
ATOM      2  C   UNL     1      42.299  21.427  18.755  0.00  0.00    +0.129 C 
ATOM      3  C   UNL     1      42.871  20.027  18.543  0.00  0.00    +0.102 C 
ATOM      4  C   UNL     1      44.347  20.009  18.848  0.00  0.00    -0.029 A 
ATOM      5  C   UNL     1      45.095  18.933  18.381  0.00  0.00    +0.005 A 
ATOM      6  C   UNL     1      46.448  18.860  18.619  0.00  0.00    +0.068 A 
ATOM      7  C   UNL     1      47.082  19.879  19.327  0.00  0.00    -0.108 A 
ATOM      8  C   UNL     1      48.533  19.879  19.569  0.00  0.00    -0.013 A 
ATOM      9  C   UNL     1      49.467  19.167  18.794  0.00  0.00    +0.004 A 
ATOM     10  C   UNL     1      49.120  18.565  17.578  0.00  0.00    +0.016 A 
ATOM     11  C   UNL     1      50.016  17.774  16.921  0.00  0.00    +0.054 A 
ATOM     12  C   UNL     1      51.299  17.588  17.419  0.00  0.00    -0.007 A 
ATOM     13  C   UNL     1      51.707  18.234  18.568  0.00  0.00    +0.141 A 
ATOM     16  C   UNL     1      50.815  19.092  19.239  0.00  0.00    -0.072 A 
ATOM     17  C   UNL     1      51.238  19.892  20.323  0.00  0.00    +0.159 A 
ATOM     20  C   UNL     1      50.343  20.678  20.994  0.00  0.00    -0.029 A 
ATOM     21  C   UNL     1      48.994  20.680  20.633  0.00  0.00    -0.122 A 
ATOM     22  C   UNL     1      47.993  21.526  21.310  0.00  0.00    +0.533 A 
ATOM     23  O   UNL     1      46.923  21.912  20.571  0.00  0.00    -0.282 OA
ATOM     24  O   UNL     1      48.121  21.862  22.469  0.00  0.00    -0.422 OA
ATOM     25  C   UNL     1      46.317  20.948  19.828  0.00  0.00    +0.128 A 
ATOM     26  C   UNL     1      44.951  21.012  19.573  0.00  0.00    -0.074 A 
ATOM     27  C   UNL     1      44.172  22.184  20.108  0.00  0.00    +0.231 C 
ATOM     28  C   UNL     1      44.505  23.438  19.301  0.00  0.00    +0.008 C 
ATOM     29  N   UNL     1      42.734  21.931  20.063  0.00  0.00    -0.683 NA
ATOM     30  H   UNL     1      42.208  22.750  20.333  0.00  0.00    +0.353 HD
ENDROOT
BRANCH  13  14
ATOM     14  O   UNL     1      52.963  18.023  19.037  0.00  0.00    -0.478 OA
ATOM     15  H   UNL     1      53.659  18.408  18.486  0.00  0.00    +0.394 HD
ENDBRANCH  13  14
BRANCH  17  18
ATOM     18  O   UNL     1      52.538  19.900  20.712  0.00  0.00    -0.296 OA
ATOM     19  C   UNL     1      52.794  19.873  22.118  0.00  0.00    +0.250 C 
ENDBRANCH  17  18
TORSDOF 2
ENDMDL
MODEL 2
REMARK VINA RESULT:      -6.6      4.771      8.314
REMARK  Name = ZINC31852149
REMARK  5 active torsions:
REMARK  status: ('A' for Active; 'I' for Inactive)
REMARK    1  A    between atoms: C1_1  and  C2_2
REMARK    2  A    between atoms: C13_14  and  O4_30
REMARK    3  A    between atoms: C15_16  and  O3_28
REMARK    4  A    between atoms: C21_24  and  C22_27
REMARK    5  A    between atoms: O3_28  and  C23_29
REMARK                            x       y       z     vdW  Elec       q    Type
REMARK                         _______ _______ _______ _____ _____    ______ ____
ROOT
ATOM      1  C   UNL     1      49.933  10.277  17.765  0.00  0.00    +0.038 C 
ATOM      2  C   UNL     1      49.426  11.670  18.158  0.00  0.00    +0.129 C 
ATOM      3  C   UNL     1      47.961  11.569  18.581  0.00  0.00    +0.102 C 
ATOM      4  C   UNL     1      47.351  12.942  18.699  0.00  0.00    -0.029 A 
ATOM      5  C   UNL     1      46.157  13.066  19.401  0.00  0.00    +0.005 A 
ATOM      6  C   UNL     1      45.551  14.292  19.551  0.00  0.00    +0.068 A 
ATOM      7  C   UNL     1      46.145  15.428  19.005  0.00  0.00    -0.108 A 
ATOM      8  C   UNL     1      45.570  16.771  19.176  0.00  0.00    -0.013 A 
ATOM      9  C   UNL     1      44.685  17.130  20.210  0.00  0.00    +0.004 A 
ATOM     10  C   UNL     1      44.442  16.292  21.306  0.00  0.00    +0.016 A 
ATOM     11  C   UNL     1      43.482  16.614  22.219  0.00  0.00    +0.054 A 
ATOM     12  C   UNL     1      42.761  17.796  22.106  0.00  0.00    -0.007 A 
ATOM     13  C   UNL     1      43.031  18.689  21.089  0.00  0.00    +0.141 A 
ATOM     16  C   UNL     1      44.050  18.401  20.162  0.00  0.00    -0.072 A 
ATOM     17  C   UNL     1      44.465  19.352  19.205  0.00  0.00    +0.159 A 
ATOM     20  C   UNL     1      45.419  19.033  18.279  0.00  0.00    -0.029 A 
ATOM     21  C   UNL     1      45.975  17.752  18.249  0.00  0.00    -0.122 A 
ATOM     22  C   UNL     1      47.022  17.365  17.286  0.00  0.00    +0.533 A 
ATOM     23  O   UNL     1      47.883  16.393  17.681  0.00  0.00    -0.282 OA
ATOM     24  O   UNL     1      47.111  17.889  16.195  0.00  0.00    -0.422 OA
ATOM     25  C   UNL     1      47.335  15.296  18.266  0.00  0.00    +0.128 A 
ATOM     26  C   UNL     1      47.938  14.050  18.128  0.00  0.00    -0.074 A 
ATOM     27  C   UNL     1      49.222  13.954  17.349  0.00  0.00    +0.231 C 
ATOM     28  C   UNL     1      50.368  14.555  18.163  0.00  0.00    +0.008 C 
ATOM     29  N   UNL     1      49.533  12.569  17.003  0.00  0.00    -0.683 NA
ATOM     30  H   UNL     1      50.438  12.493  16.563  0.00  0.00    +0.353 HD
ENDROOT
BRANCH  13  14
ATOM     14  O   UNL     1      42.301  19.830  20.997  0.00  0.00    -0.478 OA
ATOM     15  H   UNL     1      42.751  20.547  20.530  0.00  0.00    +0.394 HD
ENDBRANCH  13  14
BRANCH  17  18
ATOM     18  O   UNL     1      43.931  20.600  19.192  0.00  0.00    -0.296 OA
ATOM     19  C   UNL     1      44.823  21.690  19.437  0.00  0.00    +0.250 C 
ENDBRANCH  17  18
TORSDOF 2
ENDMDL
MODEL 3
REMARK VINA RESULT:      -6.4      4.132      7.952
REMARK  Name = ZINC31852149
REMARK  5 active torsions:
REMARK  status: ('A' for Active; 'I' for Inactive)
REMARK    1  A    between atoms: C1_1  and  C2_2
REMARK    2  A    between atoms: C13_14  and  O4_30
REMARK    3  A    between atoms: C15_16  and  O3_28
REMARK    4  A    between atoms: C21_24  and  C22_27
REMARK    5  A    between atoms: O3_28  and  C23_29
REMARK                            x       y       z     vdW  Elec       q    Type
REMARK                         _______ _______ _______ _____ _____    ______ ____
ROOT
ATOM      1  C   UNL     1      51.243  12.894  15.837  0.00  0.00    +0.038 C 
ATOM      2  C   UNL     1      49.983  13.657  16.267  0.00  0.00    +0.129 C 
ATOM      3  C   UNL     1      50.392  15.007  16.854  0.00  0.00    +0.102 C 
ATOM      4  C   UNL     1      49.220  15.659  17.541  0.00  0.00    -0.029 A 
ATOM      5  C   UNL     1      49.302  17.020  17.819  0.00  0.00    +0.005 A 
ATOM      6  C   UNL     1      48.264  17.676  18.439  0.00  0.00    +0.068 A 
ATOM      7  C   UNL     1      47.110  16.976  18.783  0.00  0.00    -0.108 A 
ATOM      8  C   UNL     1      45.949  17.635  19.401  0.00  0.00    -0.013 A 
ATOM      9  C   UNL     1      45.677  19.012  19.311  0.00  0.00    +0.004 A 
ATOM     10  C   UNL     1      46.374  19.852  18.432  0.00  0.00    +0.016 A 
ATOM     11  C   UNL     1      46.175  21.201  18.467  0.00  0.00    +0.054 A 
ATOM     12  C   UNL     1      45.249  21.761  19.338  0.00  0.00    -0.007 A 
ATOM     13  C   UNL     1      44.480  20.960  20.156  0.00  0.00    +0.141 A 
ATOM     16  C   UNL     1      44.634  19.561  20.106  0.00  0.00    -0.072 A 
ATOM     17  C   UNL     1      43.764  18.699  20.807  0.00  0.00    +0.159 A 
ATOM     20  C   UNL     1      43.964  17.347  20.787  0.00  0.00    -0.029 A 
ATOM     21  C   UNL     1      45.048  16.802  20.095  0.00  0.00    -0.122 A 
ATOM     22  C   UNL     1      45.295  15.350  20.024  0.00  0.00    +0.533 A 
ATOM     23  O   UNL     1      45.943  14.896  18.922  0.00  0.00    -0.282 OA
ATOM     24  O   UNL     1      44.937  14.598  20.906  0.00  0.00    -0.422 OA
ATOM     25  C   UNL     1      47.042  15.593  18.531  0.00  0.00    +0.128 A 
ATOM     26  C   UNL     1      48.098  14.944  17.899  0.00  0.00    -0.074 A 
ATOM     27  C   UNL     1      47.977  13.468  17.628  0.00  0.00    +0.231 C 
ATOM     28  C   UNL     1      46.987  13.230  16.488  0.00  0.00    +0.008 C 
ATOM     29  N   UNL     1      49.273  12.882  17.291  0.00  0.00    -0.683 NA
ATOM     30  H   UNL     1      49.179  11.915  17.019  0.00  0.00    +0.353 HD
ENDROOT
BRANCH  13  14
ATOM     14  O   UNL     1      43.592  21.537  21.005  0.00  0.00    -0.478 OA
ATOM     15  H   UNL     1      43.224  20.929  21.662  0.00  0.00    +0.394 HD
ENDBRANCH  13  14
BRANCH  17  18
ATOM     18  O   UNL     1      42.711  19.195  21.505  0.00  0.00    -0.296 OA
ATOM     19  C   UNL     1      41.405  18.902  21.006  0.00  0.00    +0.250 C 
ENDBRANCH  17  18
TORSDOF 2
ENDMDL
MODEL 4
REMARK VINA RESULT:      -6.4      2.939      6.885
REMARK  Name = ZINC31852149
REMARK  5 active torsions:
REMARK  status: ('A' for Active; 'I' for Inactive)
REMARK    1  A    between atoms: C1_1  and  C2_2
REMARK    2  A    between atoms: C13_14  and  O4_30
REMARK    3  A    between atoms: C15_16  and  O3_28
REMARK    4  A    between atoms: C21_24  and  C22_27
REMARK    5  A    between atoms: O3_28  and  C23_29
REMARK                            x       y       z     vdW  Elec       q    Type
REMARK                         _______ _______ _______ _____ _____    ______ ____
ROOT
ATOM      1  C   UNL     1      50.184  13.438  16.949  0.00  0.00    +0.038 C 
ATOM      2  C   UNL     1      49.489  14.537  17.763  0.00  0.00    +0.129 C 
ATOM      3  C   UNL     1      48.455  15.235  16.880  0.00  0.00    +0.102 C 
ATOM      4  C   UNL     1      47.959  16.493  17.546  0.00  0.00    -0.029 A 
ATOM      5  C   UNL     1      46.781  17.061  17.069  0.00  0.00    +0.005 A 
ATOM      6  C   UNL     1      46.270  18.205  17.636  0.00  0.00    +0.068 A 
ATOM      7  C   UNL     1      46.930  18.798  18.710  0.00  0.00    -0.108 A 
ATOM      8  C   UNL     1      46.405  19.993  19.388  0.00  0.00    -0.013 A 
ATOM      9  C   UNL     1      45.056  20.393  19.362  0.00  0.00    +0.004 A 
ATOM     10  C   UNL     1      44.043  19.560  18.866  0.00  0.00    +0.016 A 
ATOM     11  C   UNL     1      42.770  20.030  18.734  0.00  0.00    +0.054 A 
ATOM     12  C   UNL     1      42.443  21.320  19.131  0.00  0.00    -0.007 A 
ATOM     13  C   UNL     1      43.393  22.140  19.705  0.00  0.00    +0.141 A 
ATOM     16  C   UNL     1      44.703  21.662  19.894  0.00  0.00    -0.072 A 
ATOM     17  C   UNL     1      45.661  22.406  20.617  0.00  0.00    +0.159 A 
ATOM     20  C   UNL     1      46.943  21.948  20.743  0.00  0.00    -0.029 A 
ATOM     21  C   UNL     1      47.329  20.752  20.135  0.00  0.00    -0.122 A 
ATOM     22  C   UNL     1      48.693  20.203  20.259  0.00  0.00    +0.533 A 
ATOM     23  O   UNL     1      48.816  18.854  20.176  0.00  0.00    -0.282 OA
ATOM     24  O   UNL     1      49.656  20.921  20.428  0.00  0.00    -0.422 OA
ATOM     25  C   UNL     1      48.138  18.242  19.169  0.00  0.00    +0.128 A 
ATOM     26  C   UNL     1      48.639  17.081  18.589  0.00  0.00    -0.074 A 
ATOM     27  C   UNL     1      49.924  16.506  19.123  0.00  0.00    +0.231 C 
ATOM     28  C   UNL     1      49.674  15.862  20.487  0.00  0.00    +0.008 C 
ATOM     29  N   UNL     1      50.487  15.519  18.204  0.00  0.00    -0.683 NA
ATOM     30  H   UNL     1      51.296  15.065  18.602  0.00  0.00    +0.353 HD
ENDROOT
BRANCH  13  14
ATOM     14  O   UNL     1      43.046  23.401  20.071  0.00  0.00    -0.478 OA
ATOM     15  H   UNL     1      42.134  23.638  19.852  0.00  0.00    +0.394 HD
ENDBRANCH  13  14
BRANCH  17  18
ATOM     18  O   UNL     1      45.325  23.583  21.204  0.00  0.00    -0.296 OA
ATOM     19  C   UNL     1      46.213  24.684  21.006  0.00  0.00    +0.250 C 
ENDBRANCH  17  18
TORSDOF 2
ENDMDL
MODEL 5
REMARK VINA RESULT:      -6.3      2.735      3.829
REMARK  Name = ZINC31852149
REMARK  5 active torsions:
REMARK  status: ('A' for Active; 'I' for Inactive)
REMARK    1  A    between atoms: C1_1  and  C2_2
REMARK    2  A    between atoms: C13_14  and  O4_30
REMARK    3  A    between atoms: C15_16  and  O3_28
REMARK    4  A    between atoms: C21_24  and  C22_27
REMARK    5  A    between atoms: O3_28  and  C23_29
REMARK                            x       y       z     vdW  Elec       q    Type
REMARK                         _______ _______ _______ _____ _____    ______ ____
ROOT
ATOM      1  C   UNL     1      40.962  19.258  21.381  0.00  0.00    +0.038 C 
ATOM      2  C   UNL     1      42.467  18.979  21.269  0.00  0.00    +0.129 C 
ATOM      3  C   UNL     1      43.040  19.786  20.105  0.00  0.00    +0.102 C 
ATOM      4  C   UNL     1      44.439  19.327  19.785  0.00  0.00    -0.029 A 
ATOM      5  C   UNL     1      45.237  20.163  19.009  0.00  0.00    +0.005 A 
ATOM      6  C   UNL     1      46.526  19.806  18.686  0.00  0.00    +0.068 A 
ATOM      7  C   UNL     1      47.046  18.600  19.150  0.00  0.00    -0.108 A 
ATOM      8  C   UNL     1      48.433  18.189  18.880  0.00  0.00    -0.013 A 
ATOM      9  C   UNL     1      49.474  19.077  18.550  0.00  0.00    +0.004 A 
ATOM     10  C   UNL     1      49.331  20.467  18.667  0.00  0.00    +0.016 A 
ATOM     11  C   UNL     1      50.312  21.299  18.215  0.00  0.00    +0.054 A 
ATOM     12  C   UNL     1      51.485  20.788  17.675  0.00  0.00    -0.007 A 
ATOM     13  C   UNL     1      51.700  19.426  17.622  0.00  0.00    +0.141 A 
ATOM     16  C   UNL     1      50.722  18.547  18.126  0.00  0.00    -0.072 A 
ATOM     17  C   UNL     1      50.965  17.161  18.236  0.00  0.00    +0.159 A 
ATOM     20  C   UNL     1      49.983  16.318  18.677  0.00  0.00    -0.029 A 
ATOM     21  C   UNL     1      48.717  16.814  18.998  0.00  0.00    -0.122 A 
ATOM     22  C   UNL     1      47.631  15.952  19.499  0.00  0.00    +0.533 A 
ATOM     23  O   UNL     1      46.712  16.537  20.308  0.00  0.00    -0.282 OA
ATOM     24  O   UNL     1      47.561  14.777  19.203  0.00  0.00    -0.422 OA
ATOM     25  C   UNL     1      46.227  17.742  19.906  0.00  0.00    +0.128 A 
ATOM     26  C   UNL     1      44.928  18.119  20.229  0.00  0.00    -0.074 A 
ATOM     27  C   UNL     1      44.091  17.181  21.058  0.00  0.00    +0.231 C 
ATOM     28  C   UNL     1      44.584  17.190  22.505  0.00  0.00    +0.008 C 
ATOM     29  N   UNL     1      42.677  17.549  21.013  0.00  0.00    -0.683 NA
ATOM     30  H   UNL     1      42.129  16.980  21.641  0.00  0.00    +0.353 HD
ENDROOT
BRANCH  13  14
ATOM     14  O   UNL     1      52.851  18.956  17.077  0.00  0.00    -0.478 OA
ATOM     15  H   UNL     1      52.988  18.007  17.207  0.00  0.00    +0.394 HD
ENDBRANCH  13  14
BRANCH  17  18
ATOM     18  O   UNL     1      52.177  16.642  17.915  0.00  0.00    -0.296 OA
ATOM     19  C   UNL     1      52.893  15.973  18.955  0.00  0.00    +0.250 C 
ENDBRANCH  17  18
TORSDOF 2
ENDMDL
MODEL 6
REMARK VINA RESULT:      -6.2      2.091      2.632
REMARK  Name = ZINC31852149
REMARK  5 active torsions:
REMARK  status: ('A' for Active; 'I' for Inactive)
REMARK    1  A    between atoms: C1_1  and  C2_2
REMARK    2  A    between atoms: C13_14  and  O4_30
REMARK    3  A    between atoms: C15_16  and  O3_28
REMARK    4  A    between atoms: C21_24  and  C22_27
REMARK    5  A    between atoms: O3_28  and  C23_29
REMARK                            x       y       z     vdW  Elec       q    Type
REMARK                         _______ _______ _______ _____ _____    ______ ____
ROOT
ATOM      1  C   UNL     1      40.819  18.842  21.707  0.00  0.00    +0.038 C 
ATOM      2  C   UNL     1      42.119  18.977  20.905  0.00  0.00    +0.129 C 
ATOM      3  C   UNL     1      42.924  17.684  21.035  0.00  0.00    +0.102 C 
ATOM      4  C   UNL     1      44.321  17.878  20.504  0.00  0.00    -0.029 A 
ATOM      5  C   UNL     1      45.072  16.742  20.217  0.00  0.00    +0.005 A 
ATOM      6  C   UNL     1      46.351  16.850  19.723  0.00  0.00    +0.068 A 
ATOM      7  C   UNL     1      46.901  18.109  19.495  0.00  0.00    -0.108 A 
ATOM      8  C   UNL     1      48.244  18.286  18.922  0.00  0.00    -0.013 A 
ATOM      9  C   UNL     1      48.915  17.313  18.157  0.00  0.00    +0.004 A 
ATOM     10  C   UNL     1      48.269  16.163  17.684  0.00  0.00    +0.016 A 
ATOM     11  C   UNL     1      48.981  15.182  17.060  0.00  0.00    +0.054 A 
ATOM     12  C   UNL     1      50.345  15.322  16.843  0.00  0.00    -0.007 A 
ATOM     13  C   UNL     1      51.001  16.476  17.216  0.00  0.00    +0.141 A 
ATOM     16  C   UNL     1      50.279  17.523  17.819  0.00  0.00    -0.072 A 
ATOM     17  C   UNL     1      50.875  18.778  18.073  0.00  0.00    +0.159 A 
ATOM     20  C   UNL     1      50.172  19.763  18.708  0.00  0.00    -0.029 A 
ATOM     21  C   UNL     1      48.863  19.533  19.140  0.00  0.00    -0.122 A 
ATOM     22  C   UNL     1      48.055  20.569  19.809  0.00  0.00    +0.533 A 
ATOM     23  O   UNL     1      46.709  20.485  19.653  0.00  0.00    -0.282 OA
ATOM     24  O   UNL     1      48.566  21.452  20.465  0.00  0.00    -0.422 OA
ATOM     25  C   UNL     1      46.153  19.256  19.818  0.00  0.00    +0.128 A 
ATOM     26  C   UNL     1      44.858  19.131  20.311  0.00  0.00    -0.074 A 
ATOM     27  C   UNL     1      44.082  20.384  20.623  0.00  0.00    +0.231 C 
ATOM     28  C   UNL     1      43.653  21.064  19.323  0.00  0.00    +0.008 C 
ATOM     29  N   UNL     1      42.908  20.091  21.442  0.00  0.00    -0.683 NA
ATOM     30  H   UNL     1      42.338  20.913  21.574  0.00  0.00    +0.353 HD
ENDROOT
BRANCH  13  14
ATOM     14  O   UNL     1      52.338  16.579  17.002  0.00  0.00    -0.478 OA
ATOM     15  H   UNL     1      52.589  16.554  16.068  0.00  0.00    +0.394 HD
ENDBRANCH  13  14
BRANCH  17  18
ATOM     18  O   UNL     1      52.151  19.030  17.685  0.00  0.00    -0.296 OA
ATOM     19  C   UNL     1      52.347  20.102  16.760  0.00  0.00    +0.250 C 
ENDBRANCH  17  18
TORSDOF 2
ENDMDL
MODEL 7
REMARK VINA RESULT:      -6.1      2.388      4.094
REMARK  Name = ZINC31852149
REMARK  5 active torsions:
REMARK  status: ('A' for Active; 'I' for Inactive)
REMARK    1  A    between atoms: C1_1  and  C2_2
REMARK    2  A    between atoms: C13_14  and  O4_30
REMARK    3  A    between atoms: C15_16  and  O3_28
REMARK    4  A    between atoms: C21_24  and  C22_27
REMARK    5  A    between atoms: O3_28  and  C23_29
REMARK                            x       y       z     vdW  Elec       q    Type
REMARK                         _______ _______ _______ _____ _____    ______ ____
ROOT
ATOM      1  C   UNL     1      42.509  22.673  19.506  0.00  0.00    +0.038 C 
ATOM      2  C   UNL     1      43.538  21.536  19.545  0.00  0.00    +0.129 C 
ATOM      3  C   UNL     1      44.927  22.109  19.266  0.00  0.00    +0.102 C 
ATOM      4  C   UNL     1      45.914  20.999  19.015  0.00  0.00    -0.029 A 
ATOM      5  C   UNL     1      47.270  21.302  19.095  0.00  0.00    +0.005 A 
ATOM      6  C   UNL     1      48.223  20.333  18.883  0.00  0.00    +0.068 A 
ATOM      7  C   UNL     1      47.829  19.027  18.598  0.00  0.00    -0.108 A 
ATOM      8  C   UNL     1      48.801  17.939  18.412  0.00  0.00    -0.013 A 
ATOM      9  C   UNL     1      50.116  17.955  18.912  0.00  0.00    +0.004 A 
ATOM     10  C   UNL     1      50.552  18.922  19.828  0.00  0.00    +0.016 A 
ATOM     11  C   UNL     1      51.865  18.985  20.189  0.00  0.00    +0.054 A 
ATOM     12  C   UNL     1      52.784  18.069  19.693  0.00  0.00    -0.007 A 
ATOM     13  C   UNL     1      52.378  17.050  18.857  0.00  0.00    +0.141 A 
ATOM     16  C   UNL     1      51.019  16.935  18.508  0.00  0.00    -0.072 A 
ATOM     17  C   UNL     1      50.536  15.821  17.787  0.00  0.00    +0.159 A 
ATOM     20  C   UNL     1      49.223  15.756  17.411  0.00  0.00    -0.029 A 
ATOM     21  C   UNL     1      48.349  16.803  17.712  0.00  0.00    -0.122 A 
ATOM     22  C   UNL     1      46.919  16.771  17.349  0.00  0.00    +0.533 A 
ATOM     23  O   UNL     1      46.074  17.471  18.146  0.00  0.00    -0.282 OA
ATOM     24  O   UNL     1      46.519  16.149  16.387  0.00  0.00    -0.422 OA
ATOM     25  C   UNL     1      46.458  18.730  18.485  0.00  0.00    +0.128 A 
ATOM     26  C   UNL     1      45.507  19.720  18.707  0.00  0.00    -0.074 A 
ATOM     27  C   UNL     1      44.050  19.356  18.598  0.00  0.00    +0.231 C 
ATOM     28  C   UNL     1      43.635  18.514  19.805  0.00  0.00    +0.008 C 
ATOM     29  N   UNL     1      43.209  20.548  18.511  0.00  0.00    -0.683 NA
ATOM     30  H   UNL     1      42.229  20.309  18.532  0.00  0.00    +0.353 HD
ENDROOT
BRANCH  13  14
ATOM     14  O   UNL     1      53.301  16.176  18.379  0.00  0.00    -0.478 OA
ATOM     15  H   UNL     1      53.322  16.116  17.414  0.00  0.00    +0.394 HD
ENDBRANCH  13  14
BRANCH  17  18
ATOM     18  O   UNL     1      51.362  14.795  17.462  0.00  0.00    -0.296 OA
ATOM     19  C   UNL     1      50.985  13.987  16.344  0.00  0.00    +0.250 C 
ENDBRANCH  17  18
TORSDOF 2
ENDMDL
MODEL 8
REMARK VINA RESULT:      -6.1      3.348      7.073
REMARK  Name = ZINC31852149
REMARK  5 active torsions:
REMARK  status: ('A' for Active; 'I' for Inactive)
REMARK    1  A    between atoms: C1_1  and  C2_2
REMARK    2  A    between atoms: C13_14  and  O4_30
REMARK    3  A    between atoms: C15_16  and  O3_28
REMARK    4  A    between atoms: C21_24  and  C22_27
REMARK    5  A    between atoms: O3_28  and  C23_29
REMARK                            x       y       z     vdW  Elec       q    Type
REMARK                         _______ _______ _______ _____ _____    ______ ____
ROOT
ATOM      1  C   UNL     1      49.944  12.196  15.533  0.00  0.00    +0.038 C 
ATOM      2  C   UNL     1      49.589  13.325  16.510  0.00  0.00    +0.129 C 
ATOM      3  C   UNL     1      48.183  13.835  16.195  0.00  0.00    +0.102 C 
ATOM      4  C   UNL     1      47.911  15.119  16.935  0.00  0.00    -0.029 A 
ATOM      5  C   UNL     1      46.588  15.536  17.052  0.00  0.00    +0.005 A 
ATOM      6  C   UNL     1      46.271  16.695  17.721  0.00  0.00    +0.068 A 
ATOM      7  C   UNL     1      47.283  17.458  18.300  0.00  0.00    -0.108 A 
ATOM      8  C   UNL     1      47.000  18.679  19.070  0.00  0.00    -0.013 A 
ATOM      9  C   UNL     1      45.762  18.968  19.675  0.00  0.00    +0.004 A 
ATOM     10  C   UNL     1      44.747  18.008  19.785  0.00  0.00    +0.016 A 
ATOM     11  C   UNL     1      43.517  18.360  20.257  0.00  0.00    +0.054 A 
ATOM     12  C   UNL     1      43.261  19.659  20.678  0.00  0.00    -0.007 A 
ATOM     13  C   UNL     1      44.260  20.610  20.666  0.00  0.00    +0.141 A 
ATOM     16  C   UNL     1      45.551  20.260  20.228  0.00  0.00    -0.072 A 
ATOM     17  C   UNL     1      46.637  21.153  20.347  0.00  0.00    +0.159 A 
ATOM     20  C   UNL     1      47.871  20.813  19.866  0.00  0.00    -0.029 A 
ATOM     21  C   UNL     1      48.066  19.587  19.225  0.00  0.00    -0.122 A 
ATOM     22  C   UNL     1      49.381  19.163  18.709  0.00  0.00    +0.533 A 
ATOM     23  O   UNL     1      49.615  17.828  18.664  0.00  0.00    -0.282 OA
ATOM     24  O   UNL     1      50.213  19.968  18.344  0.00  0.00    -0.422 OA
ATOM     25  C   UNL     1      48.622  17.053  18.152  0.00  0.00    +0.128 A 
ATOM     26  C   UNL     1      48.926  15.875  17.478  0.00  0.00    -0.074 A 
ATOM     27  C   UNL     1      50.370  15.465  17.360  0.00  0.00    +0.231 C 
ATOM     28  C   UNL     1      50.879  14.966  18.712  0.00  0.00    +0.008 C 
ATOM     29  N   UNL     1      50.547  14.425  16.348  0.00  0.00    -0.683 NA
ATOM     30  H   UNL     1      51.496  14.084  16.334  0.00  0.00    +0.353 HD
ENDROOT
BRANCH  13  14
ATOM     14  O   UNL     1      43.977  21.875  21.073  0.00  0.00    -0.478 OA
ATOM     15  H   UNL     1      43.855  21.962  22.028  0.00  0.00    +0.394 HD
ENDBRANCH  13  14
BRANCH  17  18
ATOM     18  O   UNL     1      46.478  22.361  20.947  0.00  0.00    -0.296 OA
ATOM     19  C   UNL     1      47.242  22.602  22.131  0.00  0.00    +0.250 C 
ENDBRANCH  17  18
TORSDOF 2
ENDMDL
MODEL 9
REMARK VINA RESULT:      -6.1      4.823      7.817
REMARK  Name = ZINC31852149
REMARK  5 active torsions:
REMARK  status: ('A' for Active; 'I' for Inactive)
REMARK    1  A    between atoms: C1_1  and  C2_2
REMARK    2  A    between atoms: C13_14  and  O4_30
REMARK    3  A    between atoms: C15_16  and  O3_28
REMARK    4  A    between atoms: C21_24  and  C22_27
REMARK    5  A    between atoms: O3_28  and  C23_29
REMARK                            x       y       z     vdW  Elec       q    Type
REMARK                         _______ _______ _______ _____ _____    ______ ____
ROOT
ATOM      1  C   UNL     1      52.353  21.518  19.883  0.00  0.00    +0.038 C 
ATOM      2  C   UNL     1      51.679  20.161  19.642  0.00  0.00    +0.129 C 
ATOM      3  C   UNL     1      52.297  19.508  18.406  0.00  0.00    +0.102 C 
ATOM      4  C   UNL     1      51.478  18.320  17.973  0.00  0.00    -0.029 A 
ATOM      5  C   UNL     1      52.064  17.408  17.102  0.00  0.00    +0.005 A 
ATOM      6  C   UNL     1      51.373  16.298  16.673  0.00  0.00    +0.068 A 
ATOM      7  C   UNL     1      50.075  16.075  17.125  0.00  0.00    -0.108 A 
ATOM      8  C   UNL     1      49.305  14.881  16.741  0.00  0.00    -0.013 A 
ATOM      9  C   UNL     1      49.880  13.678  16.290  0.00  0.00    +0.004 A 
ATOM     10  C   UNL     1      51.257  13.433  16.376  0.00  0.00    +0.016 A 
ATOM     11  C   UNL     1      51.793  12.314  15.810  0.00  0.00    +0.054 A 
ATOM     12  C   UNL     1      50.983  11.378  15.180  0.00  0.00    -0.007 A 
ATOM     13  C   UNL     1      49.613  11.540  15.151  0.00  0.00    +0.141 A 
ATOM     16  C   UNL     1      49.032  12.664  15.769  0.00  0.00    -0.072 A 
ATOM     17  C   UNL     1      47.632  12.790  15.900  0.00  0.00    +0.159 A 
ATOM     20  C   UNL     1      47.086  13.913  16.456  0.00  0.00    -0.029 A 
ATOM     21  C   UNL     1      47.905  14.964  16.875  0.00  0.00    -0.122 A 
ATOM     22  C   UNL     1      47.368  16.187  17.501  0.00  0.00    +0.533 A 
ATOM     23  O   UNL     1      48.183  16.833  18.372  0.00  0.00    -0.282 OA
ATOM     24  O   UNL     1      46.254  16.595  17.250  0.00  0.00    -0.422 OA
ATOM     25  C   UNL     1      49.471  17.016  17.979  0.00  0.00    +0.128 A 
ATOM     26  C   UNL     1      50.185  18.131  18.409  0.00  0.00    -0.074 A 
ATOM     27  C   UNL     1      49.511  19.103  19.340  0.00  0.00    +0.231 C 
ATOM     28  C   UNL     1      49.395  18.488  20.735  0.00  0.00    +0.008 C 
ATOM     29  N   UNL     1      50.244  20.365  19.413  0.00  0.00    -0.683 NA
ATOM     30  H   UNL     1      49.847  20.981  20.106  0.00  0.00    +0.353 HD
ENDROOT
BRANCH  13  14
ATOM     14  O   UNL     1      48.849  10.614  14.518  0.00  0.00    -0.478 OA
ATOM     15  H   UNL     1      49.286  10.192  13.765  0.00  0.00    +0.394 HD
ENDBRANCH  13  14
BRANCH  17  18
ATOM     18  O   UNL     1      46.805  11.796  15.486  0.00  0.00    -0.296 OA
ATOM     19  C   UNL     1      45.824  11.336  16.418  0.00  0.00    +0.250 C 
ENDBRANCH  17  18
TORSDOF 2
ENDMDL
