MODEL 1
REMARK VINA RESULT:      -6.5      0.000      0.000
REMARK  Name = ZINC95486160
REMARK  24 active torsions:
REMARK  status: ('A' for Active; 'I' for Inactive)
REMARK    1  A    between atoms: C1_1  and  C2_2
REMARK    2  A    between atoms: C2_2  and  C41_48
REMARK    3  A    between atoms: C3_3  and  C4_4
REMARK    4  A    between atoms: C4_4  and  C5_5
REMARK    5  A    between atoms: C5_5  and  C6_6
REMARK    6  A    between atoms: C7_7  and  C8_8
REMARK    7  A    between atoms: C8_8  and  C9_9
REMARK    8  A    between atoms: C11_12  and  C32_39
REMARK    9  A    between atoms: C13_14  and  C25_28
REMARK   10  A    between atoms: C15_17  and  C20_23
REMARK   11  A    between atoms: C17_20  and  C18_21
REMARK   12  A    between atoms: C17_20  and  C19_22
REMARK   13  A    between atoms: C20_23  and  C21_24
REMARK   14  A    between atoms: C22_25  and  C23_26
REMARK   15  A    between atoms: C22_25  and  C24_27
REMARK   16  A    between atoms: C25_28  and  C26_30
REMARK   17  A    between atoms: C29_33  and  O5_37
REMARK   18  A    between atoms: C30_34  and  O4_36
REMARK   19  A    between atoms: C32_39  and  C33_40
REMARK   20  A    between atoms: C34_41  and  C35_42
REMARK   21  A    between atoms: C35_42  and  C36_43
REMARK   22  A    between atoms: C36_43  and  C37_44
REMARK   23  A    between atoms: C38_45  and  C39_46
REMARK   24  A    between atoms: C38_45  and  C40_47
REMARK                            x       y       z     vdW  Elec       q    Type
REMARK                         _______ _______ _______ _____ _____    ______ ____
ROOT
ATOM     10  C   UNL     1      47.289  17.681  21.095  0.00  0.00    -0.001 C 
ATOM     11  C   UNL     1      46.909  16.954  19.819  0.00  0.00    +0.085 C 
ATOM     12  C   UNL     1      47.111  17.757  18.544  0.00  0.00    -0.131 C 
ATOM     22  C   UNL     1      46.105  18.883  18.439  0.00  0.00    +0.396 C 
ATOM     23  O   UNL     1      45.170  18.769  17.664  0.00  0.00    -0.414 OA
ATOM     24  C   UNL     1      46.235  20.131  19.263  0.00  0.00    -0.081 C 
ATOM     37  C   UNL     1      47.615  20.364  19.806  0.00  0.00    +0.394 C 
ATOM     38  C   UNL     1      48.703  19.319  19.786  0.00  0.00    -0.119 C 
ATOM     44  O   UNL     1      47.874  21.468  20.275  0.00  0.00    -0.409 OA
ATOM     45  C   UNL     1      48.481  18.417  18.584  0.00  0.00    +0.382 C 
ATOM     46  O   UNL     1      49.316  18.242  17.732  0.00  0.00    -0.389 OA
ATOM     47  C   UNL     1      48.612  18.429  21.029  0.00  0.00    -0.035 C 
ATOM     48  C   UNL     1      48.759  19.296  22.288  0.00  0.00    +0.046 C 
ATOM     49  C   UNL     1      49.765  17.416  21.008  0.00  0.00    +0.048 C 
ENDROOT
BRANCH  24  25
ATOM     25  C   UNL     1      45.186  20.203  20.337  0.00  0.00    +0.434 C 
ATOM     36  O   UNL     1      45.502  20.095  21.503  0.00  0.00    -0.416 OA
BRANCH  25  26
ATOM     26  C   UNL     1      43.776  20.405  19.975  0.00  0.00    -0.168 A 
ATOM     27  C   UNL     1      42.833  19.405  20.241  0.00  0.00    +0.096 A 
ATOM     28  C   UNL     1      41.513  19.596  19.901  0.00  0.00    +0.002 A 
ATOM     29  C   UNL     1      41.113  20.780  19.293  0.00  0.00    +0.126 A 
ATOM     32  C   UNL     1      42.047  21.780  19.024  0.00  0.00    +0.067 A 
ATOM     35  C   UNL     1      43.372  21.599  19.367  0.00  0.00    +0.086 A 
BRANCH  29  30
ATOM     30  O   UNL     1      39.810  20.962  18.960  0.00  0.00    -0.484 OA
ATOM     31  H   UNL     1      39.309  21.483  19.602  0.00  0.00    +0.396 HD
ENDBRANCH  29  30
BRANCH  32  33
ATOM     33  O   UNL     1      41.651  22.937  18.428  0.00  0.00    -0.482 OA
ATOM     34  H   UNL     1      41.951  23.030  17.513  0.00  0.00    +0.391 HD
ENDBRANCH  32  33
ENDBRANCH  25  26
ENDBRANCH  24  25
BRANCH  10   9
ATOM      9  C   UNL     1      47.391  16.638  22.228  0.00  0.00    +0.066 C 
BRANCH   9   8
ATOM      7  C   UNL     1      47.996  14.320  21.753  0.00  0.00    -0.049 C 
ATOM      8  C   UNL     1      47.093  15.266  21.677  0.00  0.00    -0.046 C 
BRANCH   7   6
ATOM      6  C   UNL     1      47.699  12.950  21.201  0.00  0.00    +0.051 C 
BRANCH   6   5
ATOM      5  C   UNL     1      48.815  12.533  20.241  0.00  0.00    +0.051 C 
BRANCH   5   4
ATOM      1  C   UNL     1      50.441  12.141  17.971  0.00  0.00    +0.072 C 
ATOM      2  C   UNL     1      49.988  13.529  18.345  0.00  0.00    -0.131 C 
ATOM      3  C   UNL     1      50.460  14.716  17.545  0.00  0.00    +0.071 C 
ATOM      4  C   UNL     1      49.186  13.703  19.365  0.00  0.00    -0.063 C 
ENDBRANCH   5   4
ENDBRANCH   6   5
ENDBRANCH   7   6
ENDBRANCH   9   8
ENDBRANCH  10   9
BRANCH  12  13
ATOM     13  C   UNL     1      47.007  16.842  17.308  0.00  0.00    +0.111 C 
BRANCH  13  14
ATOM     14  C   UNL     1      46.566  15.466  17.738  0.00  0.00    -0.065 C 
ATOM     15  C   UNL     1      46.644  14.461  16.901  0.00  0.00    -0.018 C 
BRANCH  15  16
ATOM     16  C   UNL     1      46.204  13.086  17.331  0.00  0.00    +0.048 C 
BRANCH  16  17
ATOM     17  C   UNL     1      46.880  12.035  16.449  0.00  0.00    +0.056 C 
BRANCH  17  18
ATOM     18  C   UNL     1      47.750  12.720  15.428  0.00  0.00    -0.060 C 
ATOM     19  C   UNL     1      48.633  12.029  14.749  0.00  0.00    -0.135 C 
ATOM     20  C   UNL     1      49.485  12.710  13.709  0.00  0.00    +0.070 C 
ATOM     21  C   UNL     1      48.794  10.554  15.009  0.00  0.00    +0.072 C 
ENDBRANCH  17  18
ENDBRANCH  16  17
ENDBRANCH  15  16
ENDBRANCH  13  14
ENDBRANCH  12  13
BRANCH  38  39
ATOM     39  C   UNL     1      50.089  19.984  19.707  0.00  0.00    +0.118 C 
BRANCH  39  40
ATOM     40  C   UNL     1      50.231  20.692  18.383  0.00  0.00    -0.073 C 
ATOM     41  C   UNL     1      51.360  20.622  17.721  0.00  0.00    -0.108 C 
ATOM     42  C   UNL     1      51.517  21.367  16.421  0.00  0.00    +0.071 C 
ATOM     43  C   UNL     1      52.500  19.798  18.261  0.00  0.00    +0.077 C 
ENDBRANCH  39  40
ENDBRANCH  38  39
TORSDOF 16
ENDMDL
MODEL 2
REMARK VINA RESULT:      -6.4      1.426      2.468
REMARK  Name = ZINC95486160
REMARK  24 active torsions:
REMARK  status: ('A' for Active; 'I' for Inactive)
REMARK    1  A    between atoms: C1_1  and  C2_2
REMARK    2  A    between atoms: C2_2  and  C41_48
REMARK    3  A    between atoms: C3_3  and  C4_4
REMARK    4  A    between atoms: C4_4  and  C5_5
REMARK    5  A    between atoms: C5_5  and  C6_6
REMARK    6  A    between atoms: C7_7  and  C8_8
REMARK    7  A    between atoms: C8_8  and  C9_9
REMARK    8  A    between atoms: C11_12  and  C32_39
REMARK    9  A    between atoms: C13_14  and  C25_28
REMARK   10  A    between atoms: C15_17  and  C20_23
REMARK   11  A    between atoms: C17_20  and  C18_21
REMARK   12  A    between atoms: C17_20  and  C19_22
REMARK   13  A    between atoms: C20_23  and  C21_24
REMARK   14  A    between atoms: C22_25  and  C23_26
REMARK   15  A    between atoms: C22_25  and  C24_27
REMARK   16  A    between atoms: C25_28  and  C26_30
REMARK   17  A    between atoms: C29_33  and  O5_37
REMARK   18  A    between atoms: C30_34  and  O4_36
REMARK   19  A    between atoms: C32_39  and  C33_40
REMARK   20  A    between atoms: C34_41  and  C35_42
REMARK   21  A    between atoms: C35_42  and  C36_43
REMARK   22  A    between atoms: C36_43  and  C37_44
REMARK   23  A    between atoms: C38_45  and  C39_46
REMARK   24  A    between atoms: C38_45  and  C40_47
REMARK                            x       y       z     vdW  Elec       q    Type
REMARK                         _______ _______ _______ _____ _____    ______ ____
ROOT
ATOM     10  C   UNL     1      48.029  17.674  21.151  0.00  0.00    -0.001 C 
ATOM     11  C   UNL     1      47.819  16.803  19.927  0.00  0.00    +0.085 C 
ATOM     12  C   UNL     1      47.840  17.551  18.602  0.00  0.00    -0.131 C 
ATOM     22  C   UNL     1      46.611  18.419  18.443  0.00  0.00    +0.396 C 
ATOM     23  O   UNL     1      45.724  18.054  17.688  0.00  0.00    -0.414 OA
ATOM     24  C   UNL     1      46.463  19.713  19.187  0.00  0.00    -0.081 C 
ATOM     37  C   UNL     1      47.757  20.278  19.697  0.00  0.00    +0.394 C 
ATOM     38  C   UNL     1      49.049  19.498  19.727  0.00  0.00    -0.119 C 
ATOM     44  O   UNL     1      47.767  21.438  20.094  0.00  0.00    -0.409 OA
ATOM     45  C   UNL     1      49.031  18.497  18.585  0.00  0.00    +0.382 C 
ATOM     46  O   UNL     1      49.885  18.456  17.733  0.00  0.00    -0.389 OA
ATOM     47  C   UNL     1      49.156  18.689  21.022  0.00  0.00    -0.035 C 
ATOM     48  C   UNL     1      49.108  19.643  22.224  0.00  0.00    +0.046 C 
ATOM     49  C   UNL     1      50.503  17.955  21.047  0.00  0.00    +0.048 C 
ENDROOT
BRANCH  24  25
ATOM     25  C   UNL     1      45.423  19.620  20.269  0.00  0.00    +0.434 C 
ATOM     36  O   UNL     1      45.740  19.273  21.387  0.00  0.00    -0.416 OA
BRANCH  25  26
ATOM     26  C   UNL     1      44.022  19.948  19.972  0.00  0.00    -0.168 A 
ATOM     27  C   UNL     1      43.016  19.001  20.197  0.00  0.00    +0.096 A 
ATOM     28  C   UNL     1      41.704  19.311  19.918  0.00  0.00    +0.002 A 
ATOM     29  C   UNL     1      41.375  20.563  19.413  0.00  0.00    +0.126 A 
ATOM     32  C   UNL     1      42.372  21.511  19.186  0.00  0.00    +0.067 A 
ATOM     35  C   UNL     1      43.689  21.211  19.468  0.00  0.00    +0.086 A 
BRANCH  29  30
ATOM     30  O   UNL     1      40.080  20.862  19.139  0.00  0.00    -0.484 OA
ATOM     31  H   UNL     1      39.856  20.819  18.199  0.00  0.00    +0.396 HD
ENDBRANCH  29  30
BRANCH  32  33
ATOM     33  O   UNL     1      42.045  22.735  18.690  0.00  0.00    -0.482 OA
ATOM     34  H   UNL     1      41.094  22.869  18.570  0.00  0.00    +0.391 HD
ENDBRANCH  32  33
ENDBRANCH  25  26
ENDBRANCH  24  25
BRANCH  10   9
ATOM      9  C   UNL     1      48.358  16.751  22.344  0.00  0.00    +0.066 C 
BRANCH   9   8
ATOM      7  C   UNL     1      49.419  14.601  21.877  0.00  0.00    -0.049 C 
ATOM      8  C   UNL     1      48.319  15.313  21.892  0.00  0.00    -0.046 C 
BRANCH   7   6
ATOM      6  C   UNL     1      49.378  13.164  21.426  0.00  0.00    +0.051 C 
BRANCH   6   5
ATOM      5  C   UNL     1      50.267  12.992  20.192  0.00  0.00    +0.051 C 
BRANCH   5   4
ATOM      1  C   UNL     1      51.066  13.523  17.540  0.00  0.00    +0.072 C 
ATOM      2  C   UNL     1      51.328  14.535  18.625  0.00  0.00    -0.131 C 
ATOM      3  C   UNL     1      52.078  15.804  18.307  0.00  0.00    +0.071 C 
ATOM      4  C   UNL     1      50.905  14.313  19.844  0.00  0.00    -0.063 C 
ENDBRANCH   5   4
ENDBRANCH   6   5
ENDBRANCH   7   6
ENDBRANCH   9   8
ENDBRANCH  10   9
BRANCH  12  13
ATOM     13  C   UNL     1      47.940  16.560  17.426  0.00  0.00    +0.111 C 
BRANCH  13  14
ATOM     14  C   UNL     1      47.841  15.149  17.947  0.00  0.00    -0.065 C 
ATOM     15  C   UNL     1      46.838  14.386  17.588  0.00  0.00    -0.018 C 
BRANCH  15  16
ATOM     16  C   UNL     1      46.739  12.976  18.110  0.00  0.00    +0.048 C 
BRANCH  16  17
ATOM     17  C   UNL     1      45.557  12.871  19.076  0.00  0.00    +0.056 C 
BRANCH  17  18
ATOM     18  C   UNL     1      45.174  14.248  19.552  0.00  0.00    -0.060 C 
ATOM     19  C   UNL     1      45.032  14.483  20.833  0.00  0.00    -0.135 C 
ATOM     20  C   UNL     1      44.673  15.867  21.311  0.00  0.00    +0.070 C 
ATOM     21  C   UNL     1      45.227  13.368  21.828  0.00  0.00    +0.072 C 
ENDBRANCH  17  18
ENDBRANCH  16  17
ENDBRANCH  15  16
ENDBRANCH  13  14
ENDBRANCH  12  13
BRANCH  38  39
ATOM     39  C   UNL     1      50.254  20.445  19.588  0.00  0.00    +0.118 C 
BRANCH  39  40
ATOM     40  C   UNL     1      50.343  20.942  18.167  0.00  0.00    -0.073 C 
ATOM     41  C   UNL     1      51.495  20.939  17.544  0.00  0.00    -0.108 C 
ATOM     42  C   UNL     1      51.591  21.477  16.139  0.00  0.00    +0.071 C 
ATOM     43  C   UNL     1      52.723  20.398  18.230  0.00  0.00    +0.077 C 
ENDBRANCH  39  40
ENDBRANCH  38  39
TORSDOF 16
ENDMDL
MODEL 3
REMARK VINA RESULT:      -6.2      2.646      7.794
REMARK  Name = ZINC95486160
REMARK  24 active torsions:
REMARK  status: ('A' for Active; 'I' for Inactive)
REMARK    1  A    between atoms: C1_1  and  C2_2
REMARK    2  A    between atoms: C2_2  and  C41_48
REMARK    3  A    between atoms: C3_3  and  C4_4
REMARK    4  A    between atoms: C4_4  and  C5_5
REMARK    5  A    between atoms: C5_5  and  C6_6
REMARK    6  A    between atoms: C7_7  and  C8_8
REMARK    7  A    between atoms: C8_8  and  C9_9
REMARK    8  A    between atoms: C11_12  and  C32_39
REMARK    9  A    between atoms: C13_14  and  C25_28
REMARK   10  A    between atoms: C15_17  and  C20_23
REMARK   11  A    between atoms: C17_20  and  C18_21
REMARK   12  A    between atoms: C17_20  and  C19_22
REMARK   13  A    between atoms: C20_23  and  C21_24
REMARK   14  A    between atoms: C22_25  and  C23_26
REMARK   15  A    between atoms: C22_25  and  C24_27
REMARK   16  A    between atoms: C25_28  and  C26_30
REMARK   17  A    between atoms: C29_33  and  O5_37
REMARK   18  A    between atoms: C30_34  and  O4_36
REMARK   19  A    between atoms: C32_39  and  C33_40
REMARK   20  A    between atoms: C34_41  and  C35_42
REMARK   21  A    between atoms: C35_42  and  C36_43
REMARK   22  A    between atoms: C36_43  and  C37_44
REMARK   23  A    between atoms: C38_45  and  C39_46
REMARK   24  A    between atoms: C38_45  and  C40_47
REMARK                            x       y       z     vdW  Elec       q    Type
REMARK                         _______ _______ _______ _____ _____    ______ ____
ROOT
ATOM     10  C   UNL     1      49.601  15.630  20.494  0.00  0.00    -0.001 C 
ATOM     11  C   UNL     1      48.351  16.346  20.020  0.00  0.00    +0.085 C 
ATOM     12  C   UNL     1      47.904  15.984  18.613  0.00  0.00    -0.131 C 
ATOM     22  C   UNL     1      48.856  16.538  17.575  0.00  0.00    +0.396 C 
ATOM     23  O   UNL     1      48.519  17.517  16.928  0.00  0.00    -0.414 OA
ATOM     24  C   UNL     1      50.196  15.913  17.326  0.00  0.00    -0.081 C 
ATOM     37  C   UNL     1      50.311  14.498  17.814  0.00  0.00    +0.394 C 
ATOM     38  C   UNL     1      49.298  13.849  18.725  0.00  0.00    -0.119 C 
ATOM     44  O   UNL     1      51.270  13.831  17.439  0.00  0.00    -0.409 OA
ATOM     45  C   UNL     1      47.940  14.472  18.454  0.00  0.00    +0.382 C 
ATOM     46  O   UNL     1      46.973  13.825  18.135  0.00  0.00    -0.389 OA
ATOM     47  C   UNL     1      49.633  14.140  20.191  0.00  0.00    -0.035 C 
ATOM     48  C   UNL     1      51.032  13.594  20.511  0.00  0.00    +0.046 C 
ATOM     49  C   UNL     1      48.620  13.419  21.091  0.00  0.00    +0.048 C 
ENDROOT
BRANCH  24  25
ATOM     25  C   UNL     1      51.318  16.777  17.830  0.00  0.00    +0.434 C 
ATOM     36  O   UNL     1      52.077  16.353  18.676  0.00  0.00    -0.416 OA
BRANCH  25  26
ATOM     26  C   UNL     1      51.497  18.134  17.297  0.00  0.00    -0.168 A 
ATOM     27  C   UNL     1      51.676  18.331  15.923  0.00  0.00    +0.096 A 
ATOM     28  C   UNL     1      51.844  19.604  15.426  0.00  0.00    +0.002 A 
ATOM     29  C   UNL     1      51.835  20.695  16.286  0.00  0.00    +0.126 A 
ATOM     32  C   UNL     1      51.657  20.507  17.656  0.00  0.00    +0.067 A 
ATOM     35  C   UNL     1      51.483  19.235  18.162  0.00  0.00    +0.086 A 
BRANCH  29  30
ATOM     30  O   UNL     1      52.001  21.948  15.789  0.00  0.00    -0.484 OA
ATOM     31  H   UNL     1      51.374  22.180  15.090  0.00  0.00    +0.396 HD
ENDBRANCH  29  30
BRANCH  32  33
ATOM     33  O   UNL     1      51.650  21.579  18.494  0.00  0.00    -0.482 OA
ATOM     34  H   UNL     1      50.765  21.904  18.708  0.00  0.00    +0.391 HD
ENDBRANCH  32  33
ENDBRANCH  25  26
ENDBRANCH  24  25
BRANCH  10   9
ATOM      9  C   UNL     1      49.702  15.804  22.024  0.00  0.00    +0.066 C 
BRANCH   9   8
ATOM      7  C   UNL     1      50.823  17.931  21.591  0.00  0.00    -0.049 C 
ATOM      8  C   UNL     1      50.000  17.247  22.348  0.00  0.00    -0.046 C 
BRANCH   7   6
ATOM      6  C   UNL     1      51.120  19.372  21.915  0.00  0.00    +0.051 C 
BRANCH   6   5
ATOM      5  C   UNL     1      49.806  20.143  22.060  0.00  0.00    +0.051 C 
BRANCH   5   4
ATOM      1  C   UNL     1      47.091  19.521  21.622  0.00  0.00    +0.072 C 
ATOM      2  C   UNL     1      47.948  20.008  20.482  0.00  0.00    -0.131 C 
ATOM      3  C   UNL     1      47.372  20.099  19.092  0.00  0.00    +0.071 C 
ATOM      4  C   UNL     1      49.193  20.352  20.699  0.00  0.00    -0.063 C 
ENDBRANCH   5   4
ENDBRANCH   6   5
ENDBRANCH   7   6
ENDBRANCH   9   8
ENDBRANCH  10   9
BRANCH  12  13
ATOM     13  C   UNL     1      46.477  16.505  18.350  0.00  0.00    +0.111 C 
BRANCH  13  14
ATOM     14  C   UNL     1      45.734  16.619  19.656  0.00  0.00    -0.065 C 
ATOM     15  C   UNL     1      44.708  17.425  19.759  0.00  0.00    -0.018 C 
BRANCH  15  16
ATOM     16  C   UNL     1      43.966  17.539  21.065  0.00  0.00    +0.048 C 
BRANCH  16  17
ATOM     17  C   UNL     1      43.440  18.966  21.231  0.00  0.00    +0.056 C 
BRANCH  17  18
ATOM     18  C   UNL     1      42.346  19.218  20.226  0.00  0.00    -0.060 C 
ATOM     19  C   UNL     1      42.419  20.250  19.422  0.00  0.00    -0.135 C 
ATOM     20  C   UNL     1      41.337  20.487  18.400  0.00  0.00    +0.070 C 
ATOM     21  C   UNL     1      43.584  21.200  19.521  0.00  0.00    +0.072 C 
ENDBRANCH  17  18
ENDBRANCH  16  17
ENDBRANCH  15  16
ENDBRANCH  13  14
ENDBRANCH  12  13
BRANCH  38  39
ATOM     39  C   UNL     1      49.248  12.330  18.481  0.00  0.00    +0.118 C 
BRANCH  39  40
ATOM     40  C   UNL     1      49.230  12.060  16.998  0.00  0.00    -0.073 C 
ATOM     41  C   UNL     1      48.431  11.144  16.509  0.00  0.00    -0.108 C 
ATOM     42  C   UNL     1      48.446  10.842  15.032  0.00  0.00    +0.071 C 
ATOM     43  C   UNL     1      47.497  10.392  17.423  0.00  0.00    +0.077 C 
ENDBRANCH  39  40
ENDBRANCH  38  39
TORSDOF 16
ENDMDL
MODEL 4
REMARK VINA RESULT:      -5.7      1.612      3.143
REMARK  Name = ZINC95486160
REMARK  24 active torsions:
REMARK  status: ('A' for Active; 'I' for Inactive)
REMARK    1  A    between atoms: C1_1  and  C2_2
REMARK    2  A    between atoms: C2_2  and  C41_48
REMARK    3  A    between atoms: C3_3  and  C4_4
REMARK    4  A    between atoms: C4_4  and  C5_5
REMARK    5  A    between atoms: C5_5  and  C6_6
REMARK    6  A    between atoms: C7_7  and  C8_8
REMARK    7  A    between atoms: C8_8  and  C9_9
REMARK    8  A    between atoms: C11_12  and  C32_39
REMARK    9  A    between atoms: C13_14  and  C25_28
REMARK   10  A    between atoms: C15_17  and  C20_23
REMARK   11  A    between atoms: C17_20  and  C18_21
REMARK   12  A    between atoms: C17_20  and  C19_22
REMARK   13  A    between atoms: C20_23  and  C21_24
REMARK   14  A    between atoms: C22_25  and  C23_26
REMARK   15  A    between atoms: C22_25  and  C24_27
REMARK   16  A    between atoms: C25_28  and  C26_30
REMARK   17  A    between atoms: C29_33  and  O5_37
REMARK   18  A    between atoms: C30_34  and  O4_36
REMARK   19  A    between atoms: C32_39  and  C33_40
REMARK   20  A    between atoms: C34_41  and  C35_42
REMARK   21  A    between atoms: C35_42  and  C36_43
REMARK   22  A    between atoms: C36_43  and  C37_44
REMARK   23  A    between atoms: C38_45  and  C39_46
REMARK   24  A    between atoms: C38_45  and  C40_47
REMARK                            x       y       z     vdW  Elec       q    Type
REMARK                         _______ _______ _______ _____ _____    ______ ____
ROOT
ATOM     10  C   UNL     1      48.250  17.143  20.950  0.00  0.00    -0.001 C 
ATOM     11  C   UNL     1      48.361  16.264  19.718  0.00  0.00    +0.085 C 
ATOM     12  C   UNL     1      48.288  17.009  18.395  0.00  0.00    -0.131 C 
ATOM     22  C   UNL     1      46.893  17.537  18.138  0.00  0.00    +0.396 C 
ATOM     23  O   UNL     1      46.188  16.968  17.321  0.00  0.00    -0.414 OA
ATOM     24  C   UNL     1      46.364  18.741  18.862  0.00  0.00    -0.081 C 
ATOM     37  C   UNL     1      47.430  19.610  19.464  0.00  0.00    +0.394 C 
ATOM     38  C   UNL     1      48.872  19.186  19.595  0.00  0.00    -0.119 C 
ATOM     44  O   UNL     1      47.112  20.729  19.854  0.00  0.00    -0.409 OA
ATOM     45  C   UNL     1      49.195  18.228  18.461  0.00  0.00    +0.382 C 
ATOM     46  O   UNL     1      50.092  18.419  17.677  0.00  0.00    -0.389 OA
ATOM     47  C   UNL     1      49.085  18.414  20.900  0.00  0.00    -0.035 C 
ATOM     48  C   UNL     1      48.706  19.308  22.089  0.00  0.00    +0.046 C 
ATOM     49  C   UNL     1      50.570  18.048  21.030  0.00  0.00    +0.048 C 
ENDROOT
BRANCH  24  25
ATOM     25  C   UNL     1      45.305  18.370  19.862  0.00  0.00    +0.434 C 
ATOM     36  O   UNL     1      45.541  17.541  20.716  0.00  0.00    -0.416 OA
BRANCH  25  26
ATOM     26  C   UNL     1      43.985  19.011  19.807  0.00  0.00    -0.168 A 
ATOM     27  C   UNL     1      43.671  19.882  18.756  0.00  0.00    +0.096 A 
ATOM     28  C   UNL     1      42.433  20.482  18.706  0.00  0.00    +0.002 A 
ATOM     29  C   UNL     1      41.493  20.226  19.697  0.00  0.00    +0.126 A 
ATOM     32  C   UNL     1      41.798  19.359  20.746  0.00  0.00    +0.067 A 
ATOM     35  C   UNL     1      43.035  18.749  20.801  0.00  0.00    +0.086 A 
BRANCH  29  30
ATOM     30  O   UNL     1      40.274  20.821  19.642  0.00  0.00    -0.484 OA
ATOM     31  H   UNL     1      39.673  20.553  20.351  0.00  0.00    +0.396 HD
ENDBRANCH  29  30
BRANCH  32  33
ATOM     33  O   UNL     1      40.875  19.112  21.714  0.00  0.00    -0.482 OA
ATOM     34  H   UNL     1      40.730  19.854  22.318  0.00  0.00    +0.391 HD
ENDBRANCH  32  33
ENDBRANCH  25  26
ENDBRANCH  24  25
BRANCH  10   9
ATOM      9  C   UNL     1      48.714  16.319  22.169  0.00  0.00    +0.066 C 
BRANCH   9   8
ATOM      7  C   UNL     1      47.859  14.033  22.256  0.00  0.00    -0.049 C 
ATOM      8  C   UNL     1      48.768  14.858  21.798  0.00  0.00    -0.046 C 
BRANCH   7   6
ATOM      6  C   UNL     1      47.913  12.573  21.885  0.00  0.00    +0.051 C 
BRANCH   6   5
ATOM      5  C   UNL     1      48.224  12.438  20.393  0.00  0.00    +0.051 C 
BRANCH   5   4
ATOM      1  C   UNL     1      47.723  11.312  17.857  0.00  0.00    +0.072 C 
ATOM      2  C   UNL     1      46.833  12.407  18.387  0.00  0.00    -0.131 C 
ATOM      3  C   UNL     1      45.715  12.948  17.533  0.00  0.00    +0.071 C 
ATOM      4  C   UNL     1      47.032  12.888  19.588  0.00  0.00    -0.063 C 
ENDBRANCH   5   4
ENDBRANCH   6   5
ENDBRANCH   7   6
ENDBRANCH   9   8
ENDBRANCH  10   9
BRANCH  12  13
ATOM     13  C   UNL     1      48.726  16.093  17.235  0.00  0.00    +0.111 C 
BRANCH  13  14
ATOM     14  C   UNL     1      49.365  14.847  17.793  0.00  0.00    -0.065 C 
ATOM     15  C   UNL     1      50.384  14.301  17.177  0.00  0.00    -0.018 C 
BRANCH  15  16
ATOM     16  C   UNL     1      51.023  13.056  17.735  0.00  0.00    +0.048 C 
BRANCH  16  17
ATOM     17  C   UNL     1      51.588  13.351  19.125  0.00  0.00    +0.056 C 
BRANCH  17  18
ATOM     18  C   UNL     1      52.664  14.401  19.018  0.00  0.00    -0.060 C 
ATOM     19  C   UNL     1      53.014  15.092  20.074  0.00  0.00    -0.135 C 
ATOM     20  C   UNL     1      54.108  16.124  19.972  0.00  0.00    +0.070 C 
ATOM     21  C   UNL     1      52.322  14.855  21.392  0.00  0.00    +0.072 C 
ENDBRANCH  17  18
ENDBRANCH  16  17
ENDBRANCH  15  16
ENDBRANCH  13  14
ENDBRANCH  12  13
BRANCH  38  39
ATOM     39  C   UNL     1      49.802  20.411  19.542  0.00  0.00    +0.118 C 
BRANCH  39  40
ATOM     40  C   UNL     1      50.052  20.790  18.104  0.00  0.00    -0.073 C 
ATOM     41  C   UNL     1      51.275  21.010  17.689  0.00  0.00    -0.108 C 
ATOM     42  C   UNL     1      51.521  21.433  16.263  0.00  0.00    +0.071 C 
ATOM     43  C   UNL     1      52.435  20.840  18.635  0.00  0.00    +0.077 C 
ENDBRANCH  39  40
ENDBRANCH  38  39
TORSDOF 16
ENDMDL
MODEL 5
REMARK VINA RESULT:      -5.6      1.333      2.094
REMARK  Name = ZINC95486160
REMARK  24 active torsions:
REMARK  status: ('A' for Active; 'I' for Inactive)
REMARK    1  A    between atoms: C1_1  and  C2_2
REMARK    2  A    between atoms: C2_2  and  C41_48
REMARK    3  A    between atoms: C3_3  and  C4_4
REMARK    4  A    between atoms: C4_4  and  C5_5
REMARK    5  A    between atoms: C5_5  and  C6_6
REMARK    6  A    between atoms: C7_7  and  C8_8
REMARK    7  A    between atoms: C8_8  and  C9_9
REMARK    8  A    between atoms: C11_12  and  C32_39
REMARK    9  A    between atoms: C13_14  and  C25_28
REMARK   10  A    between atoms: C15_17  and  C20_23
REMARK   11  A    between atoms: C17_20  and  C18_21
REMARK   12  A    between atoms: C17_20  and  C19_22
REMARK   13  A    between atoms: C20_23  and  C21_24
REMARK   14  A    between atoms: C22_25  and  C23_26
REMARK   15  A    between atoms: C22_25  and  C24_27
REMARK   16  A    between atoms: C25_28  and  C26_30
REMARK   17  A    between atoms: C29_33  and  O5_37
REMARK   18  A    between atoms: C30_34  and  O4_36
REMARK   19  A    between atoms: C32_39  and  C33_40
REMARK   20  A    between atoms: C34_41  and  C35_42
REMARK   21  A    between atoms: C35_42  and  C36_43
REMARK   22  A    between atoms: C36_43  and  C37_44
REMARK   23  A    between atoms: C38_45  and  C39_46
REMARK   24  A    between atoms: C38_45  and  C40_47
REMARK                            x       y       z     vdW  Elec       q    Type
REMARK                         _______ _______ _______ _____ _____    ______ ____
ROOT
ATOM     10  C   UNL     1      48.522  16.961  20.777  0.00  0.00    -0.001 C 
ATOM     11  C   UNL     1      48.507  16.189  19.472  0.00  0.00    +0.085 C 
ATOM     12  C   UNL     1      48.319  17.044  18.228  0.00  0.00    -0.131 C 
ATOM     22  C   UNL     1      46.913  17.598  18.149  0.00  0.00    +0.396 C 
ATOM     23  O   UNL     1      46.127  17.102  17.358  0.00  0.00    -0.414 OA
ATOM     24  C   UNL     1      46.468  18.737  19.018  0.00  0.00    -0.081 C 
ATOM     37  C   UNL     1      47.596  19.548  19.587  0.00  0.00    +0.394 C 
ATOM     38  C   UNL     1      49.039  19.109  19.546  0.00  0.00    -0.119 C 
ATOM     44  O   UNL     1      47.330  20.632  20.098  0.00  0.00    -0.409 OA
ATOM     45  C   UNL     1      49.243  18.250  18.310  0.00  0.00    +0.382 C 
ATOM     46  O   UNL     1      50.064  18.502  17.463  0.00  0.00    -0.389 OA
ATOM     47  C   UNL     1      49.364  18.229  20.755  0.00  0.00    -0.035 C 
ATOM     48  C   UNL     1      49.109  19.021  22.045  0.00  0.00    +0.046 C 
ATOM     49  C   UNL     1      50.850  17.847  20.714  0.00  0.00    +0.048 C 
ENDROOT
BRANCH  24  25
ATOM     25  C   UNL     1      45.503  18.288  20.079  0.00  0.00    +0.434 C 
ATOM     36  O   UNL     1      45.848  17.467  20.903  0.00  0.00    -0.416 OA
BRANCH  25  26
ATOM     26  C   UNL     1      44.144  18.842  20.119  0.00  0.00    -0.168 A 
ATOM     27  C   UNL     1      43.216  18.360  21.051  0.00  0.00    +0.096 A 
ATOM     28  C   UNL     1      41.942  18.882  21.086  0.00  0.00    +0.002 A 
ATOM     29  C   UNL     1      41.575  19.886  20.200  0.00  0.00    +0.126 A 
ATOM     32  C   UNL     1      42.493  20.371  19.269  0.00  0.00    +0.067 A 
ATOM     35  C   UNL     1      43.774  19.858  19.230  0.00  0.00    +0.086 A 
BRANCH  29  30
ATOM     30  O   UNL     1      40.317  20.395  20.240  0.00  0.00    -0.484 OA
ATOM     31  H   UNL     1      39.867  20.265  21.086  0.00  0.00    +0.396 HD
ENDBRANCH  29  30
BRANCH  32  33
ATOM     33  O   UNL     1      42.128  21.354  18.403  0.00  0.00    -0.482 OA
ATOM     34  H   UNL     1      42.610  22.184  18.523  0.00  0.00    +0.391 HD
ENDBRANCH  32  33
ENDBRANCH  25  26
ENDBRANCH  24  25
BRANCH  10   9
ATOM      9  C   UNL     1      49.089  16.036  21.874  0.00  0.00    +0.066 C 
BRANCH   9   8
ATOM      7  C   UNL     1      49.088  13.611  21.579  0.00  0.00    -0.049 C 
ATOM      8  C   UNL     1      49.606  14.767  21.244  0.00  0.00    -0.046 C 
BRANCH   7   6
ATOM      6  C   UNL     1      49.606  12.344  20.949  0.00  0.00    +0.051 C 
BRANCH   6   5
ATOM      5  C   UNL     1      48.640  11.888  19.853  0.00  0.00    +0.051 C 
BRANCH   5   4
ATOM      1  C   UNL     1      46.960  11.998  17.590  0.00  0.00    +0.072 C 
ATOM      2  C   UNL     1      46.673  12.867  18.787  0.00  0.00    -0.131 C 
ATOM      3  C   UNL     1      45.527  13.845  18.751  0.00  0.00    +0.071 C 
ATOM      4  C   UNL     1      47.419  12.773  19.859  0.00  0.00    -0.063 C 
ENDBRANCH   5   4
ENDBRANCH   6   5
ENDBRANCH   7   6
ENDBRANCH   9   8
ENDBRANCH  10   9
BRANCH  12  13
ATOM     13  C   UNL     1      48.635  16.227  16.960  0.00  0.00    +0.111 C 
BRANCH  13  14
ATOM     14  C   UNL     1      49.223  14.896  17.353  0.00  0.00    -0.065 C 
ATOM     15  C   UNL     1      50.420  14.560  16.940  0.00  0.00    -0.018 C 
BRANCH  15  16
ATOM     16  C   UNL     1      51.008  13.230  17.333  0.00  0.00    +0.048 C 
BRANCH  16  17
ATOM     17  C   UNL     1      50.501  12.147  16.379  0.00  0.00    +0.056 C 
BRANCH  17  18
ATOM     18  C   UNL     1      50.991  12.437  14.984  0.00  0.00    -0.060 C 
ATOM     19  C   UNL     1      50.132  12.621  14.012  0.00  0.00    -0.135 C 
ATOM     20  C   UNL     1      50.623  12.937  12.622  0.00  0.00    +0.070 C 
ATOM     21  C   UNL     1      48.654  12.517  14.285  0.00  0.00    +0.072 C 
ENDBRANCH  17  18
ENDBRANCH  16  17
ENDBRANCH  15  16
ENDBRANCH  13  14
ENDBRANCH  12  13
BRANCH  38  39
ATOM     39  C   UNL     1      49.974  20.331  19.508  0.00  0.00    +0.118 C 
BRANCH  39  40
ATOM     40  C   UNL     1      50.152  20.783  18.081  0.00  0.00    -0.073 C 
ATOM     41  C   UNL     1      51.355  21.000  17.609  0.00  0.00    -0.108 C 
ATOM     42  C   UNL     1      51.530  21.496  16.196  0.00  0.00    +0.071 C 
ATOM     43  C   UNL     1      52.562  20.755  18.477  0.00  0.00    +0.077 C 
ENDBRANCH  39  40
ENDBRANCH  38  39
TORSDOF 16
ENDMDL
MODEL 6
REMARK VINA RESULT:      -5.6      3.539      9.030
REMARK  Name = ZINC95486160
REMARK  24 active torsions:
REMARK  status: ('A' for Active; 'I' for Inactive)
REMARK    1  A    between atoms: C1_1  and  C2_2
REMARK    2  A    between atoms: C2_2  and  C41_48
REMARK    3  A    between atoms: C3_3  and  C4_4
REMARK    4  A    between atoms: C4_4  and  C5_5
REMARK    5  A    between atoms: C5_5  and  C6_6
REMARK    6  A    between atoms: C7_7  and  C8_8
REMARK    7  A    between atoms: C8_8  and  C9_9
REMARK    8  A    between atoms: C11_12  and  C32_39
REMARK    9  A    between atoms: C13_14  and  C25_28
REMARK   10  A    between atoms: C15_17  and  C20_23
REMARK   11  A    between atoms: C17_20  and  C18_21
REMARK   12  A    between atoms: C17_20  and  C19_22
REMARK   13  A    between atoms: C20_23  and  C21_24
REMARK   14  A    between atoms: C22_25  and  C23_26
REMARK   15  A    between atoms: C22_25  and  C24_27
REMARK   16  A    between atoms: C25_28  and  C26_30
REMARK   17  A    between atoms: C29_33  and  O5_37
REMARK   18  A    between atoms: C30_34  and  O4_36
REMARK   19  A    between atoms: C32_39  and  C33_40
REMARK   20  A    between atoms: C34_41  and  C35_42
REMARK   21  A    between atoms: C35_42  and  C36_43
REMARK   22  A    between atoms: C36_43  and  C37_44
REMARK   23  A    between atoms: C38_45  and  C39_46
REMARK   24  A    between atoms: C38_45  and  C40_47
REMARK                            x       y       z     vdW  Elec       q    Type
REMARK                         _______ _______ _______ _____ _____    ______ ____
ROOT
ATOM     10  C   UNL     1      48.175  15.765  17.814  0.00  0.00    -0.001 C 
ATOM     11  C   UNL     1      46.810  15.507  18.424  0.00  0.00    +0.085 C 
ATOM     12  C   UNL     1      46.693  14.198  19.190  0.00  0.00    -0.131 C 
ATOM     22  C   UNL     1      46.720  13.010  18.254  0.00  0.00    +0.396 C 
ATOM     23  O   UNL     1      45.677  12.423  18.014  0.00  0.00    -0.414 OA
ATOM     24  C   UNL     1      47.996  12.540  17.618  0.00  0.00    -0.081 C 
ATOM     37  C   UNL     1      49.237  13.011  18.319  0.00  0.00    +0.394 C 
ATOM     38  C   UNL     1      49.236  14.086  19.378  0.00  0.00    -0.119 C 
ATOM     44  O   UNL     1      50.304  12.482  18.025  0.00  0.00    -0.409 OA
ATOM     45  C   UNL     1      47.901  14.045  20.101  0.00  0.00    +0.382 C 
ATOM     46  O   UNL     1      47.805  13.900  21.295  0.00  0.00    -0.389 OA
ATOM     47  C   UNL     1      49.349  15.471  18.735  0.00  0.00    -0.035 C 
ATOM     48  C   UNL     1      50.652  15.552  17.927  0.00  0.00    +0.046 C 
ATOM     49  C   UNL     1      49.403  16.535  19.840  0.00  0.00    +0.048 C 
ENDROOT
BRANCH  24  25
ATOM     25  C   UNL     1      48.030  12.840  16.146  0.00  0.00    +0.434 C 
ATOM     36  O   UNL     1      47.204  13.584  15.658  0.00  0.00    -0.416 OA
BRANCH  25  26
ATOM     26  C   UNL     1      49.063  12.233  15.296  0.00  0.00    -0.168 A 
ATOM     27  C   UNL     1      49.112  10.843  15.134  0.00  0.00    +0.096 A 
ATOM     28  C   UNL     1      50.081  10.277  14.337  0.00  0.00    +0.002 A 
ATOM     29  C   UNL     1      51.013  11.081  13.693  0.00  0.00    +0.126 A 
ATOM     32  C   UNL     1      50.971  12.466  13.850  0.00  0.00    +0.067 A 
ATOM     35  C   UNL     1      49.999  13.043  14.642  0.00  0.00    +0.086 A 
BRANCH  29  30
ATOM     30  O   UNL     1      51.966  10.516  12.909  0.00  0.00    -0.484 OA
ATOM     31  H   UNL     1      51.849  10.684  11.964  0.00  0.00    +0.396 HD
ENDBRANCH  29  30
BRANCH  32  33
ATOM     33  O   UNL     1      51.886  13.249  13.217  0.00  0.00    -0.482 OA
ATOM     34  H   UNL     1      51.797  13.258  12.254  0.00  0.00    +0.391 HD
ENDBRANCH  32  33
ENDBRANCH  25  26
ENDBRANCH  24  25
BRANCH  10   9
ATOM      9  C   UNL     1      48.247  17.254  17.416  0.00  0.00    +0.066 C 
BRANCH   9   8
ATOM      7  C   UNL     1      46.641  18.937  18.161  0.00  0.00    -0.049 C 
ATOM      8  C   UNL     1      46.864  17.854  17.458  0.00  0.00    -0.046 C 
BRANCH   7   6
ATOM      6  C   UNL     1      45.258  19.535  18.203  0.00  0.00    +0.051 C 
BRANCH   6   5
ATOM      5  C   UNL     1      45.315  20.902  18.888  0.00  0.00    +0.051 C 
BRANCH   5   4
ATOM      1  C   UNL     1      45.176  21.498  21.641  0.00  0.00    +0.072 C 
ATOM      2  C   UNL     1      46.516  21.337  20.969  0.00  0.00    -0.131 C 
ATOM      3  C   UNL     1      47.783  21.560  21.754  0.00  0.00    +0.071 C 
ATOM      4  C   UNL     1      46.578  21.003  19.705  0.00  0.00    -0.063 C 
ENDBRANCH   5   4
ENDBRANCH   6   5
ENDBRANCH   7   6
ENDBRANCH   9   8
ENDBRANCH  10   9
BRANCH  12  13
ATOM     13  C   UNL     1      45.399  14.178  20.027  0.00  0.00    +0.111 C 
BRANCH  13  14
ATOM     14  C   UNL     1      44.989  15.592  20.353  0.00  0.00    -0.065 C 
ATOM     15  C   UNL     1      45.085  16.037  21.581  0.00  0.00    -0.018 C 
BRANCH  15  16
ATOM     16  C   UNL     1      44.675  17.450  21.905  0.00  0.00    +0.048 C 
BRANCH  16  17
ATOM     17  C   UNL     1      43.180  17.623  21.630  0.00  0.00    +0.056 C 
BRANCH  17  18
ATOM     18  C   UNL     1      42.986  18.637  20.533  0.00  0.00    -0.060 C 
ATOM     19  C   UNL     1      41.845  19.273  20.423  0.00  0.00    -0.135 C 
ATOM     20  C   UNL     1      41.660  20.307  19.341  0.00  0.00    +0.070 C 
ATOM     21  C   UNL     1      40.720  18.972  21.378  0.00  0.00    +0.072 C 
ENDBRANCH  17  18
ENDBRANCH  16  17
ENDBRANCH  15  16
ENDBRANCH  13  14
ENDBRANCH  12  13
BRANCH  38  39
ATOM     39  C   UNL     1      50.390  13.864  20.373  0.00  0.00    +0.118 C 
BRANCH  39  40
ATOM     40  C   UNL     1      50.243  12.509  21.018  0.00  0.00    -0.073 C 
ATOM     41  C   UNL     1      51.304  11.772  21.240  0.00  0.00    -0.108 C 
ATOM     42  C   UNL     1      51.153  10.399  21.842  0.00  0.00    +0.071 C 
ATOM     43  C   UNL     1      52.673  12.297  20.893  0.00  0.00    +0.077 C 
ENDBRANCH  39  40
ENDBRANCH  38  39
TORSDOF 16
ENDMDL
MODEL 7
REMARK VINA RESULT:      -5.4      3.172      6.937
REMARK  Name = ZINC95486160
REMARK  24 active torsions:
REMARK  status: ('A' for Active; 'I' for Inactive)
REMARK    1  A    between atoms: C1_1  and  C2_2
REMARK    2  A    between atoms: C2_2  and  C41_48
REMARK    3  A    between atoms: C3_3  and  C4_4
REMARK    4  A    between atoms: C4_4  and  C5_5
REMARK    5  A    between atoms: C5_5  and  C6_6
REMARK    6  A    between atoms: C7_7  and  C8_8
REMARK    7  A    between atoms: C8_8  and  C9_9
REMARK    8  A    between atoms: C11_12  and  C32_39
REMARK    9  A    between atoms: C13_14  and  C25_28
REMARK   10  A    between atoms: C15_17  and  C20_23
REMARK   11  A    between atoms: C17_20  and  C18_21
REMARK   12  A    between atoms: C17_20  and  C19_22
REMARK   13  A    between atoms: C20_23  and  C21_24
REMARK   14  A    between atoms: C22_25  and  C23_26
REMARK   15  A    between atoms: C22_25  and  C24_27
REMARK   16  A    between atoms: C25_28  and  C26_30
REMARK   17  A    between atoms: C29_33  and  O5_37
REMARK   18  A    between atoms: C30_34  and  O4_36
REMARK   19  A    between atoms: C32_39  and  C33_40
REMARK   20  A    between atoms: C34_41  and  C35_42
REMARK   21  A    between atoms: C35_42  and  C36_43
REMARK   22  A    between atoms: C36_43  and  C37_44
REMARK   23  A    between atoms: C38_45  and  C39_46
REMARK   24  A    between atoms: C38_45  and  C40_47
REMARK                            x       y       z     vdW  Elec       q    Type
REMARK                         _______ _______ _______ _____ _____    ______ ____
ROOT
ATOM     10  C   UNL     1      49.614  14.327  19.687  0.00  0.00    -0.001 C 
ATOM     11  C   UNL     1      49.686  13.459  18.445  0.00  0.00    +0.085 C 
ATOM     12  C   UNL     1      51.069  13.348  17.824  0.00  0.00    -0.131 C 
ATOM     22  C   UNL     1      51.489  14.652  17.180  0.00  0.00    +0.396 C 
ATOM     23  O   UNL     1      51.461  14.745  15.964  0.00  0.00    -0.414 OA
ATOM     24  C   UNL     1      51.935  15.825  18.002  0.00  0.00    -0.081 C 
ATOM     37  C   UNL     1      52.368  15.467  19.394  0.00  0.00    +0.394 C 
ATOM     38  C   UNL     1      52.112  14.120  20.023  0.00  0.00    -0.119 C 
ATOM     44  O   UNL     1      52.974  16.310  20.047  0.00  0.00    -0.409 OA
ATOM     45  C   UNL     1      52.086  13.074  18.922  0.00  0.00    +0.382 C 
ATOM     46  O   UNL     1      52.811  12.110  18.915  0.00  0.00    -0.389 OA
ATOM     47  C   UNL     1      50.734  14.094  20.690  0.00  0.00    -0.035 C 
ATOM     48  C   UNL     1      50.671  15.182  21.771  0.00  0.00    +0.046 C 
ATOM     49  C   UNL     1      50.529  12.732  21.368  0.00  0.00    +0.048 C 
ENDROOT
BRANCH  24  25
ATOM     25  C   UNL     1      50.919  16.933  17.993  0.00  0.00    +0.434 C 
ATOM     36  O   UNL     1      49.818  16.750  18.469  0.00  0.00    -0.416 OA
BRANCH  25  26
ATOM     26  C   UNL     1      51.258  18.237  17.409  0.00  0.00    -0.168 A 
ATOM     27  C   UNL     1      51.471  18.355  16.030  0.00  0.00    +0.096 A 
ATOM     28  C   UNL     1      51.790  19.578  15.485  0.00  0.00    +0.002 A 
ATOM     29  C   UNL     1      51.900  20.698  16.300  0.00  0.00    +0.126 A 
ATOM     32  C   UNL     1      51.690  20.588  17.675  0.00  0.00    +0.067 A 
ATOM     35  C   UNL     1      51.365  19.367  18.229  0.00  0.00    +0.086 A 
BRANCH  29  30
ATOM     30  O   UNL     1      52.215  21.901  15.756  0.00  0.00    -0.484 OA
ATOM     31  H   UNL     1      51.484  22.535  15.755  0.00  0.00    +0.396 HD
ENDBRANCH  29  30
BRANCH  32  33
ATOM     33  O   UNL     1      51.800  21.687  18.468  0.00  0.00    -0.482 OA
ATOM     34  H   UNL     1      50.962  22.143  18.628  0.00  0.00    +0.391 HD
ENDBRANCH  32  33
ENDBRANCH  25  26
ENDBRANCH  24  25
BRANCH  10   9
ATOM      9  C   UNL     1      48.275  14.038  20.397  0.00  0.00    +0.066 C 
BRANCH   9   8
ATOM      7  C   UNL     1      46.470  15.657  20.693  0.00  0.00    -0.049 C 
ATOM      8  C   UNL     1      47.212  14.966  19.863  0.00  0.00    -0.046 C 
BRANCH   7   6
ATOM      6  C   UNL     1      45.409  16.584  20.160  0.00  0.00    +0.051 C 
BRANCH   6   5
ATOM      5  C   UNL     1      45.848  17.134  18.801  0.00  0.00    +0.051 C 
BRANCH   5   4
ATOM      1  C   UNL     1      47.643  19.301  18.986  0.00  0.00    +0.072 C 
ATOM      2  C   UNL     1      46.170  19.554  18.789  0.00  0.00    -0.131 C 
ATOM      3  C   UNL     1      45.646  20.967  18.757  0.00  0.00    +0.071 C 
ATOM      4  C   UNL     1      45.346  18.546  18.645  0.00  0.00    -0.063 C 
ENDBRANCH   5   4
ENDBRANCH   6   5
ENDBRANCH   7   6
ENDBRANCH   9   8
ENDBRANCH  10   9
BRANCH  12  13
ATOM     13  C   UNL     1      51.103  12.212  16.783  0.00  0.00    +0.111 C 
BRANCH  13  14
ATOM     14  C   UNL     1      49.752  11.548  16.719  0.00  0.00    -0.065 C 
ATOM     15  C   UNL     1      49.353  10.977  15.610  0.00  0.00    -0.018 C 
BRANCH  15  16
ATOM     16  C   UNL     1      48.002  10.313  15.546  0.00  0.00    +0.048 C 
BRANCH  16  17
ATOM     17  C   UNL     1      46.928  11.368  15.275  0.00  0.00    +0.056 C 
BRANCH  17  18
ATOM     18  C   UNL     1      46.074  11.542  16.504  0.00  0.00    -0.060 C 
ATOM     19  C   UNL     1      45.970  12.720  17.068  0.00  0.00    -0.135 C 
ATOM     20  C   UNL     1      45.094  12.900  18.282  0.00  0.00    +0.070 C 
ATOM     21  C   UNL     1      46.727  13.895  16.504  0.00  0.00    +0.072 C 
ENDBRANCH  17  18
ENDBRANCH  16  17
ENDBRANCH  15  16
ENDBRANCH  13  14
ENDBRANCH  12  13
BRANCH  38  39
ATOM     39  C   UNL     1      53.208  13.787  21.051  0.00  0.00    +0.118 C 
BRANCH  39  40
ATOM     40  C   UNL     1      54.548  13.745  20.361  0.00  0.00    -0.073 C 
ATOM     41  C   UNL     1      55.587  14.320  20.914  0.00  0.00    -0.108 C 
ATOM     42  C   UNL     1      56.916  14.318  20.203  0.00  0.00    +0.071 C 
ATOM     43  C   UNL     1      55.454  14.982  22.261  0.00  0.00    +0.077 C 
ENDBRANCH  39  40
ENDBRANCH  38  39
TORSDOF 16
ENDMDL
MODEL 8
REMARK VINA RESULT:      -5.4      1.953      7.104
REMARK  Name = ZINC95486160
REMARK  24 active torsions:
REMARK  status: ('A' for Active; 'I' for Inactive)
REMARK    1  A    between atoms: C1_1  and  C2_2
REMARK    2  A    between atoms: C2_2  and  C41_48
REMARK    3  A    between atoms: C3_3  and  C4_4
REMARK    4  A    between atoms: C4_4  and  C5_5
REMARK    5  A    between atoms: C5_5  and  C6_6
REMARK    6  A    between atoms: C7_7  and  C8_8
REMARK    7  A    between atoms: C8_8  and  C9_9
REMARK    8  A    between atoms: C11_12  and  C32_39
REMARK    9  A    between atoms: C13_14  and  C25_28
REMARK   10  A    between atoms: C15_17  and  C20_23
REMARK   11  A    between atoms: C17_20  and  C18_21
REMARK   12  A    between atoms: C17_20  and  C19_22
REMARK   13  A    between atoms: C20_23  and  C21_24
REMARK   14  A    between atoms: C22_25  and  C23_26
REMARK   15  A    between atoms: C22_25  and  C24_27
REMARK   16  A    between atoms: C25_28  and  C26_30
REMARK   17  A    between atoms: C29_33  and  O5_37
REMARK   18  A    between atoms: C30_34  and  O4_36
REMARK   19  A    between atoms: C32_39  and  C33_40
REMARK   20  A    between atoms: C34_41  and  C35_42
REMARK   21  A    between atoms: C35_42  and  C36_43
REMARK   22  A    between atoms: C36_43  and  C37_44
REMARK   23  A    between atoms: C38_45  and  C39_46
REMARK   24  A    between atoms: C38_45  and  C40_47
REMARK                            x       y       z     vdW  Elec       q    Type
REMARK                         _______ _______ _______ _____ _____    ______ ____
ROOT
ATOM     10  C   UNL     1      48.332  15.153  20.003  0.00  0.00    -0.001 C 
ATOM     11  C   UNL     1      47.141  15.522  20.866  0.00  0.00    +0.085 C 
ATOM     12  C   UNL     1      45.789  15.363  20.188  0.00  0.00    -0.131 C 
ATOM     22  C   UNL     1      45.588  16.409  19.113  0.00  0.00    +0.396 C 
ATOM     23  O   UNL     1      44.843  17.349  19.336  0.00  0.00    -0.414 OA
ATOM     24  C   UNL     1      46.281  16.314  17.786  0.00  0.00    -0.081 C 
ATOM     37  C   UNL     1      46.777  14.936  17.453  0.00  0.00    +0.394 C 
ATOM     38  C   UNL     1      46.846  13.813  18.457  0.00  0.00    -0.119 C 
ATOM     44  O   UNL     1      47.130  14.711  16.300  0.00  0.00    -0.409 OA
ATOM     45  C   UNL     1      45.743  14.017  19.482  0.00  0.00    +0.382 C 
ATOM     46  O   UNL     1      44.899  13.187  19.714  0.00  0.00    -0.389 OA
ATOM     47  C   UNL     1      48.172  13.857  19.221  0.00  0.00    -0.035 C 
ATOM     48  C   UNL     1      49.336  13.726  18.228  0.00  0.00    +0.046 C 
ATOM     49  C   UNL     1      48.234  12.670  20.191  0.00  0.00    +0.048 C 
ENDROOT
BRANCH  24  25
ATOM     25  C   UNL     1      47.359  17.352  17.642  0.00  0.00    +0.434 C 
ATOM     36  O   UNL     1      48.268  17.178  16.858  0.00  0.00    -0.416 OA
BRANCH  25  26
ATOM     26  C   UNL     1      47.310  18.578  18.449  0.00  0.00    -0.168 A 
ATOM     27  C   UNL     1      48.165  18.729  19.548  0.00  0.00    +0.096 A 
ATOM     28  C   UNL     1      48.118  19.880  20.303  0.00  0.00    +0.002 A 
ATOM     29  C   UNL     1      47.223  20.892  19.978  0.00  0.00    +0.126 A 
ATOM     32  C   UNL     1      46.368  20.748  18.885  0.00  0.00    +0.067 A 
ATOM     35  C   UNL     1      46.413  19.601  18.119  0.00  0.00    +0.086 A 
BRANCH  29  30
ATOM     30  O   UNL     1      47.181  22.023  20.727  0.00  0.00    -0.484 OA
ATOM     31  H   UNL     1      47.323  21.874  21.673  0.00  0.00    +0.396 HD
ENDBRANCH  29  30
BRANCH  32  33
ATOM     33  O   UNL     1      45.494  21.741  18.572  0.00  0.00    -0.482 OA
ATOM     34  H   UNL     1      45.774  22.619  18.867  0.00  0.00    +0.391 HD
ENDBRANCH  32  33
ENDBRANCH  25  26
ENDBRANCH  24  25
BRANCH  10   9
ATOM      9  C   UNL     1      49.562  15.001  20.923  0.00  0.00    +0.066 C 
BRANCH   9   8
ATOM      7  C   UNL     1      51.126  16.610  19.960  0.00  0.00    -0.049 C 
ATOM      8  C   UNL     1      50.331  16.298  20.953  0.00  0.00    -0.046 C 
BRANCH   7   6
ATOM      6  C   UNL     1      51.894  17.906  19.990  0.00  0.00    +0.051 C 
BRANCH   6   5
ATOM      5  C   UNL     1      52.606  18.109  18.651  0.00  0.00    +0.051 C 
BRANCH   5   4
ATOM      1  C   UNL     1      51.612  18.446  16.033  0.00  0.00    +0.072 C 
ATOM      2  C   UNL     1      51.902  19.650  16.893  0.00  0.00    -0.131 C 
ATOM      3  C   UNL     1      51.725  21.037  16.330  0.00  0.00    +0.071 C 
ATOM      4  C   UNL     1      52.308  19.491  18.127  0.00  0.00    -0.063 C 
ENDBRANCH   5   4
ENDBRANCH   6   5
ENDBRANCH   7   6
ENDBRANCH   9   8
ENDBRANCH  10   9
BRANCH  12  13
ATOM     13  C   UNL     1      44.653  15.451  21.226  0.00  0.00    +0.111 C 
BRANCH  13  14
ATOM     14  C   UNL     1      44.421  16.893  21.598  0.00  0.00    -0.065 C 
ATOM     15  C   UNL     1      43.223  17.299  21.937  0.00  0.00    -0.018 C 
BRANCH  15  16
ATOM     16  C   UNL     1      42.992  18.740  22.309  0.00  0.00    +0.048 C 
BRANCH  16  17
ATOM     17  C   UNL     1      43.188  19.623  21.075  0.00  0.00    +0.056 C 
BRANCH  17  18
ATOM     18  C   UNL     1      42.119  19.313  20.060  0.00  0.00    -0.060 C 
ATOM     19  C   UNL     1      41.703  20.246  19.240  0.00  0.00    -0.135 C 
ATOM     20  C   UNL     1      40.652  19.928  18.207  0.00  0.00    +0.070 C 
ATOM     21  C   UNL     1      42.276  21.637  19.329  0.00  0.00    +0.072 C 
ENDBRANCH  17  18
ENDBRANCH  16  17
ENDBRANCH  15  16
ENDBRANCH  13  14
ENDBRANCH  12  13
BRANCH  38  39
ATOM     39  C   UNL     1      46.679  12.452  17.758  0.00  0.00    +0.118 C 
BRANCH  39  40
ATOM     40  C   UNL     1      45.242  12.277  17.336  0.00  0.00    -0.073 C 
ATOM     41  C   UNL     1      44.940  11.446  16.369  0.00  0.00    -0.108 C 
ATOM     42  C   UNL     1      43.509  11.305  15.917  0.00  0.00    +0.071 C 
ATOM     43  C   UNL     1      46.023  10.631  15.709  0.00  0.00    +0.077 C 
ENDBRANCH  39  40
ENDBRANCH  38  39
TORSDOF 16
ENDMDL
MODEL 9
REMARK VINA RESULT:      -5.3      3.807      8.043
REMARK  Name = ZINC95486160
REMARK  24 active torsions:
REMARK  status: ('A' for Active; 'I' for Inactive)
REMARK    1  A    between atoms: C1_1  and  C2_2
REMARK    2  A    between atoms: C2_2  and  C41_48
REMARK    3  A    between atoms: C3_3  and  C4_4
REMARK    4  A    between atoms: C4_4  and  C5_5
REMARK    5  A    between atoms: C5_5  and  C6_6
REMARK    6  A    between atoms: C7_7  and  C8_8
REMARK    7  A    between atoms: C8_8  and  C9_9
REMARK    8  A    between atoms: C11_12  and  C32_39
REMARK    9  A    between atoms: C13_14  and  C25_28
REMARK   10  A    between atoms: C15_17  and  C20_23
REMARK   11  A    between atoms: C17_20  and  C18_21
REMARK   12  A    between atoms: C17_20  and  C19_22
REMARK   13  A    between atoms: C20_23  and  C21_24
REMARK   14  A    between atoms: C22_25  and  C23_26
REMARK   15  A    between atoms: C22_25  and  C24_27
REMARK   16  A    between atoms: C25_28  and  C26_30
REMARK   17  A    between atoms: C29_33  and  O5_37
REMARK   18  A    between atoms: C30_34  and  O4_36
REMARK   19  A    between atoms: C32_39  and  C33_40
REMARK   20  A    between atoms: C34_41  and  C35_42
REMARK   21  A    between atoms: C35_42  and  C36_43
REMARK   22  A    between atoms: C36_43  and  C37_44
REMARK   23  A    between atoms: C38_45  and  C39_46
REMARK   24  A    between atoms: C38_45  and  C40_47
REMARK                            x       y       z     vdW  Elec       q    Type
REMARK                         _______ _______ _______ _____ _____    ______ ____
ROOT
ATOM     10  C   UNL     1      50.183  15.351  17.967  0.00  0.00    -0.001 C 
ATOM     11  C   UNL     1      49.421  14.837  19.174  0.00  0.00    +0.085 C 
ATOM     12  C   UNL     1      49.673  15.608  20.461  0.00  0.00    -0.131 C 
ATOM     22  C   UNL     1      51.071  15.359  20.986  0.00  0.00    +0.396 C 
ATOM     23  O   UNL     1      51.218  14.623  21.947  0.00  0.00    -0.414 OA
ATOM     24  C   UNL     1      52.272  15.996  20.352  0.00  0.00    -0.081 C 
ATOM     37  C   UNL     1      51.955  17.203  19.516  0.00  0.00    +0.394 C 
ATOM     38  C   UNL     1      50.554  17.581  19.101  0.00  0.00    -0.119 C 
ATOM     44  O   UNL     1      52.882  17.925  19.167  0.00  0.00    -0.409 OA
ATOM     45  C   UNL     1      49.590  17.099  20.172  0.00  0.00    +0.382 C 
ATOM     46  O   UNL     1      48.827  17.835  20.747  0.00  0.00    -0.389 OA
ATOM     47  C   UNL     1      50.169  16.864  17.804  0.00  0.00    -0.035 C 
ATOM     48  C   UNL     1      51.153  17.256  16.694  0.00  0.00    +0.046 C 
ATOM     49  C   UNL     1      48.764  17.314  17.380  0.00  0.00    +0.048 C 
ENDROOT
BRANCH  24  25
ATOM     25  C   UNL     1      53.107  14.995  19.604  0.00  0.00    +0.434 C 
ATOM     36  O   UNL     1      52.615  14.346  18.704  0.00  0.00    -0.416 OA
BRANCH  25  26
ATOM     26  C   UNL     1      54.518  14.801  19.962  0.00  0.00    -0.168 A 
ATOM     27  C   UNL     1      54.945  13.582  20.503  0.00  0.00    +0.096 A 
ATOM     28  C   UNL     1      56.268  13.403  20.838  0.00  0.00    +0.002 A 
ATOM     29  C   UNL     1      57.183  14.430  20.640  0.00  0.00    +0.126 A 
ATOM     32  C   UNL     1      56.766  15.647  20.101  0.00  0.00    +0.067 A 
ATOM     35  C   UNL     1      55.442  15.833  19.758  0.00  0.00    +0.086 A 
BRANCH  29  30
ATOM     30  O   UNL     1      58.486  14.247  20.972  0.00  0.00    -0.484 OA
ATOM     31  H   UNL     1      58.627  13.581  21.660  0.00  0.00    +0.396 HD
ENDBRANCH  29  30
BRANCH  32  33
ATOM     33  O   UNL     1      57.665  16.649  19.910  0.00  0.00    -0.482 OA
ATOM     34  H   UNL     1      58.579  16.345  19.816  0.00  0.00    +0.391 HD
ENDBRANCH  32  33
ENDBRANCH  25  26
ENDBRANCH  24  25
BRANCH  10   9
ATOM      9  C   UNL     1      49.548  14.734  16.703  0.00  0.00    +0.066 C 
BRANCH   9   8
ATOM      7  C   UNL     1      51.297  13.605  15.424  0.00  0.00    -0.049 C 
ATOM      8  C   UNL     1      50.326  13.506  16.299  0.00  0.00    -0.046 C 
BRANCH   7   6
ATOM      6  C   UNL     1      52.073  12.379  15.020  0.00  0.00    +0.051 C 
BRANCH   6   5
ATOM      5  C   UNL     1      51.667  11.203  15.911  0.00  0.00    +0.051 C 
BRANCH   5   4
ATOM      1  C   UNL     1      51.378  11.036  18.711  0.00  0.00    +0.072 C 
ATOM      2  C   UNL     1      52.718  10.775  18.073  0.00  0.00    -0.131 C 
ATOM      3  C   UNL     1      53.921  10.490  18.936  0.00  0.00    +0.071 C 
ATOM      4  C   UNL     1      52.838  10.795  16.769  0.00  0.00    -0.063 C 
ENDBRANCH   5   4
ENDBRANCH   6   5
ENDBRANCH   7   6
ENDBRANCH   9   8
ENDBRANCH  10   9
BRANCH  12  13
ATOM     13  C   UNL     1      48.633  15.223  21.532  0.00  0.00    +0.111 C 
BRANCH  13  14
ATOM     14  C   UNL     1      47.447  14.571  20.869  0.00  0.00    -0.065 C 
ATOM     15  C   UNL     1      46.396  15.286  20.555  0.00  0.00    -0.018 C 
BRANCH  15  16
ATOM     16  C   UNL     1      45.210  14.634  19.892  0.00  0.00    +0.048 C 
BRANCH  16  17
ATOM     17  C   UNL     1      45.557  13.188  19.535  0.00  0.00    +0.056 C 
BRANCH  17  18
ATOM     18  C   UNL     1      45.700  13.060  18.041  0.00  0.00    -0.060 C 
ATOM     19  C   UNL     1      46.700  12.382  17.533  0.00  0.00    -0.135 C 
ATOM     20  C   UNL     1      46.828  12.233  16.039  0.00  0.00    +0.070 C 
ATOM     21  C   UNL     1      47.721  11.751  18.445  0.00  0.00    +0.072 C 
ENDBRANCH  17  18
ENDBRANCH  16  17
ENDBRANCH  15  16
ENDBRANCH  13  14
ENDBRANCH  12  13
BRANCH  38  39
ATOM     39  C   UNL     1      50.437  19.105  18.923  0.00  0.00    +0.118 C 
BRANCH  39  40
ATOM     40  C   UNL     1      50.623  19.782  20.257  0.00  0.00    -0.073 C 
ATOM     41  C   UNL     1      51.409  20.826  20.357  0.00  0.00    -0.108 C 
ATOM     42  C   UNL     1      51.631  21.475  21.699  0.00  0.00    +0.071 C 
ATOM     43  C   UNL     1      52.090  21.377  19.131  0.00  0.00    +0.077 C 
ENDBRANCH  39  40
ENDBRANCH  38  39
TORSDOF 16
ENDMDL
