MODEL 1
REMARK VINA RESULT:      -4.9      0.000      0.000
REMARK  Name = ZINC04096339
REMARK  8 active torsions:
REMARK  status: ('A' for Active; 'I' for Inactive)
REMARK    1  A    between atoms: C1_1  and  C2_2
REMARK    2  A    between atoms: C6_7  and  C12_16
REMARK    3  A    between atoms: C6_7  and  C13_17
REMARK    4  A    between atoms: C7_8  and  C8_9
REMARK    5  A    between atoms: C7_8  and  O3_15
REMARK    6  A    between atoms: C9_10  and  C10_11
REMARK    7  A    between atoms: C10_11  and  C11_13
REMARK    8  A    between atoms: C10_11  and  O2_14
REMARK                            x       y       z     vdW  Elec       q    Type
REMARK                         _______ _______ _______ _____ _____    ______ ____
ROOT
ATOM      1  C   UNL     1      45.489  19.271  18.115  0.00  0.00    +0.095 C 
ATOM      2  C   UNL     1      45.954  20.224  19.186  0.00  0.00    -0.072 C 
ATOM      3  C   UNL     1      47.212  20.143  19.600  0.00  0.00    -0.074 C 
ATOM      4  C   UNL     1      47.714  21.040  20.646  0.00  0.00    +0.387 C 
ATOM      5  C   UNL     1      46.845  22.217  21.042  0.00  0.00    +0.049 C 
ATOM      6  C   UNL     1      45.396  21.712  21.114  0.00  0.00    -0.036 C 
ATOM      7  C   UNL     1      44.478  22.853  21.554  0.00  0.00    +0.053 C 
ATOM      8  C   UNL     1      45.305  20.561  22.117  0.00  0.00    +0.041 C 
ATOM      9  O   UNL     1      48.787  20.847  21.178  0.00  0.00    -0.453 OA
ATOM     10  C   UNL     1      44.974  21.223  19.727  0.00  0.00    +0.206 C 
ENDROOT
BRANCH  10  11
ATOM     11  O   UNL     1      44.900  22.336  18.834  0.00  0.00    -0.537 OA
ATOM     12  H   UNL     1      45.637  22.958  18.918  0.00  0.00    +0.379 HD
ENDBRANCH  10  11
BRANCH  10  13
ATOM     13  C   UNL     1      43.615  20.578  19.825  0.00  0.00    -0.048 C 
ATOM     14  C   UNL     1      42.610  21.059  19.137  0.00  0.00    -0.007 C 
BRANCH  14  15
ATOM     15  C   UNL     1      41.252  20.414  19.235  0.00  0.00    +0.187 C 
ATOM     18  C   UNL     1      40.188  21.385  18.719  0.00  0.00    +0.011 C 
BRANCH  15  16
ATOM     16  O   UNL     1      40.977  20.088  20.600  0.00  0.00    -0.563 OA
ATOM     17  H   UNL     1      40.925  20.857  21.184  0.00  0.00    +0.381 HD
ENDBRANCH  15  16
ENDBRANCH  14  15
ENDBRANCH  10  13
TORSDOF 4
ENDMDL
MODEL 2
REMARK VINA RESULT:      -4.9      1.638      2.775
REMARK  Name = ZINC04096339
REMARK  8 active torsions:
REMARK  status: ('A' for Active; 'I' for Inactive)
REMARK    1  A    between atoms: C1_1  and  C2_2
REMARK    2  A    between atoms: C6_7  and  C12_16
REMARK    3  A    between atoms: C6_7  and  C13_17
REMARK    4  A    between atoms: C7_8  and  C8_9
REMARK    5  A    between atoms: C7_8  and  O3_15
REMARK    6  A    between atoms: C9_10  and  C10_11
REMARK    7  A    between atoms: C10_11  and  C11_13
REMARK    8  A    between atoms: C10_11  and  O2_14
REMARK                            x       y       z     vdW  Elec       q    Type
REMARK                         _______ _______ _______ _____ _____    ______ ____
ROOT
ATOM      1  C   UNL     1      43.863  23.205  19.686  0.00  0.00    +0.095 C 
ATOM      2  C   UNL     1      44.616  21.922  19.930  0.00  0.00    -0.072 C 
ATOM      3  C   UNL     1      45.942  21.967  19.968  0.00  0.00    -0.074 C 
ATOM      4  C   UNL     1      46.725  20.747  20.192  0.00  0.00    +0.387 C 
ATOM      5  C   UNL     1      45.981  19.504  20.638  0.00  0.00    +0.049 C 
ATOM      6  C   UNL     1      44.686  19.428  19.817  0.00  0.00    -0.036 C 
ATOM      7  C   UNL     1      43.914  18.163  20.196  0.00  0.00    +0.053 C 
ATOM      8  C   UNL     1      45.027  19.395  18.326  0.00  0.00    +0.041 C 
ATOM      9  O   UNL     1      47.927  20.732  20.026  0.00  0.00    -0.453 OA
ATOM     10  C   UNL     1      43.832  20.659  20.124  0.00  0.00    +0.206 C 
ENDROOT
BRANCH  10  11
ATOM     11  O   UNL     1      43.377  20.594  21.478  0.00  0.00    -0.537 OA
ATOM     12  H   UNL     1      44.052  20.298  22.106  0.00  0.00    +0.379 HD
ENDBRANCH  10  11
BRANCH  10  13
ATOM     13  C   UNL     1      42.638  20.672  19.204  0.00  0.00    -0.048 C 
ATOM     14  C   UNL     1      41.436  20.851  19.692  0.00  0.00    -0.007 C 
BRANCH  14  15
ATOM     15  C   UNL     1      40.243  20.864  18.772  0.00  0.00    +0.187 C 
ATOM     18  C   UNL     1      40.396  19.760  17.723  0.00  0.00    +0.011 C 
BRANCH  15  16
ATOM     16  O   UNL     1      40.160  22.133  18.119  0.00  0.00    -0.563 OA
ATOM     17  H   UNL     1      40.637  22.174  17.279  0.00  0.00    +0.381 HD
ENDBRANCH  15  16
ENDBRANCH  14  15
ENDBRANCH  10  13
TORSDOF 4
ENDMDL
MODEL 3
REMARK VINA RESULT:      -4.6      2.805      4.539
REMARK  Name = ZINC04096339
REMARK  8 active torsions:
REMARK  status: ('A' for Active; 'I' for Inactive)
REMARK    1  A    between atoms: C1_1  and  C2_2
REMARK    2  A    between atoms: C6_7  and  C12_16
REMARK    3  A    between atoms: C6_7  and  C13_17
REMARK    4  A    between atoms: C7_8  and  C8_9
REMARK    5  A    between atoms: C7_8  and  O3_15
REMARK    6  A    between atoms: C9_10  and  C10_11
REMARK    7  A    between atoms: C10_11  and  C11_13
REMARK    8  A    between atoms: C10_11  and  O2_14
REMARK                            x       y       z     vdW  Elec       q    Type
REMARK                         _______ _______ _______ _____ _____    ______ ____
ROOT
ATOM      1  C   UNL     1      42.859  19.202  22.505  0.00  0.00    +0.095 C 
ATOM      2  C   UNL     1      43.719  18.485  21.496  0.00  0.00    -0.072 C 
ATOM      3  C   UNL     1      43.861  17.170  21.609  0.00  0.00    -0.074 C 
ATOM      4  C   UNL     1      44.694  16.424  20.660  0.00  0.00    +0.387 C 
ATOM      5  C   UNL     1      45.161  17.147  19.413  0.00  0.00    +0.049 C 
ATOM      6  C   UNL     1      45.584  18.561  19.836  0.00  0.00    -0.036 C 
ATOM      7  C   UNL     1      46.108  19.324  18.618  0.00  0.00    +0.053 C 
ATOM      8  C   UNL     1      46.680  18.472  20.898  0.00  0.00    +0.041 C 
ATOM      9  O   UNL     1      45.000  15.268  20.866  0.00  0.00    -0.453 OA
ATOM     10  C   UNL     1      44.367  19.290  20.409  0.00  0.00    +0.206 C 
ENDROOT
BRANCH  10  11
ATOM     11  O   UNL     1      43.417  19.519  19.366  0.00  0.00    -0.537 OA
ATOM     12  H   UNL     1      42.508  19.286  19.604  0.00  0.00    +0.379 HD
ENDBRANCH  10  11
BRANCH  10  13
ATOM     13  C   UNL     1      44.809  20.616  20.974  0.00  0.00    -0.048 C 
ATOM     14  C   UNL     1      44.395  21.732  20.425  0.00  0.00    -0.007 C 
BRANCH  14  15
ATOM     15  C   UNL     1      44.837  23.057  20.990  0.00  0.00    +0.187 C 
ATOM     18  C   UNL     1      46.308  22.971  21.403  0.00  0.00    +0.011 C 
BRANCH  15  16
ATOM     16  O   UNL     1      44.039  23.378  22.132  0.00  0.00    -0.563 OA
ATOM     17  H   UNL     1      44.550  23.677  22.896  0.00  0.00    +0.381 HD
ENDBRANCH  15  16
ENDBRANCH  14  15
ENDBRANCH  10  13
TORSDOF 4
ENDMDL
MODEL 4
REMARK VINA RESULT:      -4.5     20.893     22.224
REMARK  Name = ZINC04096339
REMARK  8 active torsions:
REMARK  status: ('A' for Active; 'I' for Inactive)
REMARK    1  A    between atoms: C1_1  and  C2_2
REMARK    2  A    between atoms: C6_7  and  C12_16
REMARK    3  A    between atoms: C6_7  and  C13_17
REMARK    4  A    between atoms: C7_8  and  C8_9
REMARK    5  A    between atoms: C7_8  and  O3_15
REMARK    6  A    between atoms: C9_10  and  C10_11
REMARK    7  A    between atoms: C10_11  and  C11_13
REMARK    8  A    between atoms: C10_11  and  O2_14
REMARK                            x       y       z     vdW  Elec       q    Type
REMARK                         _______ _______ _______ _____ _____    ______ ____
ROOT
ATOM      1  C   UNL     1      54.248  32.065   2.729  0.00  0.00    +0.095 C 
ATOM      2  C   UNL     1      53.155  32.638   3.594  0.00  0.00    -0.072 C 
ATOM      3  C   UNL     1      51.927  32.713   3.094  0.00  0.00    -0.074 C 
ATOM      4  C   UNL     1      50.829  33.269   3.890  0.00  0.00    +0.387 C 
ATOM      5  C   UNL     1      51.076  33.505   5.366  0.00  0.00    +0.049 C 
ATOM      6  C   UNL     1      52.484  34.102   5.504  0.00  0.00    -0.036 C 
ATOM      7  C   UNL     1      52.770  34.402   6.976  0.00  0.00    +0.053 C 
ATOM      8  C   UNL     1      52.574  35.394   4.689  0.00  0.00    +0.041 C 
ATOM      9  O   UNL     1      49.758  33.535   3.384  0.00  0.00    -0.453 OA
ATOM     10  C   UNL     1      53.504  33.089   4.981  0.00  0.00    +0.206 C 
ENDROOT
BRANCH  10  11
ATOM     11  O   UNL     1      53.532  31.954   5.850  0.00  0.00    -0.537 OA
ATOM     12  H   UNL     1      53.758  32.166   6.766  0.00  0.00    +0.379 HD
ENDBRANCH  10  11
BRANCH  10  13
ATOM     13  C   UNL     1      54.869  33.730   4.963  0.00  0.00    -0.048 C 
ATOM     14  C   UNL     1      55.832  33.241   5.704  0.00  0.00    -0.007 C 
BRANCH  14  15
ATOM     15  C   UNL     1      57.196  33.882   5.685  0.00  0.00    +0.187 C 
ATOM     18  C   UNL     1      57.228  34.981   4.621  0.00  0.00    +0.011 C 
BRANCH  15  16
ATOM     16  O   UNL     1      58.182  32.893   5.379  0.00  0.00    -0.563 OA
ATOM     17  H   UNL     1      57.962  32.007   5.697  0.00  0.00    +0.381 HD
ENDBRANCH  15  16
ENDBRANCH  14  15
ENDBRANCH  10  13
TORSDOF 4
ENDMDL
MODEL 5
REMARK VINA RESULT:      -4.4      1.868      3.146
REMARK  Name = ZINC04096339
REMARK  8 active torsions:
REMARK  status: ('A' for Active; 'I' for Inactive)
REMARK    1  A    between atoms: C1_1  and  C2_2
REMARK    2  A    between atoms: C6_7  and  C12_16
REMARK    3  A    between atoms: C6_7  and  C13_17
REMARK    4  A    between atoms: C7_8  and  C8_9
REMARK    5  A    between atoms: C7_8  and  O3_15
REMARK    6  A    between atoms: C9_10  and  C10_11
REMARK    7  A    between atoms: C10_11  and  C11_13
REMARK    8  A    between atoms: C10_11  and  O2_14
REMARK                            x       y       z     vdW  Elec       q    Type
REMARK                         _______ _______ _______ _____ _____    ______ ____
ROOT
ATOM      1  C   UNL     1      44.740  21.846  21.206  0.00  0.00    +0.095 C 
ATOM      2  C   UNL     1      45.597  20.746  20.634  0.00  0.00    -0.072 C 
ATOM      3  C   UNL     1      46.808  21.056  20.188  0.00  0.00    -0.074 C 
ATOM      4  C   UNL     1      47.680  20.026  19.614  0.00  0.00    +0.387 C 
ATOM      5  C   UNL     1      47.269  18.578  19.788  0.00  0.00    +0.049 C 
ATOM      6  C   UNL     1      45.754  18.501  19.549  0.00  0.00    -0.036 C 
ATOM      7  C   UNL     1      45.291  17.048  19.668  0.00  0.00    +0.053 C 
ATOM      8  C   UNL     1      45.429  19.032  18.152  0.00  0.00    +0.041 C 
ATOM      9  O   UNL     1      48.695  20.323  19.019  0.00  0.00    -0.453 OA
ATOM     10  C   UNL     1      45.044  19.352  20.603  0.00  0.00    +0.206 C 
ENDROOT
BRANCH  10  11
ATOM     11  O   UNL     1      45.214  18.752  21.889  0.00  0.00    -0.537 OA
ATOM     12  H   UNL     1      46.051  18.279  21.995  0.00  0.00    +0.379 HD
ENDBRANCH  10  11
BRANCH  10  13
ATOM     13  C   UNL     1      43.573  19.412  20.278  0.00  0.00    -0.048 C 
ATOM     14  C   UNL     1      42.693  18.967  21.140  0.00  0.00    -0.007 C 
BRANCH  14  15
ATOM     15  C   UNL     1      41.223  19.027  20.814  0.00  0.00    +0.187 C 
ATOM     18  C   UNL     1      40.997  19.997  19.653  0.00  0.00    +0.011 C 
BRANCH  15  16
ATOM     16  O   UNL     1      40.499  19.481  21.961  0.00  0.00    -0.563 OA
ATOM     17  H   UNL     1      40.827  19.125  22.798  0.00  0.00    +0.381 HD
ENDBRANCH  15  16
ENDBRANCH  14  15
ENDBRANCH  10  13
TORSDOF 4
ENDMDL
MODEL 6
REMARK VINA RESULT:      -4.4     20.915     21.847
REMARK  Name = ZINC04096339
REMARK  8 active torsions:
REMARK  status: ('A' for Active; 'I' for Inactive)
REMARK    1  A    between atoms: C1_1  and  C2_2
REMARK    2  A    between atoms: C6_7  and  C12_16
REMARK    3  A    between atoms: C6_7  and  C13_17
REMARK    4  A    between atoms: C7_8  and  C8_9
REMARK    5  A    between atoms: C7_8  and  O3_15
REMARK    6  A    between atoms: C9_10  and  C10_11
REMARK    7  A    between atoms: C10_11  and  C11_13
REMARK    8  A    between atoms: C10_11  and  O2_14
REMARK                            x       y       z     vdW  Elec       q    Type
REMARK                         _______ _______ _______ _____ _____    ______ ____
ROOT
ATOM      1  C   UNL     1      52.851  34.732   6.908  0.00  0.00    +0.095 C 
ATOM      2  C   UNL     1      53.963  34.106   6.106  0.00  0.00    -0.072 C 
ATOM      3  C   UNL     1      55.215  34.433   6.402  0.00  0.00    -0.074 C 
ATOM      4  C   UNL     1      56.335  33.861   5.647  0.00  0.00    +0.387 C 
ATOM      5  C   UNL     1      56.039  32.703   4.715  0.00  0.00    +0.049 C 
ATOM      6  C   UNL     1      54.727  33.028   3.986  0.00  0.00    -0.036 C 
ATOM      7  C   UNL     1      54.402  31.908   2.996  0.00  0.00    +0.053 C 
ATOM      8  C   UNL     1      54.873  34.353   3.235  0.00  0.00    +0.041 C 
ATOM      9  O   UNL     1      57.460  34.300   5.763  0.00  0.00    -0.453 OA
ATOM     10  C   UNL     1      53.603  33.139   5.018  0.00  0.00    +0.206 C 
ENDROOT
BRANCH  10  11
ATOM     11  O   UNL     1      53.359  31.854   5.594  0.00  0.00    -0.537 OA
ATOM     12  H   UNL     1      53.549  31.806   6.542  0.00  0.00    +0.379 HD
ENDBRANCH  10  11
BRANCH  10  13
ATOM     13  C   UNL     1      52.349  33.616   4.329  0.00  0.00    -0.048 C 
ATOM     14  C   UNL     1      51.317  32.817   4.221  0.00  0.00    -0.007 C 
BRANCH  14  15
ATOM     15  C   UNL     1      50.064  33.293   3.533  0.00  0.00    +0.187 C 
ATOM     18  C   UNL     1      50.421  33.857   2.156  0.00  0.00    +0.011 C 
BRANCH  15  16
ATOM     16  O   UNL     1      49.447  34.315   4.321  0.00  0.00    -0.563 OA
ATOM     17  H   UNL     1      49.966  34.584   5.091  0.00  0.00    +0.381 HD
ENDBRANCH  15  16
ENDBRANCH  14  15
ENDBRANCH  10  13
TORSDOF 4
ENDMDL
MODEL 7
REMARK VINA RESULT:      -4.3      8.233     10.822
REMARK  Name = ZINC04096339
REMARK  8 active torsions:
REMARK  status: ('A' for Active; 'I' for Inactive)
REMARK    1  A    between atoms: C1_1  and  C2_2
REMARK    2  A    between atoms: C6_7  and  C12_16
REMARK    3  A    between atoms: C6_7  and  C13_17
REMARK    4  A    between atoms: C7_8  and  C8_9
REMARK    5  A    between atoms: C7_8  and  O3_15
REMARK    6  A    between atoms: C9_10  and  C10_11
REMARK    7  A    between atoms: C10_11  and  C11_13
REMARK    8  A    between atoms: C10_11  and  O2_14
REMARK                            x       y       z     vdW  Elec       q    Type
REMARK                         _______ _______ _______ _____ _____    ______ ____
ROOT
ATOM      1  C   UNL     1      49.010  14.958  17.146  0.00  0.00    +0.095 C 
ATOM      2  C   UNL     1      47.833  14.017  17.156  0.00  0.00    -0.072 C 
ATOM      3  C   UNL     1      46.977  14.088  18.169  0.00  0.00    -0.074 C 
ATOM      4  C   UNL     1      45.820  13.190  18.233  0.00  0.00    +0.387 C 
ATOM      5  C   UNL     1      45.489  12.376  16.998  0.00  0.00    +0.049 C 
ATOM      6  C   UNL     1      46.815  11.856  16.425  0.00  0.00    -0.036 C 
ATOM      7  C   UNL     1      46.536  10.987  15.197  0.00  0.00    +0.053 C 
ATOM      8  C   UNL     1      47.542  11.028  17.487  0.00  0.00    +0.041 C 
ATOM      9  O   UNL     1      45.150  13.099  19.241  0.00  0.00    -0.453 OA
ATOM     10  C   UNL     1      47.681  13.050  16.020  0.00  0.00    +0.206 C 
ENDROOT
BRANCH  10  11
ATOM     11  O   UNL     1      47.074  13.721  14.913  0.00  0.00    -0.537 OA
ATOM     12  H   UNL     1      46.384  14.350  15.164  0.00  0.00    +0.379 HD
ENDBRANCH  10  11
BRANCH  10  13
ATOM     13  C   UNL     1      49.043  12.553  15.608  0.00  0.00    -0.048 C 
ATOM     14  C   UNL     1      49.461  12.727  14.379  0.00  0.00    -0.007 C 
BRANCH  14  15
ATOM     15  C   UNL     1      50.823  12.230  13.969  0.00  0.00    +0.187 C 
ATOM     18  C   UNL     1      51.814  13.396  13.973  0.00  0.00    +0.011 C 
BRANCH  15  16
ATOM     16  O   UNL     1      50.750  11.672  12.655  0.00  0.00    -0.563 OA
ATOM     17  H   UNL     1      50.241  10.852  12.604  0.00  0.00    +0.381 HD
ENDBRANCH  15  16
ENDBRANCH  14  15
ENDBRANCH  10  13
TORSDOF 4
ENDMDL
MODEL 8
REMARK VINA RESULT:      -4.3      3.084      6.244
REMARK  Name = ZINC04096339
REMARK  8 active torsions:
REMARK  status: ('A' for Active; 'I' for Inactive)
REMARK    1  A    between atoms: C1_1  and  C2_2
REMARK    2  A    between atoms: C6_7  and  C12_16
REMARK    3  A    between atoms: C6_7  and  C13_17
REMARK    4  A    between atoms: C7_8  and  C8_9
REMARK    5  A    between atoms: C7_8  and  O3_15
REMARK    6  A    between atoms: C9_10  and  C10_11
REMARK    7  A    between atoms: C10_11  and  C11_13
REMARK    8  A    between atoms: C10_11  and  O2_14
REMARK                            x       y       z     vdW  Elec       q    Type
REMARK                         _______ _______ _______ _____ _____    ______ ____
ROOT
ATOM      1  C   UNL     1      48.941  17.710  17.967  0.00  0.00    +0.095 C 
ATOM      2  C   UNL     1      47.899  18.361  18.839  0.00  0.00    -0.072 C 
ATOM      3  C   UNL     1      46.676  17.844  18.856  0.00  0.00    -0.074 C 
ATOM      4  C   UNL     1      45.622  18.444  19.680  0.00  0.00    +0.387 C 
ATOM      5  C   UNL     1      46.032  19.489  20.697  0.00  0.00    +0.049 C 
ATOM      6  C   UNL     1      47.071  20.398  20.025  0.00  0.00    -0.036 C 
ATOM      7  C   UNL     1      47.488  21.503  20.997  0.00  0.00    +0.053 C 
ATOM      8  C   UNL     1      46.468  21.021  18.765  0.00  0.00    +0.041 C 
ATOM      9  O   UNL     1      44.461  18.116  19.551  0.00  0.00    -0.453 OA
ATOM     10  C   UNL     1      48.294  19.558  19.652  0.00  0.00    +0.206 C 
ENDROOT
BRANCH  10  11
ATOM     11  O   UNL     1      48.949  19.119  20.844  0.00  0.00    -0.537 OA
ATOM     12  H   UNL     1      48.688  18.234  21.133  0.00  0.00    +0.379 HD
ENDBRANCH  10  11
BRANCH  10  13
ATOM     13  C   UNL     1      49.247  20.407  18.850  0.00  0.00    -0.048 C 
ATOM     14  C   UNL     1      50.490  20.543  19.239  0.00  0.00    -0.007 C 
BRANCH  14  15
ATOM     15  C   UNL     1      51.443  21.391  18.437  0.00  0.00    +0.187 C 
ATOM     18  C   UNL     1      51.393  20.964  16.969  0.00  0.00    +0.011 C 
BRANCH  15  16
ATOM     16  O   UNL     1      52.771  21.220  18.938  0.00  0.00    -0.563 OA
ATOM     17  H   UNL     1      53.307  20.600  18.425  0.00  0.00    +0.381 HD
ENDBRANCH  15  16
ENDBRANCH  14  15
ENDBRANCH  10  13
TORSDOF 4
ENDMDL
MODEL 9
REMARK VINA RESULT:      -4.2     21.211     22.521
REMARK  Name = ZINC04096339
REMARK  8 active torsions:
REMARK  status: ('A' for Active; 'I' for Inactive)
REMARK    1  A    between atoms: C1_1  and  C2_2
REMARK    2  A    between atoms: C6_7  and  C12_16
REMARK    3  A    between atoms: C6_7  and  C13_17
REMARK    4  A    between atoms: C7_8  and  C8_9
REMARK    5  A    between atoms: C7_8  and  O3_15
REMARK    6  A    between atoms: C9_10  and  C10_11
REMARK    7  A    between atoms: C10_11  and  C11_13
REMARK    8  A    between atoms: C10_11  and  O2_14
REMARK                            x       y       z     vdW  Elec       q    Type
REMARK                         _______ _______ _______ _____ _____    ______ ____
ROOT
ATOM      1  C   UNL     1      56.458  34.047   5.984  0.00  0.00    +0.095 C 
ATOM      2  C   UNL     1      54.977  34.240   5.780  0.00  0.00    -0.072 C 
ATOM      3  C   UNL     1      54.281  34.841   6.737  0.00  0.00    -0.074 C 
ATOM      4  C   UNL     1      52.836  35.045   6.594  0.00  0.00    +0.387 C 
ATOM      5  C   UNL     1      52.220  34.795   5.232  0.00  0.00    +0.049 C 
ATOM      6  C   UNL     1      52.859  33.517   4.670  0.00  0.00    -0.036 C 
ATOM      7  C   UNL     1      52.239  33.191   3.310  0.00  0.00    +0.053 C 
ATOM      8  C   UNL     1      52.619  32.356   5.637  0.00  0.00    +0.041 C 
ATOM      9  O   UNL     1      52.156  35.401   7.534  0.00  0.00    -0.453 OA
ATOM     10  C   UNL     1      54.362  33.748   4.503  0.00  0.00    +0.206 C 
ENDROOT
BRANCH  10  11
ATOM     11  O   UNL     1      54.581  34.717   3.475  0.00  0.00    -0.537 OA
ATOM     12  H   UNL     1      55.243  35.386   3.700  0.00  0.00    +0.379 HD
ENDBRANCH  10  11
BRANCH  10  13
ATOM     13  C   UNL     1      55.018  32.451   4.106  0.00  0.00    -0.048 C 
ATOM     14  C   UNL     1      55.827  32.414   3.077  0.00  0.00    -0.007 C 
BRANCH  14  15
ATOM     15  C   UNL     1      56.483  31.116   2.680  0.00  0.00    +0.187 C 
ATOM     18  C   UNL     1      57.999  31.238   2.853  0.00  0.00    +0.011 C 
BRANCH  15  16
ATOM     16  O   UNL     1      56.181  30.828   1.313  0.00  0.00    -0.563 OA
ATOM     17  H   UNL     1      55.600  31.477   0.894  0.00  0.00    +0.381 HD
ENDBRANCH  15  16
ENDBRANCH  14  15
ENDBRANCH  10  13
TORSDOF 4
ENDMDL
