MODEL 1
REMARK VINA RESULT:      -6.8      0.000      0.000
REMARK  Name = ZINC95486217
REMARK  1 active torsions:
REMARK  status: ('A' for Active; 'I' for Inactive)
REMARK    1  A    between atoms: C17_20  and  C18_21
REMARK                            x       y       z     vdW  Elec       q    Type
REMARK                         _______ _______ _______ _____ _____    ______ ____
ROOT
ATOM      1  C   UNL     1      46.517  18.688  17.382  0.00  0.00    -0.098 A 
ATOM      2  C   UNL     1      47.483  17.848  16.841  0.00  0.00    -0.020 A 
ATOM      3  C   UNL     1      47.736  16.625  17.392  0.00  0.00    -0.008 A 
ATOM      4  C   UNL     1      47.014  16.209  18.517  0.00  0.00    +0.048 A 
ATOM      5  C   UNL     1      46.033  17.064  19.066  0.00  0.00    -0.125 A 
ATOM      6  C   UNL     1      45.281  16.621  20.245  0.00  0.00    +0.044 A 
ATOM      7  C   UNL     1      45.555  15.356  20.802  0.00  0.00    -0.095 A 
ATOM      8  C   UNL     1      44.832  14.924  21.940  0.00  0.00    +0.060 A 
ATOM      9  C   UNL     1      45.134  13.601  22.505  0.00  0.00    -0.263 A 
ATOM     10  C   UNL     1      46.078  12.843  21.933  0.00  0.00    +0.258 A 
ATOM     11  N   UNL     1      46.775  13.267  20.829  0.00  0.00    -0.585 NA
ATOM     12  C   UNL     1      43.861  15.746  22.494  0.00  0.00    -0.099 A 
ATOM     13  C   UNL     1      43.596  16.994  21.937  0.00  0.00    +0.070 A 
ATOM     14  O   UNL     1      42.703  17.961  22.300  0.00  0.00    -0.326 OA
ATOM     15  C   UNL     1      42.580  18.823  21.153  0.00  0.00    +0.387 C 
ATOM     16  O   UNL     1      43.846  18.677  20.483  0.00  0.00    -0.310 OA
ATOM     17  C   UNL     1      46.537  14.507  20.248  0.00  0.00    +0.217 A 
ATOM     18  C   UNL     1      44.297  17.434  20.821  0.00  0.00    -0.081 A 
ATOM     19  C   UNL     1      47.262  14.903  19.132  0.00  0.00    -0.118 A 
ATOM     40  C   UNL     1      45.797  18.309  18.480  0.00  0.00    +0.044 A 
ENDROOT
BRANCH  19  20
ATOM     20  C   UNL     1      48.287  14.005  18.564  0.00  0.00    -0.118 A 
ATOM     21  C   UNL     1      47.917  13.041  17.526  0.00  0.00    +0.047 A 
ATOM     22  C   UNL     1      46.600  12.953  17.060  0.00  0.00    -0.008 A 
ATOM     23  C   UNL     1      46.284  12.043  16.092  0.00  0.00    -0.020 A 
ATOM     24  C   UNL     1      47.253  11.201  15.562  0.00  0.00    -0.097 A 
ATOM     25  C   UNL     1      48.547  11.264  15.996  0.00  0.00    +0.044 A 
ATOM     26  C   UNL     1      48.901  12.183  16.984  0.00  0.00    -0.125 A 
ATOM     27  C   UNL     1      50.280  12.283  17.478  0.00  0.00    +0.044 A 
ATOM     28  C   UNL     1      50.588  13.225  18.478  0.00  0.00    -0.095 A 
ATOM     29  C   UNL     1      51.917  13.324  18.958  0.00  0.00    +0.060 A 
ATOM     30  C   UNL     1      52.901  12.494  18.440  0.00  0.00    -0.099 A 
ATOM     31  C   UNL     1      52.588  11.566  17.452  0.00  0.00    +0.070 A 
ATOM     32  O   UNL     1      53.373  10.657  16.800  0.00  0.00    -0.326 OA
ATOM     33  C   UNL     1      52.629  10.277  15.627  0.00  0.00    +0.387 C 
ATOM     34  O   UNL     1      51.257  10.478  16.016  0.00  0.00    -0.310 OA
ATOM     35  C   UNL     1      52.220  14.326  19.991  0.00  0.00    -0.263 A 
ATOM     36  C   UNL     1      51.235  15.104  20.459  0.00  0.00    +0.257 A 
ATOM     37  N   UNL     1      49.948  15.001  19.992  0.00  0.00    -0.585 NA
ATOM     38  C   UNL     1      51.290  11.456  16.970  0.00  0.00    -0.081 A 
ATOM     39  C   UNL     1      49.599  14.082  19.010  0.00  0.00    +0.217 A 
ENDBRANCH  19  20
TORSDOF 1
ENDMDL
MODEL 2
REMARK VINA RESULT:      -6.6      3.803      7.582
REMARK  Name = ZINC95486217
REMARK  1 active torsions:
REMARK  status: ('A' for Active; 'I' for Inactive)
REMARK    1  A    between atoms: C17_20  and  C18_21
REMARK                            x       y       z     vdW  Elec       q    Type
REMARK                         _______ _______ _______ _____ _____    ______ ____
ROOT
ATOM      1  C   UNL     1      52.774  17.697  18.707  0.00  0.00    -0.098 A 
ATOM      2  C   UNL     1      51.595  17.264  18.110  0.00  0.00    -0.020 A 
ATOM      3  C   UNL     1      51.303  15.934  18.019  0.00  0.00    -0.008 A 
ATOM      4  C   UNL     1      52.201  14.990  18.533  0.00  0.00    +0.048 A 
ATOM      5  C   UNL     1      53.398  15.431  19.139  0.00  0.00    -0.125 A 
ATOM      6  C   UNL     1      54.333  14.436  19.676  0.00  0.00    +0.044 A 
ATOM      7  C   UNL     1      54.017  13.067  19.573  0.00  0.00    -0.095 A 
ATOM      8  C   UNL     1      54.916  12.103  20.088  0.00  0.00    +0.060 A 
ATOM      9  C   UNL     1      54.567  10.680  19.970  0.00  0.00    -0.263 A 
ATOM     10  C   UNL     1      53.414  10.333  19.383  0.00  0.00    +0.258 A 
ATOM     11  N   UNL     1      52.545  11.274  18.885  0.00  0.00    -0.585 NA
ATOM     12  C   UNL     1      56.097  12.513  20.691  0.00  0.00    -0.099 A 
ATOM     13  C   UNL     1      56.401  13.868  20.789  0.00  0.00    +0.070 A 
ATOM     14  O   UNL     1      57.483  14.503  21.330  0.00  0.00    -0.326 OA
ATOM     15  C   UNL     1      57.074  15.870  21.519  0.00  0.00    +0.387 C 
ATOM     16  O   UNL     1      56.064  16.064  20.512  0.00  0.00    -0.310 OA
ATOM     17  C   UNL     1      52.818  12.634  18.965  0.00  0.00    +0.217 A 
ATOM     18  C   UNL     1      55.530  14.827  20.287  0.00  0.00    -0.081 A 
ATOM     19  C   UNL     1      51.917  13.556  18.450  0.00  0.00    -0.118 A 
ATOM     40  C   UNL     1      53.669  16.799  19.217  0.00  0.00    +0.044 A 
ENDROOT
BRANCH  19  20
ATOM     20  C   UNL     1      50.667  13.088  17.817  0.00  0.00    -0.118 A 
ATOM     21  C   UNL     1      50.690  12.588  16.441  0.00  0.00    +0.047 A 
ATOM     22  C   UNL     1      51.882  12.547  15.708  0.00  0.00    -0.008 A 
ATOM     23  C   UNL     1      51.872  12.077  14.426  0.00  0.00    -0.020 A 
ATOM     24  C   UNL     1      50.693  11.640  13.837  0.00  0.00    -0.097 A 
ATOM     25  C   UNL     1      49.514  11.667  14.527  0.00  0.00    +0.044 A 
ATOM     26  C   UNL     1      49.492  12.142  15.839  0.00  0.00    -0.125 A 
ATOM     27  C   UNL     1      48.247  12.188  16.615  0.00  0.00    +0.044 A 
ATOM     28  C   UNL     1      48.275  12.677  17.935  0.00  0.00    -0.095 A 
ATOM     29  C   UNL     1      47.075  12.725  18.687  0.00  0.00    +0.060 A 
ATOM     30  C   UNL     1      45.887  12.289  18.119  0.00  0.00    -0.099 A 
ATOM     31  C   UNL     1      45.868  11.807  16.814  0.00  0.00    +0.070 A 
ATOM     32  O   UNL     1      44.838  11.331  16.052  0.00  0.00    -0.326 OA
ATOM     33  C   UNL     1      45.459  10.605  14.974  0.00  0.00    +0.387 C 
ATOM     34  O   UNL     1      46.740  11.246  14.828  0.00  0.00    -0.310 OA
ATOM     35  C   UNL     1      47.130  13.224  20.069  0.00  0.00    -0.263 A 
ATOM     36  C   UNL     1      48.302  13.633  20.573  0.00  0.00    +0.257 A 
ATOM     37  N   UNL     1      49.461  13.588  19.838  0.00  0.00    -0.585 NA
ATOM     38  C   UNL     1      47.035  11.754  16.062  0.00  0.00    -0.081 A 
ATOM     39  C   UNL     1      49.477  13.117  18.531  0.00  0.00    +0.217 A 
ENDBRANCH  19  20
TORSDOF 1
ENDMDL
MODEL 3
REMARK VINA RESULT:      -6.6      2.605      8.598
REMARK  Name = ZINC95486217
REMARK  1 active torsions:
REMARK  status: ('A' for Active; 'I' for Inactive)
REMARK    1  A    between atoms: C17_20  and  C18_21
REMARK                            x       y       z     vdW  Elec       q    Type
REMARK                         _______ _______ _______ _____ _____    ______ ____
ROOT
ATOM      1  C   UNL     1      47.914  13.597  15.919  0.00  0.00    -0.098 A 
ATOM      2  C   UNL     1      47.319  14.753  16.411  0.00  0.00    -0.020 A 
ATOM      3  C   UNL     1      47.915  15.481  17.401  0.00  0.00    -0.008 A 
ATOM      4  C   UNL     1      49.141  15.059  17.929  0.00  0.00    +0.048 A 
ATOM      5  C   UNL     1      49.744  13.885  17.427  0.00  0.00    -0.125 A 
ATOM      6  C   UNL     1      51.030  13.450  17.984  0.00  0.00    +0.044 A 
ATOM      7  C   UNL     1      51.631  14.212  19.006  0.00  0.00    -0.095 A 
ATOM      8  C   UNL     1      52.871  13.796  19.548  0.00  0.00    +0.060 A 
ATOM      9  C   UNL     1      53.481  14.605  20.613  0.00  0.00    -0.263 A 
ATOM     10  C   UNL     1      52.853  15.708  21.041  0.00  0.00    +0.258 A 
ATOM     11  N   UNL     1      51.650  16.107  20.510  0.00  0.00    -0.585 NA
ATOM     12  C   UNL     1      53.483  12.646  19.068  0.00  0.00    -0.099 A 
ATOM     13  C   UNL     1      52.883  11.900  18.059  0.00  0.00    +0.070 A 
ATOM     14  O   UNL     1      53.287  10.754  17.435  0.00  0.00    -0.326 OA
ATOM     15  C   UNL     1      52.508  10.675  16.228  0.00  0.00    +0.387 C 
ATOM     16  O   UNL     1      51.304  11.395  16.554  0.00  0.00    -0.310 OA
ATOM     17  C   UNL     1      51.022  15.385  19.502  0.00  0.00    +0.217 A 
ATOM     18  C   UNL     1      51.666  12.293  17.517  0.00  0.00    -0.081 A 
ATOM     19  C   UNL     1      49.806  15.817  18.991  0.00  0.00    -0.118 A 
ATOM     40  C   UNL     1      49.110  13.162  16.415  0.00  0.00    +0.044 A 
ENDROOT
BRANCH  19  20
ATOM     20  C   UNL     1      49.181  17.046  19.520  0.00  0.00    -0.118 A 
ATOM     21  C   UNL     1      49.605  18.354  19.017  0.00  0.00    +0.047 A 
ATOM     22  C   UNL     1      50.601  18.464  18.040  0.00  0.00    -0.008 A 
ATOM     23  C   UNL     1      50.977  19.697  17.592  0.00  0.00    -0.020 A 
ATOM     24  C   UNL     1      50.385  20.849  18.094  0.00  0.00    -0.097 A 
ATOM     25  C   UNL     1      49.410  20.775  19.049  0.00  0.00    +0.044 A 
ATOM     26  C   UNL     1      49.004  19.528  19.527  0.00  0.00    -0.125 A 
ATOM     27  C   UNL     1      47.960  19.404  20.551  0.00  0.00    +0.044 A 
ATOM     28  C   UNL     1      47.585  18.124  21.003  0.00  0.00    -0.095 A 
ATOM     29  C   UNL     1      46.579  18.001  21.992  0.00  0.00    +0.060 A 
ATOM     30  C   UNL     1      45.972  19.138  22.505  0.00  0.00    -0.099 A 
ATOM     31  C   UNL     1      46.348  20.399  22.053  0.00  0.00    +0.070 A 
ATOM     32  O   UNL     1      45.902  21.643  22.402  0.00  0.00    -0.326 OA
ATOM     33  C   UNL     1      46.332  22.518  21.342  0.00  0.00    +0.387 C 
ATOM     34  O   UNL     1      47.508  21.868  20.823  0.00  0.00    -0.310 OA
ATOM     35  C   UNL     1      46.192  16.654  22.438  0.00  0.00    -0.263 A 
ATOM     36  C   UNL     1      46.807  15.587  21.912  0.00  0.00    +0.257 A 
ATOM     37  N   UNL     1      47.785  15.713  20.956  0.00  0.00    -0.585 NA
ATOM     38  C   UNL     1      47.333  20.538  21.083  0.00  0.00    -0.081 A 
ATOM     39  C   UNL     1      48.188  16.957  20.486  0.00  0.00    +0.217 A 
ENDBRANCH  19  20
TORSDOF 1
ENDMDL
MODEL 4
REMARK VINA RESULT:      -6.6      3.616      8.923
REMARK  Name = ZINC95486217
REMARK  1 active torsions:
REMARK  status: ('A' for Active; 'I' for Inactive)
REMARK    1  A    between atoms: C17_20  and  C18_21
REMARK                            x       y       z     vdW  Elec       q    Type
REMARK                         _______ _______ _______ _____ _____    ______ ____
ROOT
ATOM      1  C   UNL     1      51.840  17.236  16.119  0.00  0.00    -0.098 A 
ATOM      2  C   UNL     1      51.258  18.437  16.506  0.00  0.00    -0.020 A 
ATOM      3  C   UNL     1      50.416  18.495  17.579  0.00  0.00    -0.008 A 
ATOM      4  C   UNL     1      50.133  17.329  18.301  0.00  0.00    +0.048 A 
ATOM      5  C   UNL     1      50.725  16.109  17.906  0.00  0.00    -0.125 A 
ATOM      6  C   UNL     1      50.424  14.892  18.668  0.00  0.00    +0.044 A 
ATOM      7  C   UNL     1      49.552  14.967  19.772  0.00  0.00    -0.095 A 
ATOM      8  C   UNL     1      49.257  13.796  20.510  0.00  0.00    +0.060 A 
ATOM      9  C   UNL     1      48.345  13.897  21.658  0.00  0.00    -0.263 A 
ATOM     10  C   UNL     1      47.819  15.088  21.975  0.00  0.00    +0.258 A 
ATOM     11  N   UNL     1      48.110  16.221  21.256  0.00  0.00    -0.585 NA
ATOM     12  C   UNL     1      49.830  12.586  20.142  0.00  0.00    -0.099 A 
ATOM     13  C   UNL     1      50.691  12.520  19.051  0.00  0.00    +0.070 A 
ATOM     14  O   UNL     1      51.364  11.463  18.507  0.00  0.00    -0.326 OA
ATOM     15  C   UNL     1      52.393  12.042  17.685  0.00  0.00    +0.387 C 
ATOM     16  O   UNL     1      51.849  13.320  17.309  0.00  0.00    -0.310 OA
ATOM     17  C   UNL     1      48.964  16.191  20.160  0.00  0.00    +0.217 A 
ATOM     18  C   UNL     1      50.989  13.660  18.315  0.00  0.00    -0.081 A 
ATOM     19  C   UNL     1      49.233  17.357  19.456  0.00  0.00    -0.118 A 
ATOM     40  C   UNL     1      51.582  16.082  16.804  0.00  0.00    +0.044 A 
ENDROOT
BRANCH  19  20
ATOM     20  C   UNL     1      48.611  18.629  19.873  0.00  0.00    -0.118 A 
ATOM     21  C   UNL     1      49.326  19.527  20.782  0.00  0.00    +0.047 A 
ATOM     22  C   UNL     1      50.597  19.199  21.269  0.00  0.00    -0.008 A 
ATOM     23  C   UNL     1      51.238  20.055  22.117  0.00  0.00    -0.020 A 
ATOM     24  C   UNL     1      50.647  21.249  22.505  0.00  0.00    -0.097 A 
ATOM     25  C   UNL     1      49.407  21.598  22.047  0.00  0.00    +0.044 A 
ATOM     26  C   UNL     1      48.726  20.743  21.179  0.00  0.00    -0.125 A 
ATOM     27  C   UNL     1      47.394  21.080  20.664  0.00  0.00    +0.044 A 
ATOM     28  C   UNL     1      46.745  20.185  19.792  0.00  0.00    -0.095 A 
ATOM     29  C   UNL     1      45.459  20.505  19.294  0.00  0.00    +0.060 A 
ATOM     30  C   UNL     1      44.851  21.695  19.666  0.00  0.00    -0.099 A 
ATOM     31  C   UNL     1      45.499  22.575  20.528  0.00  0.00    +0.070 A 
ATOM     32  O   UNL     1      45.108  23.785  21.029  0.00  0.00    -0.326 OA
ATOM     33  C   UNL     1      46.313  24.410  21.510  0.00  0.00    +0.387 C 
ATOM     34  O   UNL     1      47.164  23.296  21.841  0.00  0.00    -0.310 OA
ATOM     35  C   UNL     1      44.806  19.564  18.371  0.00  0.00    -0.263 A 
ATOM     36  C   UNL     1      45.434  18.428  18.040  0.00  0.00    +0.257 A 
ATOM     37  N   UNL     1      46.680  18.120  18.531  0.00  0.00    -0.585 NA
ATOM     38  C   UNL     1      46.760  22.275  21.027  0.00  0.00    -0.081 A 
ATOM     39  C   UNL     1      47.353  18.973  19.397  0.00  0.00    +0.217 A 
ENDBRANCH  19  20
TORSDOF 1
ENDMDL
MODEL 5
REMARK VINA RESULT:      -6.6      2.566      2.999
REMARK  Name = ZINC95486217
REMARK  1 active torsions:
REMARK  status: ('A' for Active; 'I' for Inactive)
REMARK    1  A    between atoms: C17_20  and  C18_21
REMARK                            x       y       z     vdW  Elec       q    Type
REMARK                         _______ _______ _______ _____ _____    ______ ____
ROOT
ATOM      1  C   UNL     1      50.273  20.871  18.157  0.00  0.00    -0.098 A 
ATOM      2  C   UNL     1      50.892  19.729  17.660  0.00  0.00    -0.020 A 
ATOM      3  C   UNL     1      50.531  18.489  18.101  0.00  0.00    -0.008 A 
ATOM      4  C   UNL     1      49.524  18.362  19.066  0.00  0.00    +0.048 A 
ATOM      5  C   UNL     1      48.896  19.523  19.569  0.00  0.00    -0.125 A 
ATOM      6  C   UNL     1      47.842  19.382  20.579  0.00  0.00    +0.044 A 
ATOM      7  C   UNL     1      47.481  18.094  21.024  0.00  0.00    -0.095 A 
ATOM      8  C   UNL     1      46.465  17.952  21.999  0.00  0.00    +0.060 A 
ATOM      9  C   UNL     1      46.104  16.601  22.449  0.00  0.00    -0.263 A 
ATOM     10  C   UNL     1      46.742  15.543  21.928  0.00  0.00    +0.258 A 
ATOM     11  N   UNL     1      47.727  15.688  20.982  0.00  0.00    -0.585 NA
ATOM     12  C   UNL     1      45.832  19.079  22.505  0.00  0.00    -0.099 A 
ATOM     13  C   UNL     1      46.194  20.347  22.060  0.00  0.00    +0.070 A 
ATOM     14  O   UNL     1      45.722  21.582  22.404  0.00  0.00    -0.326 OA
ATOM     15  C   UNL     1      46.155  22.467  21.355  0.00  0.00    +0.387 C 
ATOM     16  O   UNL     1      47.346  21.836  20.849  0.00  0.00    -0.310 OA
ATOM     17  C   UNL     1      48.113  16.938  20.516  0.00  0.00    +0.217 A 
ATOM     18  C   UNL     1      47.190  20.504  21.104  0.00  0.00    -0.081 A 
ATOM     19  C   UNL     1      49.114  17.045  19.559  0.00  0.00    -0.118 A 
ATOM     40  C   UNL     1      49.288  20.778  19.099  0.00  0.00    +0.044 A 
ENDROOT
BRANCH  19  20
ATOM     20  C   UNL     1      49.766  15.828  19.037  0.00  0.00    -0.118 A 
ATOM     21  C   UNL     1      49.129  15.062  17.964  0.00  0.00    +0.047 A 
ATOM     22  C   UNL     1      47.903  15.464  17.421  0.00  0.00    -0.008 A 
ATOM     23  C   UNL     1      47.332  14.729  16.422  0.00  0.00    -0.020 A 
ATOM     24  C   UNL     1      47.951  13.585  15.937  0.00  0.00    -0.097 A 
ATOM     25  C   UNL     1      49.148  13.167  16.446  0.00  0.00    +0.044 A 
ATOM     26  C   UNL     1      49.757  13.897  17.468  0.00  0.00    -0.125 A 
ATOM     27  C   UNL     1      51.042  13.484  18.043  0.00  0.00    +0.044 A 
ATOM     28  C   UNL     1      51.617  14.252  19.073  0.00  0.00    -0.095 A 
ATOM     29  C   UNL     1      52.856  13.855  19.632  0.00  0.00    +0.060 A 
ATOM     30  C   UNL     1      53.493  12.717  19.159  0.00  0.00    -0.099 A 
ATOM     31  C   UNL     1      52.920  11.964  18.140  0.00  0.00    +0.070 A 
ATOM     32  O   UNL     1      53.351  10.824  17.520  0.00  0.00    -0.326 OA
ATOM     33  C   UNL     1      52.590  10.738  16.300  0.00  0.00    +0.387 C 
ATOM     34  O   UNL     1      51.370  11.436  16.612  0.00  0.00    -0.310 OA
ATOM     35  C   UNL     1      53.445  14.682  20.696  0.00  0.00    -0.263 A 
ATOM     36  C   UNL     1      52.792  15.772  21.118  0.00  0.00    +0.257 A 
ATOM     37  N   UNL     1      51.588  16.149  20.576  0.00  0.00    -0.585 NA
ATOM     38  C   UNL     1      51.704  12.339  17.582  0.00  0.00    -0.081 A 
ATOM     39  C   UNL     1      50.984  15.417  19.561  0.00  0.00    +0.217 A 
ENDBRANCH  19  20
TORSDOF 1
ENDMDL
MODEL 6
REMARK VINA RESULT:      -6.6      2.635      4.244
REMARK  Name = ZINC95486217
REMARK  1 active torsions:
REMARK  status: ('A' for Active; 'I' for Inactive)
REMARK    1  A    between atoms: C17_20  and  C18_21
REMARK                            x       y       z     vdW  Elec       q    Type
REMARK                         _______ _______ _______ _____ _____    ______ ____
ROOT
ATOM      1  C   UNL     1      50.338  20.892  18.101  0.00  0.00    -0.098 A 
ATOM      2  C   UNL     1      50.966  19.763  17.587  0.00  0.00    -0.020 A 
ATOM      3  C   UNL     1      50.631  18.514  18.025  0.00  0.00    -0.008 A 
ATOM      4  C   UNL     1      49.642  18.365  19.004  0.00  0.00    +0.048 A 
ATOM      5  C   UNL     1      49.005  19.513  19.525  0.00  0.00    -0.125 A 
ATOM      6  C   UNL     1      47.968  19.348  20.550  0.00  0.00    +0.044 A 
ATOM      7  C   UNL     1      47.634  18.051  20.991  0.00  0.00    -0.095 A 
ATOM      8  C   UNL     1      46.636  17.887  21.981  0.00  0.00    +0.060 A 
ATOM      9  C   UNL     1      46.303  16.527  22.427  0.00  0.00    -0.263 A 
ATOM     10  C   UNL     1      46.949  15.483  21.889  0.00  0.00    +0.258 A 
ATOM     11  N   UNL     1      47.917  15.649  20.928  0.00  0.00    -0.585 NA
ATOM     12  C   UNL     1      45.994  19.000  22.505  0.00  0.00    -0.099 A 
ATOM     13  C   UNL     1      46.329  20.276  22.064  0.00  0.00    +0.070 A 
ATOM     14  O   UNL     1      45.844  21.502  22.424  0.00  0.00    -0.326 OA
ATOM     15  C   UNL     1      46.246  22.400  21.375  0.00  0.00    +0.387 C 
ATOM     16  O   UNL     1      47.439  21.792  20.846  0.00  0.00    -0.310 OA
ATOM     17  C   UNL     1      48.276  16.909  20.465  0.00  0.00    +0.217 A 
ATOM     18  C   UNL     1      47.308  20.456  21.094  0.00  0.00    -0.081 A 
ATOM     19  C   UNL     1      49.260  17.039  19.494  0.00  0.00    -0.118 A 
ATOM     40  C   UNL     1      49.369  20.777  19.058  0.00  0.00    +0.044 A 
ENDROOT
BRANCH  19  20
ATOM     20  C   UNL     1      49.923  15.835  18.953  0.00  0.00    -0.118 A 
ATOM     21  C   UNL     1      51.233  15.431  19.468  0.00  0.00    +0.047 A 
ATOM     22  C   UNL     1      51.875  16.171  20.468  0.00  0.00    -0.008 A 
ATOM     23  C   UNL     1      53.096  15.771  20.927  0.00  0.00    -0.020 A 
ATOM     24  C   UNL     1      53.714  14.638  20.414  0.00  0.00    -0.097 A 
ATOM     25  C   UNL     1      53.113  13.895  19.437  0.00  0.00    +0.044 A 
ATOM     26  C   UNL     1      51.864  14.279  18.947  0.00  0.00    -0.125 A 
ATOM     27  C   UNL     1      51.184  13.509  17.899  0.00  0.00    +0.044 A 
ATOM     28  C   UNL     1      49.925  13.936  17.436  0.00  0.00    -0.095 A 
ATOM     29  C   UNL     1      49.266  13.197  16.423  0.00  0.00    +0.060 A 
ATOM     30  C   UNL     1      49.864  12.060  15.899  0.00  0.00    -0.099 A 
ATOM     31  C   UNL     1      51.108  11.644  16.362  0.00  0.00    +0.070 A 
ATOM     32  O   UNL     1      51.883  10.576  16.005  0.00  0.00    -0.326 OA
ATOM     33  C   UNL     1      52.832  10.414  17.076  0.00  0.00    +0.387 C 
ATOM     34  O   UNL     1      52.958  11.741  17.622  0.00  0.00    -0.310 OA
ATOM     35  C   UNL     1      47.944  13.652  15.966  0.00  0.00    -0.263 A 
ATOM     36  C   UNL     1      47.408  14.755  16.504  0.00  0.00    +0.257 A 
ATOM     37  N   UNL     1      48.054  15.471  17.482  0.00  0.00    -0.585 NA
ATOM     38  C   UNL     1      51.768  12.358  17.354  0.00  0.00    -0.081 A 
ATOM     39  C   UNL     1      49.299  15.087  17.964  0.00  0.00    +0.217 A 
ENDBRANCH  19  20
TORSDOF 1
ENDMDL
MODEL 7
REMARK VINA RESULT:      -6.6      2.636      8.665
REMARK  Name = ZINC95486217
REMARK  1 active torsions:
REMARK  status: ('A' for Active; 'I' for Inactive)
REMARK    1  A    between atoms: C17_20  and  C18_21
REMARK                            x       y       z     vdW  Elec       q    Type
REMARK                         _______ _______ _______ _____ _____    ______ ____
ROOT
ATOM      1  C   UNL     1      53.721  14.639  20.401  0.00  0.00    -0.098 A 
ATOM      2  C   UNL     1      53.106  15.776  20.912  0.00  0.00    -0.020 A 
ATOM      3  C   UNL     1      51.883  16.176  20.455  0.00  0.00    -0.008 A 
ATOM      4  C   UNL     1      51.238  15.433  19.460  0.00  0.00    +0.048 A 
ATOM      5  C   UNL     1      51.865  14.278  18.942  0.00  0.00    -0.125 A 
ATOM      6  C   UNL     1      51.182  13.505  17.899  0.00  0.00    +0.044 A 
ATOM      7  C   UNL     1      49.920  13.932  17.438  0.00  0.00    -0.095 A 
ATOM      8  C   UNL     1      49.258  13.189  16.431  0.00  0.00    +0.060 A 
ATOM      9  C   UNL     1      47.943  13.652  15.965  0.00  0.00    -0.263 A 
ATOM     10  C   UNL     1      47.408  14.757  16.501  0.00  0.00    +0.258 A 
ATOM     11  N   UNL     1      48.056  15.473  17.478  0.00  0.00    -0.585 NA
ATOM     12  C   UNL     1      49.853  12.049  15.909  0.00  0.00    -0.099 A 
ATOM     13  C   UNL     1      51.099  11.634  16.370  0.00  0.00    +0.070 A 
ATOM     14  O   UNL     1      51.870  10.564  16.016  0.00  0.00    -0.326 OA
ATOM     15  C   UNL     1      52.825  10.406  17.082  0.00  0.00    +0.387 C 
ATOM     16  O   UNL     1      52.952  11.734  17.623  0.00  0.00    -0.310 OA
ATOM     17  C   UNL     1      49.300  15.087  17.961  0.00  0.00    +0.217 A 
ATOM     18  C   UNL     1      51.763  12.352  17.357  0.00  0.00    -0.081 A 
ATOM     19  C   UNL     1      49.926  15.836  18.949  0.00  0.00    -0.118 A 
ATOM     40  C   UNL     1      53.116  13.895  19.428  0.00  0.00    +0.044 A 
ENDROOT
BRANCH  19  20
ATOM     20  C   UNL     1      49.266  17.043  19.486  0.00  0.00    -0.118 A 
ATOM     21  C   UNL     1      49.643  18.365  18.982  0.00  0.00    +0.047 A 
ATOM     22  C   UNL     1      50.626  18.509  17.996  0.00  0.00    -0.008 A 
ATOM     23  C   UNL     1      50.957  19.755  17.547  0.00  0.00    -0.020 A 
ATOM     24  C   UNL     1      50.332  20.885  18.057  0.00  0.00    -0.097 A 
ATOM     25  C   UNL     1      49.369  20.778  19.021  0.00  0.00    +0.044 A 
ATOM     26  C   UNL     1      49.008  19.517  19.500  0.00  0.00    -0.125 A 
ATOM     27  C   UNL     1      47.979  19.358  20.533  0.00  0.00    +0.044 A 
ATOM     28  C   UNL     1      47.650  18.066  20.986  0.00  0.00    -0.095 A 
ATOM     29  C   UNL     1      46.658  17.908  21.984  0.00  0.00    +0.060 A 
ATOM     30  C   UNL     1      46.019  19.024  22.505  0.00  0.00    -0.099 A 
ATOM     31  C   UNL     1      46.349  20.297  22.052  0.00  0.00    +0.070 A 
ATOM     32  O   UNL     1      45.866  21.525  22.408  0.00  0.00    -0.326 OA
ATOM     33  C   UNL     1      46.258  22.416  21.346  0.00  0.00    +0.387 C 
ATOM     34  O   UNL     1      47.449  21.806  20.814  0.00  0.00    -0.310 OA
ATOM     35  C   UNL     1      46.319  16.548  22.431  0.00  0.00    -0.263 A 
ATOM     36  C   UNL     1      46.963  15.503  21.897  0.00  0.00    +0.257 A 
ATOM     37  N   UNL     1      47.928  15.662  20.932  0.00  0.00    -0.585 NA
ATOM     38  C   UNL     1      47.320  20.470  21.074  0.00  0.00    -0.081 A 
ATOM     39  C   UNL     1      48.286  16.920  20.461  0.00  0.00    +0.217 A 
ENDBRANCH  19  20
TORSDOF 1
ENDMDL
MODEL 8
REMARK VINA RESULT:      -6.5      3.258      7.153
REMARK  Name = ZINC95486217
REMARK  1 active torsions:
REMARK  status: ('A' for Active; 'I' for Inactive)
REMARK    1  A    between atoms: C17_20  and  C18_21
REMARK                            x       y       z     vdW  Elec       q    Type
REMARK                         _______ _______ _______ _____ _____    ______ ____
ROOT
ATOM      1  C   UNL     1      51.730  17.410  17.547  0.00  0.00    -0.098 A 
ATOM      2  C   UNL     1      50.472  17.003  17.116  0.00  0.00    -0.020 A 
ATOM      3  C   UNL     1      49.957  15.797  17.495  0.00  0.00    -0.008 A 
ATOM      4  C   UNL     1      50.703  14.957  18.330  0.00  0.00    +0.048 A 
ATOM      5  C   UNL     1      51.981  15.372  18.767  0.00  0.00    -0.125 A 
ATOM      6  C   UNL     1      52.756  14.485  19.642  0.00  0.00    +0.044 A 
ATOM      7  C   UNL     1      52.211  13.243  20.024  0.00  0.00    -0.095 A 
ATOM      8  C   UNL     1      52.955  12.384  20.867  0.00  0.00    +0.060 A 
ATOM      9  C   UNL     1      52.368  11.094  21.253  0.00  0.00    -0.263 A 
ATOM     10  C   UNL     1      51.150  10.765  20.801  0.00  0.00    +0.258 A 
ATOM     11  N   UNL     1      50.432  11.604  19.983  0.00  0.00    -0.585 NA
ATOM     12  C   UNL     1      54.212  12.772  21.311  0.00  0.00    -0.099 A 
ATOM     13  C   UNL     1      54.743  14.000  20.930  0.00  0.00    +0.070 A 
ATOM     14  O   UNL     1      55.937  14.590  21.235  0.00  0.00    -0.326 OA
ATOM     15  C   UNL     1      55.771  15.984  20.918  0.00  0.00    +0.387 C 
ATOM     16  O   UNL     1      54.769  15.981  19.885  0.00  0.00    -0.310 OA
ATOM     17  C   UNL     1      50.933  12.836  19.583  0.00  0.00    +0.217 A 
ATOM     18  C   UNL     1      54.026  14.855  20.102  0.00  0.00    -0.081 A 
ATOM     19  C   UNL     1      50.179  13.657  18.754  0.00  0.00    -0.118 A 
ATOM     40  C   UNL     1      52.480  16.611  18.361  0.00  0.00    +0.044 A 
ENDROOT
BRANCH  19  20
ATOM     20  C   UNL     1      48.844  13.218  18.300  0.00  0.00    -0.118 A 
ATOM     21  C   UNL     1      47.649  13.647  19.029  0.00  0.00    +0.047 A 
ATOM     22  C   UNL     1      47.748  14.469  20.157  0.00  0.00    -0.008 A 
ATOM     23  C   UNL     1      46.616  14.852  20.817  0.00  0.00    -0.020 A 
ATOM     24  C   UNL     1      45.364  14.435  20.384  0.00  0.00    -0.097 A 
ATOM     25  C   UNL     1      45.234  13.632  19.286  0.00  0.00    +0.044 A 
ATOM     26  C   UNL     1      46.374  13.224  18.591  0.00  0.00    -0.125 A 
ATOM     27  C   UNL     1      46.279  12.362  17.407  0.00  0.00    +0.044 A 
ATOM     28  C   UNL     1      47.457  11.975  16.738  0.00  0.00    -0.095 A 
ATOM     29  C   UNL     1      47.370  11.142  15.597  0.00  0.00    +0.060 A 
ATOM     30  C   UNL     1      46.129  10.717  15.146  0.00  0.00    -0.099 A 
ATOM     31  C   UNL     1      44.969  11.104  15.811  0.00  0.00    +0.070 A 
ATOM     32  O   UNL     1      43.657  10.816  15.560  0.00  0.00    -0.326 OA
ATOM     33  C   UNL     1      42.901  11.798  16.293  0.00  0.00    +0.387 C 
ATOM     34  O   UNL     1      43.768  12.146  17.388  0.00  0.00    -0.310 OA
ATOM     35  C   UNL     1      48.611  10.764  14.905  0.00  0.00    -0.263 A 
ATOM     36  C   UNL     1      49.785  11.201  15.379  0.00  0.00    +0.257 A 
ATOM     37  N   UNL     1      49.864  12.005  16.489  0.00  0.00    -0.585 NA
ATOM     38  C   UNL     1      45.037  11.920  16.933  0.00  0.00    -0.081 A 
ATOM     39  C   UNL     1      48.727  12.405  17.181  0.00  0.00    +0.217 A 
ENDBRANCH  19  20
TORSDOF 1
ENDMDL
MODEL 9
REMARK VINA RESULT:      -6.3      1.960      8.384
REMARK  Name = ZINC95486217
REMARK  1 active torsions:
REMARK  status: ('A' for Active; 'I' for Inactive)
REMARK    1  A    between atoms: C17_20  and  C18_21
REMARK                            x       y       z     vdW  Elec       q    Type
REMARK                         _______ _______ _______ _____ _____    ______ ____
ROOT
ATOM      1  C   UNL     1      52.800  14.306  21.148  0.00  0.00    -0.098 A 
ATOM      2  C   UNL     1      51.936  15.265  21.665  0.00  0.00    -0.020 A 
ATOM      3  C   UNL     1      50.766  15.569  21.030  0.00  0.00    -0.008 A 
ATOM      4  C   UNL     1      50.430  14.908  19.842  0.00  0.00    +0.048 A 
ATOM      5  C   UNL     1      51.310  13.934  19.319  0.00  0.00    -0.125 A 
ATOM      6  C   UNL     1      50.950  13.246  18.074  0.00  0.00    +0.044 A 
ATOM      7  C   UNL     1      49.739  13.571  17.431  0.00  0.00    -0.095 A 
ATOM      8  C   UNL     1      49.389  12.910  16.229  0.00  0.00    +0.060 A 
ATOM      9  C   UNL     1      48.122  13.266  15.574  0.00  0.00    -0.263 A 
ATOM     10  C   UNL     1      47.336  14.199  16.127  0.00  0.00    +0.258 A 
ATOM     11  N   UNL     1      47.682  14.837  17.294  0.00  0.00    -0.585 NA
ATOM     12  C   UNL     1      50.236  11.948  15.698  0.00  0.00    -0.099 A 
ATOM     13  C   UNL     1      51.429  11.632  16.340  0.00  0.00    +0.070 A 
ATOM     14  O   UNL     1      52.407  10.735  16.015  0.00  0.00    -0.326 OA
ATOM     15  C   UNL     1      53.170  10.543  17.220  0.00  0.00    +0.387 C 
ATOM     16  O   UNL     1      52.993  11.779  17.935  0.00  0.00    -0.310 OA
ATOM     17  C   UNL     1      48.866  14.546  17.960  0.00  0.00    +0.217 A 
ATOM     18  C   UNL     1      51.789  12.272  17.520  0.00  0.00    -0.081 A 
ATOM     19  C   UNL     1      49.183  15.211  19.137  0.00  0.00    -0.118 A 
ATOM     40  C   UNL     1      52.499  13.646  19.991  0.00  0.00    +0.044 A 
ENDROOT
BRANCH  19  20
ATOM     20  C   UNL     1      48.260  16.228  19.679  0.00  0.00    -0.118 A 
ATOM     21  C   UNL     1      47.121  15.815  20.500  0.00  0.00    +0.047 A 
ATOM     22  C   UNL     1      46.887  14.464  20.782  0.00  0.00    -0.008 A 
ATOM     23  C   UNL     1      45.815  14.108  21.550  0.00  0.00    -0.020 A 
ATOM     24  C   UNL     1      44.951  15.070  22.056  0.00  0.00    -0.097 A 
ATOM     25  C   UNL     1      45.153  16.397  21.799  0.00  0.00    +0.044 A 
ATOM     26  C   UNL     1      46.239  16.792  21.017  0.00  0.00    -0.125 A 
ATOM     27  C   UNL     1      46.492  18.206  20.717  0.00  0.00    +0.044 A 
ATOM     28  C   UNL     1      47.601  18.555  19.923  0.00  0.00    -0.095 A 
ATOM     29  C   UNL     1      47.847  19.919  19.630  0.00  0.00    +0.060 A 
ATOM     30  C   UNL     1      46.999  20.896  20.128  0.00  0.00    -0.099 A 
ATOM     31  C   UNL     1      45.905  20.543  20.913  0.00  0.00    +0.070 A 
ATOM     32  O   UNL     1      44.945  21.313  21.506  0.00  0.00    -0.326 OA
ATOM     33  C   UNL     1      44.338  20.472  22.505  0.00  0.00    +0.387 C 
ATOM     34  O   UNL     1      44.527  19.141  21.988  0.00  0.00    -0.310 OA
ATOM     35  C   UNL     1      49.020  20.262  18.812  0.00  0.00    -0.263 A 
ATOM     36  C   UNL     1      49.811  19.283  18.354  0.00  0.00    +0.257 A 
ATOM     37  N   UNL     1      49.564  17.962  18.638  0.00  0.00    -0.585 NA
ATOM     38  C   UNL     1      45.649  19.210  21.209  0.00  0.00    -0.081 A 
ATOM     39  C   UNL     1      48.479  17.573  19.414  0.00  0.00    +0.217 A 
ENDBRANCH  19  20
TORSDOF 1
ENDMDL
