MODEL 1
REMARK VINA RESULT:      -6.1      0.000      0.000
REMARK  Name = ZINC95486327
REMARK  6 active torsions:
REMARK  status: ('A' for Active; 'I' for Inactive)
REMARK    1  A    between atoms: C1_1  and  C2_2
REMARK    2  A    between atoms: C5_6  and  C7_9
REMARK    3  A    between atoms: C8_10  and  O6_27
REMARK    4  A    between atoms: C12_14  and  O3_15
REMARK    5  A    between atoms: C15_19  and  C16_21
REMARK    6  A    between atoms: O6_27  and  C22_28
REMARK                            x       y       z     vdW  Elec       q    Type
REMARK                         _______ _______ _______ _____ _____    ______ ____
ROOT
ATOM      6  C   UNL     1      48.858  18.554  18.412  0.00  0.00    -0.099 A 
ATOM      7  C   UNL     1      47.963  17.751  17.693  0.00  0.00    +0.224 A 
ATOM     10  C   UNL     1      46.604  18.011  17.725  0.00  0.00    -0.093 A 
ATOM     11  C   UNL     1      46.114  19.072  18.473  0.00  0.00    +0.211 A 
ATOM     12  C   UNL     1      47.006  19.883  19.198  0.00  0.00    -0.289 A 
ATOM     13  C   UNL     1      46.459  21.003  19.983  0.00  0.00    +0.426 A 
ATOM     14  C   UNL     1      45.056  21.193  19.956  0.00  0.00    -0.144 A 
ATOM     15  C   UNL     1      44.280  20.351  19.222  0.00  0.00    +0.203 A 
ATOM     22  O   UNL     1      47.185  21.738  20.630  0.00  0.00    -0.456 OA
ATOM     23  O   UNL     1      44.790  19.335  18.511  0.00  0.00    -0.218 OA
ATOM     24  C   UNL     1      48.380  19.620  19.172  0.00  0.00    +0.255 A 
ENDROOT
BRANCH   6   5
ATOM      1  C   UNL     1      53.294  15.637  20.237  0.00  0.00    +0.122 C 
ATOM      2  C   UNL     1      53.491  16.696  19.182  0.00  0.00    +0.097 C 
ATOM      3  C   UNL     1      52.443  17.399  18.735  0.00  0.00    -0.074 C 
ATOM      4  C   UNL     1      51.036  17.267  19.173  0.00  0.00    +0.402 C 
ATOM      5  C   UNL     1      50.313  18.266  18.370  0.00  0.00    -0.274 C 
ATOM     27  C   UNL     1      51.236  18.871  17.582  0.00  0.00    +0.358 C 
ATOM     28  O   UNL     1      50.579  16.506  20.008  0.00  0.00    -0.429 OA
ATOM     29  O   UNL     1      52.462  18.377  17.796  0.00  0.00    -0.217 OA
ENDBRANCH   6   5
BRANCH  15  16
ATOM     16  C   UNL     1      42.818  20.566  19.207  0.00  0.00    -0.073 A 
ATOM     17  C   UNL     1      41.956  19.561  19.650  0.00  0.00    +0.056 A 
ATOM     18  C   UNL     1      40.593  19.769  19.633  0.00  0.00    +0.014 A 
ATOM     19  C   UNL     1      40.079  20.970  19.177  0.00  0.00    +0.037 A 
ATOM     20  C   UNL     1      40.927  21.971  18.736  0.00  0.00    +0.009 A 
ATOM     21  C   UNL     1      42.293  21.778  18.754  0.00  0.00    +0.054 A 
ENDBRANCH  15  16
BRANCH   7   8
ATOM      8  O   UNL     1      48.432  16.710  16.959  0.00  0.00    -0.294 OA
ATOM      9  C   UNL     1      48.087  15.396  17.403  0.00  0.00    +0.254 C 
ENDBRANCH   7   8
BRANCH  24  25
ATOM     25  O   UNL     1      49.240  20.399  19.876  0.00  0.00    -0.466 OA
ATOM     26  H   UNL     1      50.079  20.566  19.424  0.00  0.00    +0.404 HD
ENDBRANCH  24  25
TORSDOF 4
ENDMDL
MODEL 2
REMARK VINA RESULT:      -6.1      3.255      8.629
REMARK  Name = ZINC95486327
REMARK  6 active torsions:
REMARK  status: ('A' for Active; 'I' for Inactive)
REMARK    1  A    between atoms: C1_1  and  C2_2
REMARK    2  A    between atoms: C5_6  and  C7_9
REMARK    3  A    between atoms: C8_10  and  O6_27
REMARK    4  A    between atoms: C12_14  and  O3_15
REMARK    5  A    between atoms: C15_19  and  C16_21
REMARK    6  A    between atoms: O6_27  and  C22_28
REMARK                            x       y       z     vdW  Elec       q    Type
REMARK                         _______ _______ _______ _____ _____    ______ ____
ROOT
ATOM      6  C   UNL     1      44.563  18.491  19.460  0.00  0.00    -0.099 A 
ATOM      7  C   UNL     1      44.323  17.643  20.549  0.00  0.00    +0.224 A 
ATOM     10  C   UNL     1      44.949  16.412  20.633  0.00  0.00    -0.093 A 
ATOM     11  C   UNL     1      45.822  16.003  19.635  0.00  0.00    +0.211 A 
ATOM     12  C   UNL     1      46.068  16.848  18.538  0.00  0.00    -0.289 A 
ATOM     13  C   UNL     1      47.000  16.390  17.493  0.00  0.00    +0.426 A 
ATOM     14  C   UNL     1      47.593  15.116  17.663  0.00  0.00    -0.144 A 
ATOM     15  C   UNL     1      47.288  14.376  18.762  0.00  0.00    +0.203 A 
ATOM     22  O   UNL     1      47.250  17.081  16.520  0.00  0.00    -0.456 OA
ATOM     23  O   UNL     1      46.438  14.804  19.707  0.00  0.00    -0.218 OA
ATOM     24  C   UNL     1      45.433  18.092  18.447  0.00  0.00    +0.255 A 
ENDROOT
BRANCH   6   5
ATOM      1  C   UNL     1      39.962  21.543  18.444  0.00  0.00    +0.122 C 
ATOM      2  C   UNL     1      41.235  22.241  18.848  0.00  0.00    +0.097 C 
ATOM      3  C   UNL     1      42.341  21.527  19.096  0.00  0.00    -0.074 C 
ATOM      4  C   UNL     1      42.483  20.057  19.013  0.00  0.00    +0.402 C 
ATOM      5  C   UNL     1      43.886  19.809  19.381  0.00  0.00    -0.274 C 
ATOM     27  C   UNL     1      44.439  21.020  19.636  0.00  0.00    +0.358 C 
ATOM     28  O   UNL     1      41.633  19.238  18.709  0.00  0.00    -0.429 OA
ATOM     29  O   UNL     1      43.553  22.009  19.467  0.00  0.00    -0.217 OA
ENDBRANCH   6   5
BRANCH  15  16
ATOM     16  C   UNL     1      47.919  13.049  18.921  0.00  0.00    -0.073 A 
ATOM     17  C   UNL     1      48.351  12.625  20.179  0.00  0.00    +0.056 A 
ATOM     18  C   UNL     1      48.939  11.385  20.320  0.00  0.00    +0.014 A 
ATOM     19  C   UNL     1      49.101  10.563  19.218  0.00  0.00    +0.037 A 
ATOM     20  C   UNL     1      48.675  10.978  17.969  0.00  0.00    +0.009 A 
ATOM     21  C   UNL     1      48.080  12.213  17.814  0.00  0.00    +0.054 A 
ENDBRANCH  15  16
BRANCH   7   8
ATOM      8  O   UNL     1      43.470  18.033  21.531  0.00  0.00    -0.294 OA
ATOM      9  C   UNL     1      43.100  17.047  22.497  0.00  0.00    +0.254 C 
ENDBRANCH   7   8
BRANCH  24  25
ATOM     25  O   UNL     1      45.666  18.905  17.386  0.00  0.00    -0.466 OA
ATOM     26  H   UNL     1      46.108  19.734  17.615  0.00  0.00    +0.404 HD
ENDBRANCH  24  25
TORSDOF 4
ENDMDL
MODEL 3
REMARK VINA RESULT:      -5.9      3.920      5.690
REMARK  Name = ZINC95486327
REMARK  6 active torsions:
REMARK  status: ('A' for Active; 'I' for Inactive)
REMARK    1  A    between atoms: C1_1  and  C2_2
REMARK    2  A    between atoms: C5_6  and  C7_9
REMARK    3  A    between atoms: C8_10  and  O6_27
REMARK    4  A    between atoms: C12_14  and  O3_15
REMARK    5  A    between atoms: C15_19  and  C16_21
REMARK    6  A    between atoms: O6_27  and  C22_28
REMARK                            x       y       z     vdW  Elec       q    Type
REMARK                         _______ _______ _______ _____ _____    ______ ____
ROOT
ATOM      6  C   UNL     1      48.233  13.234  16.585  0.00  0.00    -0.099 A 
ATOM      7  C   UNL     1      47.139  12.520  17.090  0.00  0.00    +0.224 A 
ATOM     10  C   UNL     1      46.232  13.131  17.938  0.00  0.00    -0.093 A 
ATOM     11  C   UNL     1      46.400  14.461  18.298  0.00  0.00    +0.211 A 
ATOM     12  C   UNL     1      47.496  15.184  17.795  0.00  0.00    -0.289 A 
ATOM     13  C   UNL     1      47.650  16.594  18.193  0.00  0.00    +0.426 A 
ATOM     14  C   UNL     1      46.674  17.135  19.064  0.00  0.00    -0.144 A 
ATOM     15  C   UNL     1      45.651  16.350  19.494  0.00  0.00    +0.203 A 
ATOM     22  O   UNL     1      48.582  17.269  17.787  0.00  0.00    -0.456 OA
ATOM     23  O   UNL     1      45.521  15.067  19.125  0.00  0.00    -0.218 OA
ATOM     24  C   UNL     1      48.418  14.568  16.941  0.00  0.00    +0.255 A 
ENDROOT
BRANCH   6   5
ATOM      1  C   UNL     1      52.992  10.360  15.804  0.00  0.00    +0.122 C 
ATOM      2  C   UNL     1      52.147  10.725  14.610  0.00  0.00    +0.097 C 
ATOM      3  C   UNL     1      51.009  11.409  14.780  0.00  0.00    -0.074 C 
ATOM      4  C   UNL     1      50.444  11.885  16.061  0.00  0.00    +0.402 C 
ATOM      5  C   UNL     1      49.199  12.567  15.675  0.00  0.00    -0.274 C 
ATOM     27  C   UNL     1      49.105  12.468  14.326  0.00  0.00    +0.358 C 
ATOM     28  O   UNL     1      50.903  11.744  17.181  0.00  0.00    -0.429 OA
ATOM     29  O   UNL     1      50.148  11.807  13.810  0.00  0.00    -0.217 OA
ENDBRANCH   6   5
BRANCH  15  16
ATOM     16  C   UNL     1      44.643  16.934  20.402  0.00  0.00    -0.073 A 
ATOM     17  C   UNL     1      44.028  18.146  20.083  0.00  0.00    +0.056 A 
ATOM     18  C   UNL     1      43.087  18.685  20.936  0.00  0.00    +0.014 A 
ATOM     19  C   UNL     1      42.753  18.027  22.106  0.00  0.00    +0.037 A 
ATOM     20  C   UNL     1      43.358  16.825  22.429  0.00  0.00    +0.009 A 
ATOM     21  C   UNL     1      44.296  16.272  21.582  0.00  0.00    +0.054 A 
ENDBRANCH  15  16
BRANCH   7   8
ATOM      8  O   UNL     1      46.966  11.218  16.745  0.00  0.00    -0.294 OA
ATOM      9  C   UNL     1      45.856  10.915  15.897  0.00  0.00    +0.254 C 
ENDBRANCH   7   8
BRANCH  24  25
ATOM     25  O   UNL     1      49.479  15.265  16.460  0.00  0.00    -0.466 OA
ATOM     26  H   UNL     1      49.887  14.869  15.678  0.00  0.00    +0.404 HD
ENDBRANCH  24  25
TORSDOF 4
ENDMDL
MODEL 4
REMARK VINA RESULT:      -5.8      2.799      7.488
REMARK  Name = ZINC95486327
REMARK  6 active torsions:
REMARK  status: ('A' for Active; 'I' for Inactive)
REMARK    1  A    between atoms: C1_1  and  C2_2
REMARK    2  A    between atoms: C5_6  and  C7_9
REMARK    3  A    between atoms: C8_10  and  O6_27
REMARK    4  A    between atoms: C12_14  and  O3_15
REMARK    5  A    between atoms: C15_19  and  C16_21
REMARK    6  A    between atoms: O6_27  and  C22_28
REMARK                            x       y       z     vdW  Elec       q    Type
REMARK                         _______ _______ _______ _____ _____    ______ ____
ROOT
ATOM      6  C   UNL     1      46.255  18.934  19.877  0.00  0.00    -0.099 A 
ATOM      7  C   UNL     1      45.174  18.072  20.107  0.00  0.00    +0.224 A 
ATOM     10  C   UNL     1      45.119  16.835  19.491  0.00  0.00    -0.093 A 
ATOM     11  C   UNL     1      46.136  16.434  18.637  0.00  0.00    +0.211 A 
ATOM     12  C   UNL     1      47.224  17.293  18.400  0.00  0.00    -0.289 A 
ATOM     13  C   UNL     1      48.291  16.842  17.489  0.00  0.00    +0.426 A 
ATOM     14  C   UNL     1      48.149  15.560  16.905  0.00  0.00    -0.144 A 
ATOM     15  C   UNL     1      47.057  14.807  17.199  0.00  0.00    +0.203 A 
ATOM     22  O   UNL     1      49.257  17.546  17.248  0.00  0.00    -0.456 OA
ATOM     23  O   UNL     1      46.092  15.227  18.031  0.00  0.00    -0.218 OA
ATOM     24  C   UNL     1      47.281  18.547  19.017  0.00  0.00    +0.255 A 
ENDROOT
BRANCH   6   5
ATOM      1  C   UNL     1      45.056  24.418  19.891  0.00  0.00    +0.122 C 
ATOM      2  C   UNL     1      45.789  23.821  21.065  0.00  0.00    +0.097 C 
ATOM      3  C   UNL     1      46.081  22.514  21.078  0.00  0.00    -0.074 C 
ATOM      4  C   UNL     1      45.763  21.525  20.024  0.00  0.00    +0.402 C 
ATOM      5  C   UNL     1      46.304  20.259  20.544  0.00  0.00    -0.274 C 
ATOM     27  C   UNL     1      46.853  20.539  21.751  0.00  0.00    +0.358 C 
ATOM     28  O   UNL     1      45.186  21.715  18.968  0.00  0.00    -0.429 OA
ATOM     29  O   UNL     1      46.731  21.836  22.056  0.00  0.00    -0.217 OA
ENDBRANCH   6   5
BRANCH  15  16
ATOM     16  C   UNL     1      46.928  13.472  16.580  0.00  0.00    -0.073 A 
ATOM     17  C   UNL     1      47.763  13.105  15.522  0.00  0.00    +0.056 A 
ATOM     18  C   UNL     1      47.637  11.857  14.948  0.00  0.00    +0.014 A 
ATOM     19  C   UNL     1      46.686  10.969  15.419  0.00  0.00    +0.037 A 
ATOM     20  C   UNL     1      45.855  11.326  16.466  0.00  0.00    +0.009 A 
ATOM     21  C   UNL     1      45.974  12.569  17.053  0.00  0.00    +0.054 A 
ENDBRANCH  15  16
BRANCH   7   8
ATOM      8  O   UNL     1      44.174  18.455  20.941  0.00  0.00    -0.294 OA
ATOM      9  C   UNL     1      42.954  18.887  20.333  0.00  0.00    +0.254 C 
ENDBRANCH   7   8
BRANCH  24  25
ATOM     25  O   UNL     1      48.329  19.378  18.785  0.00  0.00    -0.466 OA
ATOM     26  H   UNL     1      48.168  20.028  18.087  0.00  0.00    +0.404 HD
ENDBRANCH  24  25
TORSDOF 4
ENDMDL
MODEL 5
REMARK VINA RESULT:      -5.8      3.388      4.974
REMARK  Name = ZINC95486327
REMARK  6 active torsions:
REMARK  status: ('A' for Active; 'I' for Inactive)
REMARK    1  A    between atoms: C1_1  and  C2_2
REMARK    2  A    between atoms: C5_6  and  C7_9
REMARK    3  A    between atoms: C8_10  and  O6_27
REMARK    4  A    between atoms: C12_14  and  O3_15
REMARK    5  A    between atoms: C15_19  and  C16_21
REMARK    6  A    between atoms: O6_27  and  C22_28
REMARK                            x       y       z     vdW  Elec       q    Type
REMARK                         _______ _______ _______ _____ _____    ______ ____
ROOT
ATOM      6  C   UNL     1      48.984  13.920  16.386  0.00  0.00    -0.099 A 
ATOM      7  C   UNL     1      47.661  13.461  16.419  0.00  0.00    +0.224 A 
ATOM     10  C   UNL     1      46.656  14.250  16.949  0.00  0.00    -0.093 A 
ATOM     11  C   UNL     1      46.950  15.508  17.455  0.00  0.00    +0.211 A 
ATOM     12  C   UNL     1      48.275  15.977  17.426  0.00  0.00    -0.289 A 
ATOM     13  C   UNL     1      48.560  17.316  17.969  0.00  0.00    +0.426 A 
ATOM     14  C   UNL     1      47.468  18.052  18.491  0.00  0.00    -0.144 A 
ATOM     15  C   UNL     1      46.223  17.507  18.473  0.00  0.00    +0.203 A 
ATOM     22  O   UNL     1      49.690  17.773  17.969  0.00  0.00    -0.456 OA
ATOM     23  O   UNL     1      45.976  16.287  17.975  0.00  0.00    -0.218 OA
ATOM     24  C   UNL     1      49.295  15.180  16.895  0.00  0.00    +0.255 A 
ENDROOT
BRANCH   6   5
ATOM      1  C   UNL     1      53.195  10.277  17.091  0.00  0.00    +0.122 C 
ATOM      2  C   UNL     1      52.830  10.720  15.698  0.00  0.00    +0.097 C 
ATOM      3  C   UNL     1      51.827  11.587  15.512  0.00  0.00    -0.074 C 
ATOM      4  C   UNL     1      50.986  12.207  16.560  0.00  0.00    +0.402 C 
ATOM      5  C   UNL     1      50.053  13.065  15.814  0.00  0.00    -0.274 C 
ATOM     27  C   UNL     1      50.360  12.921  14.501  0.00  0.00    +0.358 C 
ATOM     28  O   UNL     1      51.051  12.043  17.766  0.00  0.00    -0.429 OA
ATOM     29  O   UNL     1      51.384  12.076  14.327  0.00  0.00    -0.217 OA
ENDBRANCH   6   5
BRANCH  15  16
ATOM     16  C   UNL     1      45.098  18.292  19.022  0.00  0.00    -0.073 A 
ATOM     17  C   UNL     1      44.784  19.541  18.483  0.00  0.00    +0.056 A 
ATOM     18  C   UNL     1      43.732  20.268  19.001  0.00  0.00    +0.014 A 
ATOM     19  C   UNL     1      42.988  19.761  20.051  0.00  0.00    +0.037 A 
ATOM     20  C   UNL     1      43.294  18.524  20.590  0.00  0.00    +0.009 A 
ATOM     21  C   UNL     1      44.339  17.784  20.079  0.00  0.00    +0.054 A 
ENDBRANCH  15  16
BRANCH   7   8
ATOM      8  O   UNL     1      47.363  12.231  15.927  0.00  0.00    -0.294 OA
ATOM      9  C   UNL     1      46.293  11.522  16.558  0.00  0.00    +0.254 C 
ENDBRANCH   7   8
BRANCH  24  25
ATOM     25  O   UNL     1      50.575  15.630  16.871  0.00  0.00    -0.466 OA
ATOM     26  H   UNL     1      51.218  15.005  17.233  0.00  0.00    +0.404 HD
ENDBRANCH  24  25
TORSDOF 4
ENDMDL
MODEL 6
REMARK VINA RESULT:      -5.7      3.512      5.719
REMARK  Name = ZINC95486327
REMARK  6 active torsions:
REMARK  status: ('A' for Active; 'I' for Inactive)
REMARK    1  A    between atoms: C1_1  and  C2_2
REMARK    2  A    between atoms: C5_6  and  C7_9
REMARK    3  A    between atoms: C8_10  and  O6_27
REMARK    4  A    between atoms: C12_14  and  O3_15
REMARK    5  A    between atoms: C15_19  and  C16_21
REMARK    6  A    between atoms: O6_27  and  C22_28
REMARK                            x       y       z     vdW  Elec       q    Type
REMARK                         _______ _______ _______ _____ _____    ______ ____
ROOT
ATOM      6  C   UNL     1      48.880  13.709  16.466  0.00  0.00    -0.099 A 
ATOM      7  C   UNL     1      47.481  13.633  16.451  0.00  0.00    +0.224 A 
ATOM     10  C   UNL     1      46.714  14.713  16.849  0.00  0.00    -0.093 A 
ATOM     11  C   UNL     1      47.324  15.886  17.268  0.00  0.00    +0.211 A 
ATOM     12  C   UNL     1      48.728  15.972  17.286  0.00  0.00    -0.289 A 
ATOM     13  C   UNL     1      49.350  17.229  17.734  0.00  0.00    +0.426 A 
ATOM     14  C   UNL     1      48.486  18.281  18.123  0.00  0.00    -0.144 A 
ATOM     15  C   UNL     1      47.140  18.097  18.069  0.00  0.00    +0.203 A 
ATOM     22  O   UNL     1      50.562  17.359  17.770  0.00  0.00    -0.456 OA
ATOM     23  O   UNL     1      46.585  16.947  17.658  0.00  0.00    -0.218 OA
ATOM     24  C   UNL     1      49.507  14.879  16.889  0.00  0.00    +0.255 A 
ENDROOT
BRANCH   6   5
ATOM      1  C   UNL     1      51.381  10.759  12.398  0.00  0.00    +0.122 C 
ATOM      2  C   UNL     1      51.476  10.277  13.823  0.00  0.00    +0.097 C 
ATOM      3  C   UNL     1      50.886  10.970  14.805  0.00  0.00    -0.074 C 
ATOM      4  C   UNL     1      50.104  12.217  14.662  0.00  0.00    +0.402 C 
ATOM      5  C   UNL     1      49.692  12.544  16.036  0.00  0.00    -0.274 C 
ATOM     27  C   UNL     1      50.201  11.573  16.834  0.00  0.00    +0.358 C 
ATOM     28  O   UNL     1      49.857  12.834  13.640  0.00  0.00    -0.429 OA
ATOM     29  O   UNL     1      50.883  10.665  16.126  0.00  0.00    -0.217 OA
ENDBRANCH   6   5
BRANCH  15  16
ATOM     16  C   UNL     1      46.255  19.207  18.478  0.00  0.00    -0.073 A 
ATOM     17  C   UNL     1      46.799  20.438  18.849  0.00  0.00    +0.056 A 
ATOM     18  C   UNL     1      45.967  21.470  19.231  0.00  0.00    +0.014 A 
ATOM     19  C   UNL     1      44.596  21.287  19.244  0.00  0.00    +0.037 A 
ATOM     20  C   UNL     1      44.050  20.070  18.877  0.00  0.00    +0.009 A 
ATOM     21  C   UNL     1      44.870  19.031  18.489  0.00  0.00    +0.054 A 
ENDBRANCH  15  16
BRANCH   7   8
ATOM      8  O   UNL     1      46.874  12.489  16.044  0.00  0.00    -0.294 OA
ATOM      9  C   UNL     1      45.852  11.960  16.892  0.00  0.00    +0.254 C 
ENDBRANCH   7   8
BRANCH  24  25
ATOM     25  O   UNL     1      50.862  14.960  16.911  0.00  0.00    -0.466 OA
ATOM     26  H   UNL     1      51.230  15.564  16.251  0.00  0.00    +0.404 HD
ENDBRANCH  24  25
TORSDOF 4
ENDMDL
MODEL 7
REMARK VINA RESULT:      -5.7      2.997      4.791
REMARK  Name = ZINC95486327
REMARK  6 active torsions:
REMARK  status: ('A' for Active; 'I' for Inactive)
REMARK    1  A    between atoms: C1_1  and  C2_2
REMARK    2  A    between atoms: C5_6  and  C7_9
REMARK    3  A    between atoms: C8_10  and  O6_27
REMARK    4  A    between atoms: C12_14  and  O3_15
REMARK    5  A    between atoms: C15_19  and  C16_21
REMARK    6  A    between atoms: O6_27  and  C22_28
REMARK                            x       y       z     vdW  Elec       q    Type
REMARK                         _______ _______ _______ _____ _____    ______ ____
ROOT
ATOM      6  C   UNL     1      49.721  15.179  17.270  0.00  0.00    -0.099 A 
ATOM      7  C   UNL     1      50.200  16.482  17.083  0.00  0.00    +0.224 A 
ATOM     10  C   UNL     1      49.407  17.573  17.390  0.00  0.00    -0.093 A 
ATOM     11  C   UNL     1      48.124  17.386  17.887  0.00  0.00    +0.211 A 
ATOM     12  C   UNL     1      47.636  16.081  18.077  0.00  0.00    -0.289 A 
ATOM     13  C   UNL     1      46.272  15.911  18.606  0.00  0.00    +0.426 A 
ATOM     14  C   UNL     1      45.533  17.085  18.892  0.00  0.00    -0.144 A 
ATOM     15  C   UNL     1      46.098  18.302  18.672  0.00  0.00    +0.203 A 
ATOM     22  O   UNL     1      45.798  14.803  18.791  0.00  0.00    -0.456 OA
ATOM     23  O   UNL     1      47.342  18.444  18.190  0.00  0.00    -0.218 OA
ATOM     24  C   UNL     1      48.434  14.975  17.763  0.00  0.00    +0.255 A 
ENDROOT
BRANCH   6   5
ATOM      1  C   UNL     1      51.193  11.068  13.742  0.00  0.00    +0.122 C 
ATOM      2  C   UNL     1      51.927  11.214  15.050  0.00  0.00    +0.097 C 
ATOM      3  C   UNL     1      51.589  12.191  15.902  0.00  0.00    -0.074 C 
ATOM      4  C   UNL     1      50.523  13.199  15.715  0.00  0.00    +0.402 C 
ATOM      5  C   UNL     1      50.582  14.016  16.937  0.00  0.00    -0.274 C 
ATOM     27  C   UNL     1      51.577  13.501  17.700  0.00  0.00    +0.358 C 
ATOM     28  O   UNL     1      49.767  13.324  14.767  0.00  0.00    -0.429 OA
ATOM     29  O   UNL     1      52.153  12.448  17.108  0.00  0.00    -0.217 OA
ENDBRANCH   6   5
BRANCH  15  16
ATOM     16  C   UNL     1      45.311  19.515  18.977  0.00  0.00    -0.073 A 
ATOM     17  C   UNL     1      43.968  19.406  19.341  0.00  0.00    +0.056 A 
ATOM     18  C   UNL     1      43.239  20.543  19.624  0.00  0.00    +0.014 A 
ATOM     19  C   UNL     1      43.837  21.788  19.548  0.00  0.00    +0.037 A 
ATOM     20  C   UNL     1      45.168  21.903  19.187  0.00  0.00    +0.009 A 
ATOM     21  C   UNL     1      45.910  20.774  18.906  0.00  0.00    +0.054 A 
ENDBRANCH  15  16
BRANCH   7   8
ATOM      8  O   UNL     1      51.453  16.676  16.597  0.00  0.00    -0.294 OA
ATOM      9  C   UNL     1      51.780  17.995  16.155  0.00  0.00    +0.254 C 
ENDBRANCH   7   8
BRANCH  24  25
ATOM     25  O   UNL     1      47.961  13.716  17.942  0.00  0.00    -0.466 OA
ATOM     26  H   UNL     1      47.259  13.469  17.324  0.00  0.00    +0.404 HD
ENDBRANCH  24  25
TORSDOF 4
ENDMDL
MODEL 8
REMARK VINA RESULT:      -5.7      3.071      5.023
REMARK  Name = ZINC95486327
REMARK  6 active torsions:
REMARK  status: ('A' for Active; 'I' for Inactive)
REMARK    1  A    between atoms: C1_1  and  C2_2
REMARK    2  A    between atoms: C5_6  and  C7_9
REMARK    3  A    between atoms: C8_10  and  O6_27
REMARK    4  A    between atoms: C12_14  and  O3_15
REMARK    5  A    between atoms: C15_19  and  C16_21
REMARK    6  A    between atoms: O6_27  and  C22_28
REMARK                            x       y       z     vdW  Elec       q    Type
REMARK                         _______ _______ _______ _____ _____    ______ ____
ROOT
ATOM      6  C   UNL     1      50.176  14.936  16.901  0.00  0.00    -0.099 A 
ATOM      7  C   UNL     1      48.803  14.764  17.125  0.00  0.00    +0.224 A 
ATOM     10  C   UNL     1      48.043  15.793  17.651  0.00  0.00    -0.093 A 
ATOM     11  C   UNL     1      48.634  17.009  17.963  0.00  0.00    +0.211 A 
ATOM     12  C   UNL     1      50.011  17.190  17.741  0.00  0.00    -0.289 A 
ATOM     13  C   UNL     1      50.613  18.491  18.080  0.00  0.00    +0.426 A 
ATOM     14  C   UNL     1      49.757  19.485  18.614  0.00  0.00    -0.144 A 
ATOM     15  C   UNL     1      48.438  19.209  18.790  0.00  0.00    +0.203 A 
ATOM     22  O   UNL     1      51.801  18.704  17.909  0.00  0.00    -0.456 OA
ATOM     23  O   UNL     1      47.901  18.020  18.477  0.00  0.00    -0.218 OA
ATOM     24  C   UNL     1      50.784  16.150  17.214  0.00  0.00    +0.255 A 
ENDROOT
BRANCH   6   5
ATOM      1  C   UNL     1      53.220  10.277  17.628  0.00  0.00    +0.122 C 
ATOM      2  C   UNL     1      53.014  10.812  16.234  0.00  0.00    +0.097 C 
ATOM      3  C   UNL     1      52.289  11.922  16.044  0.00  0.00    -0.074 C 
ATOM      4  C   UNL     1      51.631  12.740  17.086  0.00  0.00    +0.402 C 
ATOM      5  C   UNL     1      50.981  13.825  16.335  0.00  0.00    -0.274 C 
ATOM     27  C   UNL     1      51.260  13.612  15.026  0.00  0.00    +0.358 C 
ATOM     28  O   UNL     1      51.628  12.557  18.291  0.00  0.00    -0.429 OA
ATOM     29  O   UNL     1      52.017  12.521  14.858  0.00  0.00    -0.217 OA
ENDBRANCH   6   5
BRANCH  15  16
ATOM     16  C   UNL     1      47.561  20.260  19.347  0.00  0.00    -0.073 A 
ATOM     17  C   UNL     1      47.900  20.894  20.544  0.00  0.00    +0.056 A 
ATOM     18  C   UNL     1      47.076  21.874  21.059  0.00  0.00    +0.014 A 
ATOM     19  C   UNL     1      45.918  22.229  20.391  0.00  0.00    +0.037 A 
ATOM     20  C   UNL     1      45.576  21.604  19.205  0.00  0.00    +0.009 A 
ATOM     21  C   UNL     1      46.393  20.627  18.676  0.00  0.00    +0.054 A 
ENDBRANCH  15  16
BRANCH   7   8
ATOM      8  O   UNL     1      48.215  13.578  16.824  0.00  0.00    -0.294 OA
ATOM      9  C   UNL     1      47.760  12.783  17.922  0.00  0.00    +0.254 C 
ENDBRANCH   7   8
BRANCH  24  25
ATOM     25  O   UNL     1      52.114  16.323  17.004  0.00  0.00    -0.466 OA
ATOM     26  H   UNL     1      52.570  15.528  16.696  0.00  0.00    +0.404 HD
ENDBRANCH  24  25
TORSDOF 4
ENDMDL
MODEL 9
REMARK VINA RESULT:      -5.4      3.228      8.798
REMARK  Name = ZINC95486327
REMARK  6 active torsions:
REMARK  status: ('A' for Active; 'I' for Inactive)
REMARK    1  A    between atoms: C1_1  and  C2_2
REMARK    2  A    between atoms: C5_6  and  C7_9
REMARK    3  A    between atoms: C8_10  and  O6_27
REMARK    4  A    between atoms: C12_14  and  O3_15
REMARK    5  A    between atoms: C15_19  and  C16_21
REMARK    6  A    between atoms: O6_27  and  C22_28
REMARK                            x       y       z     vdW  Elec       q    Type
REMARK                         _______ _______ _______ _____ _____    ______ ____
ROOT
ATOM      6  C   UNL     1      46.760  16.952  18.926  0.00  0.00    -0.099 A 
ATOM      7  C   UNL     1      47.984  17.384  18.398  0.00  0.00    +0.224 A 
ATOM     10  C   UNL     1      48.730  16.553  17.582  0.00  0.00    -0.093 A 
ATOM     11  C   UNL     1      48.272  15.279  17.277  0.00  0.00    +0.211 A 
ATOM     12  C   UNL     1      47.044  14.838  17.802  0.00  0.00    -0.289 A 
ATOM     13  C   UNL     1      46.581  13.481  17.462  0.00  0.00    +0.426 A 
ATOM     14  C   UNL     1      47.411  12.702  16.619  0.00  0.00    -0.144 A 
ATOM     15  C   UNL     1      48.581  13.223  16.164  0.00  0.00    +0.203 A 
ATOM     22  O   UNL     1      45.525  13.047  17.889  0.00  0.00    -0.456 OA
ATOM     23  O   UNL     1      48.992  14.460  16.480  0.00  0.00    -0.218 OA
ATOM     24  C   UNL     1      46.289  15.674  18.633  0.00  0.00    +0.255 A 
ENDROOT
BRANCH   6   5
ATOM      1  C   UNL     1      43.083  21.151  19.526  0.00  0.00    +0.122 C 
ATOM      2  C   UNL     1      43.657  20.493  20.754  0.00  0.00    +0.097 C 
ATOM      3  C   UNL     1      44.534  19.489  20.628  0.00  0.00    -0.074 C 
ATOM      4  C   UNL     1      45.046  18.913  19.365  0.00  0.00    +0.402 C 
ATOM      5  C   UNL     1      45.968  17.853  19.800  0.00  0.00    -0.274 C 
ATOM     27  C   UNL     1      45.953  17.858  21.156  0.00  0.00    +0.358 C 
ATOM     28  O   UNL     1      44.767  19.241  18.225  0.00  0.00    -0.429 OA
ATOM     29  O   UNL     1      45.133  18.802  21.633  0.00  0.00    -0.217 OA
ENDBRANCH   6   5
BRANCH  15  16
ATOM     16  C   UNL     1      49.432  12.395  15.285  0.00  0.00    -0.073 A 
ATOM     17  C   UNL     1      49.135  11.044  15.092  0.00  0.00    +0.056 A 
ATOM     18  C   UNL     1      49.935  10.277  14.270  0.00  0.00    +0.014 A 
ATOM     19  C   UNL     1      51.028  10.843  13.639  0.00  0.00    +0.037 A 
ATOM     20  C   UNL     1      51.328  12.180  13.827  0.00  0.00    +0.009 A 
ATOM     21  C   UNL     1      50.534  12.961  14.641  0.00  0.00    +0.054 A 
ENDBRANCH  15  16
BRANCH   7   8
ATOM      8  O   UNL     1      48.441  18.628  18.691  0.00  0.00    -0.294 OA
ATOM      9  C   UNL     1      49.618  18.713  19.499  0.00  0.00    +0.254 C 
ENDBRANCH   7   8
BRANCH  24  25
ATOM     25  O   UNL     1      45.107  15.245  19.143  0.00  0.00    -0.466 OA
ATOM     26  H   UNL     1      44.507  14.870  18.484  0.00  0.00    +0.404 HD
ENDBRANCH  24  25
TORSDOF 4
ENDMDL
