MODEL 1
REMARK VINA RESULT:      -6.2      0.000      0.000
REMARK  Name = ZINC95486156
REMARK  14 active torsions:
REMARK  status: ('A' for Active; 'I' for Inactive)
REMARK    1  A    between atoms: C1_1  and  C2_2
REMARK    2  A    between atoms: C5_7  and  C30_41
REMARK    3  A    between atoms: C10_13  and  C23_31
REMARK    4  A    between atoms: C13_17  and  C22_30
REMARK    5  A    between atoms: C14_18  and  C15_20
REMARK    6  A    between atoms: C15_20  and  C16_22
REMARK    7  A    between atoms: C15_20  and  O3_29
REMARK    8  A    between atoms: C16_22  and  C17_24
REMARK    9  A    between atoms: C18_25  and  C19_26
REMARK   10  A    between atoms: C19_26  and  C20_27
REMARK   11  A    between atoms: C19_26  and  C21_28
REMARK   12  A    between atoms: C25_33  and  O5_40
REMARK   13  A    between atoms: C27_37  and  C28_38
REMARK   14  A    between atoms: C27_37  and  C29_39
REMARK                            x       y       z     vdW  Elec       q    Type
REMARK                         _______ _______ _______ _____ _____    ______ ____
ROOT
ATOM      1  C   UNL     1      47.082  18.411  22.114  0.00  0.00    +0.041 C 
ATOM      2  C   UNL     1      47.935  17.537  21.198  0.00  0.00    -0.009 C 
ATOM      3  C   UNL     1      47.323  16.109  21.087  0.00  0.00    +0.036 C 
ATOM      4  C   UNL     1      47.638  15.761  19.625  0.00  0.00    -0.001 C 
ATOM      5  C   UNL     1      47.106  14.486  19.058  0.00  0.00    -0.018 C 
ATOM      6  C   UNL     1      45.586  14.352  19.222  0.00  0.00    +0.032 C 
ATOM      7  C   UNL     1      47.703  13.273  19.783  0.00  0.00    +0.076 C 
ATOM      8  C   UNL     1      49.177  13.167  19.522  0.00  0.00    -0.011 C 
ATOM      9  C   UNL     1      49.715  13.531  18.396  0.00  0.00    -0.107 C 
ATOM     10  C   UNL     1      48.921  14.187  17.305  0.00  0.00    +0.041 C 
ATOM     11  C   UNL     1      49.168  13.481  15.971  0.00  0.00    +0.074 C 
ATOM     12  C   UNL     1      50.661  13.626  15.631  0.00  0.00    +0.147 C 
ATOM     15  C   UNL     1      51.454  12.963  16.731  0.00  0.00    +0.337 C 
ATOM     16  O   UNL     1      52.284  12.123  16.463  0.00  0.00    -0.437 OA
ATOM     17  C   UNL     1      51.207  13.352  18.174  0.00  0.00    -0.066 C 
ATOM     18  C   UNL     1      51.940  14.662  18.483  0.00  0.00    +0.066 C 
ATOM     19  C   UNL     1      51.774  12.240  19.065  0.00  0.00    +0.061 C 
ATOM     20  C   UNL     1      47.446  14.392  17.563  0.00  0.00    -0.078 C 
ATOM     21  C   UNL     1      46.619  13.268  16.935  0.00  0.00    +0.054 C 
ATOM     22  C   UNL     1      47.059  15.708  16.898  0.00  0.00    +0.372 C 
ATOM     23  C   UNL     1      47.665  16.987  17.456  0.00  0.00    +0.022 C 
ATOM     24  O   UNL     1      46.300  15.729  15.964  0.00  0.00    -0.437 OA
ATOM     25  C   UNL     1      47.223  17.058  18.907  0.00  0.00    -0.047 C 
ATOM     26  C   UNL     1      45.731  17.374  18.968  0.00  0.00    +0.032 C 
ATOM     27  C   UNL     1      47.954  18.112  19.758  0.00  0.00    -0.001 C 
ENDROOT
BRANCH  12  13
ATOM     13  O   UNL     1      50.927  12.985  14.384  0.00  0.00    -0.544 OA
ATOM     14  H   UNL     1      50.391  13.315  13.650  0.00  0.00    +0.386 HD
ENDBRANCH  12  13
BRANCH  27  28
ATOM     28  C   UNL     1      47.197  19.438  19.704  0.00  0.00    +0.190 C 
BRANCH  28  29
ATOM     29  O   UNL     1      46.673  19.633  18.389  0.00  0.00    -0.538 OA
ATOM     30  H   UNL     1      47.150  20.295  17.869  0.00  0.00    +0.374 HD
ENDBRANCH  28  29
BRANCH  28  31
ATOM     31  C   UNL     1      48.137  20.566  20.043  0.00  0.00    +0.364 C 
ATOM     37  O   UNL     1      47.727  21.534  20.649  0.00  0.00    -0.453 OA
BRANCH  31  32
ATOM     32  C   UNL     1      49.541  20.496  19.641  0.00  0.00    -0.120 C 
ATOM     33  C   UNL     1      49.913  20.931  18.436  0.00  0.00    +0.087 C 
BRANCH  33  34
ATOM     34  C   UNL     1      51.361  20.858  18.022  0.00  0.00    +0.002 C 
ATOM     35  C   UNL     1      51.484  21.201  16.536  0.00  0.00    +0.036 C 
ATOM     36  C   UNL     1      51.889  19.442  18.264  0.00  0.00    +0.036 C 
ENDBRANCH  33  34
ENDBRANCH  31  32
ENDBRANCH  28  31
ENDBRANCH  27  28
TORSDOF 6
ENDMDL
MODEL 2
REMARK VINA RESULT:      -5.7      3.413      8.671
REMARK  Name = ZINC95486156
REMARK  14 active torsions:
REMARK  status: ('A' for Active; 'I' for Inactive)
REMARK    1  A    between atoms: C1_1  and  C2_2
REMARK    2  A    between atoms: C5_7  and  C30_41
REMARK    3  A    between atoms: C10_13  and  C23_31
REMARK    4  A    between atoms: C13_17  and  C22_30
REMARK    5  A    between atoms: C14_18  and  C15_20
REMARK    6  A    between atoms: C15_20  and  C16_22
REMARK    7  A    between atoms: C15_20  and  O3_29
REMARK    8  A    between atoms: C16_22  and  C17_24
REMARK    9  A    between atoms: C18_25  and  C19_26
REMARK   10  A    between atoms: C19_26  and  C20_27
REMARK   11  A    between atoms: C19_26  and  C21_28
REMARK   12  A    between atoms: C25_33  and  O5_40
REMARK   13  A    between atoms: C27_37  and  C28_38
REMARK   14  A    between atoms: C27_37  and  C29_39
REMARK                            x       y       z     vdW  Elec       q    Type
REMARK                         _______ _______ _______ _____ _____    ______ ____
ROOT
ATOM      1  C   UNL     1      46.841  14.609  20.140  0.00  0.00    +0.041 C 
ATOM      2  C   UNL     1      45.730  15.636  19.935  0.00  0.00    -0.009 C 
ATOM      3  C   UNL     1      45.713  16.657  21.111  0.00  0.00    +0.036 C 
ATOM      4  C   UNL     1      45.320  17.949  20.379  0.00  0.00    -0.001 C 
ATOM      5  C   UNL     1      45.302  19.232  21.142  0.00  0.00    -0.018 C 
ATOM      6  C   UNL     1      46.633  19.518  21.852  0.00  0.00    +0.032 C 
ATOM      7  C   UNL     1      44.247  19.193  22.255  0.00  0.00    +0.076 C 
ATOM      8  C   UNL     1      42.864  19.129  21.676  0.00  0.00    -0.011 C 
ATOM      9  C   UNL     1      42.549  19.705  20.554  0.00  0.00    -0.107 C 
ATOM     10  C   UNL     1      43.567  20.390  19.693  0.00  0.00    +0.041 C 
ATOM     11  C   UNL     1      43.087  21.794  19.321  0.00  0.00    +0.074 C 
ATOM     12  C   UNL     1      41.791  21.649  18.506  0.00  0.00    +0.147 C 
ATOM     15  C   UNL     1      40.771  20.960  19.379  0.00  0.00    +0.337 C 
ATOM     16  O   UNL     1      39.678  21.455  19.546  0.00  0.00    -0.437 OA
ATOM     17  C   UNL     1      41.118  19.646  20.047  0.00  0.00    -0.066 C 
ATOM     18  C   UNL     1      40.972  18.504  19.034  0.00  0.00    +0.066 C 
ATOM     19  C   UNL     1      40.126  19.424  21.195  0.00  0.00    +0.061 C 
ATOM     20  C   UNL     1      44.991  20.403  20.199  0.00  0.00    -0.078 C 
ATOM     21  C   UNL     1      45.306  21.717  20.916  0.00  0.00    +0.054 C 
ATOM     22  C   UNL     1      45.895  20.289  18.977  0.00  0.00    +0.372 C 
ATOM     23  C   UNL     1      45.847  18.994  18.179  0.00  0.00    +0.022 C 
ATOM     24  O   UNL     1      46.620  21.195  18.657  0.00  0.00    -0.437 OA
ATOM     25  C   UNL     1      46.243  17.894  19.149  0.00  0.00    -0.047 C 
ATOM     26  C   UNL     1      47.733  18.006  19.461  0.00  0.00    +0.032 C 
ATOM     27  C   UNL     1      45.982  16.462  18.648  0.00  0.00    -0.001 C 
ENDROOT
BRANCH  12  13
ATOM     13  O   UNL     1      41.318  22.943  18.133  0.00  0.00    -0.544 OA
ATOM     14  H   UNL     1      40.860  23.414  18.842  0.00  0.00    +0.386 HD
ENDBRANCH  12  13
BRANCH  27  28
ATOM     28  C   UNL     1      47.213  15.938  17.910  0.00  0.00    +0.190 C 
BRANCH  28  29
ATOM     29  O   UNL     1      48.039  17.037  17.522  0.00  0.00    -0.538 OA
ATOM     30  H   UNL     1      47.599  17.676  16.945  0.00  0.00    +0.374 HD
ENDBRANCH  28  29
BRANCH  28  31
ATOM     31  C   UNL     1      46.777  15.179  16.683  0.00  0.00    +0.364 C 
ATOM     37  O   UNL     1      46.231  15.764  15.771  0.00  0.00    -0.453 OA
BRANCH  31  32
ATOM     32  C   UNL     1      47.011  13.739  16.592  0.00  0.00    -0.120 C 
ATOM     33  C   UNL     1      46.091  12.884  17.042  0.00  0.00    +0.087 C 
BRANCH  33  34
ATOM     34  C   UNL     1      46.333  11.398  16.948  0.00  0.00    +0.002 C 
ATOM     35  C   UNL     1      47.706  11.067  17.537  0.00  0.00    +0.036 C 
ATOM     36  C   UNL     1      46.290  10.967  15.481  0.00  0.00    +0.036 C 
ENDBRANCH  33  34
ENDBRANCH  31  32
ENDBRANCH  28  31
ENDBRANCH  27  28
TORSDOF 6
ENDMDL
MODEL 3
REMARK VINA RESULT:      -5.7      1.636      2.282
REMARK  Name = ZINC95486156
REMARK  14 active torsions:
REMARK  status: ('A' for Active; 'I' for Inactive)
REMARK    1  A    between atoms: C1_1  and  C2_2
REMARK    2  A    between atoms: C5_7  and  C30_41
REMARK    3  A    between atoms: C10_13  and  C23_31
REMARK    4  A    between atoms: C13_17  and  C22_30
REMARK    5  A    between atoms: C14_18  and  C15_20
REMARK    6  A    between atoms: C15_20  and  C16_22
REMARK    7  A    between atoms: C15_20  and  O3_29
REMARK    8  A    between atoms: C16_22  and  C17_24
REMARK    9  A    between atoms: C18_25  and  C19_26
REMARK   10  A    between atoms: C19_26  and  C20_27
REMARK   11  A    between atoms: C19_26  and  C21_28
REMARK   12  A    between atoms: C25_33  and  O5_40
REMARK   13  A    between atoms: C27_37  and  C28_38
REMARK   14  A    between atoms: C27_37  and  C29_39
REMARK                            x       y       z     vdW  Elec       q    Type
REMARK                         _______ _______ _______ _____ _____    ______ ____
ROOT
ATOM      1  C   UNL     1      50.699  18.539  22.505  0.00  0.00    +0.041 C 
ATOM      2  C   UNL     1      50.518  17.590  21.322  0.00  0.00    -0.009 C 
ATOM      3  C   UNL     1      49.623  16.382  21.728  0.00  0.00    +0.036 C 
ATOM      4  C   UNL     1      48.845  16.135  20.427  0.00  0.00    -0.001 C 
ATOM      5  C   UNL     1      47.764  15.107  20.419  0.00  0.00    -0.018 C 
ATOM      6  C   UNL     1      46.717  15.337  21.518  0.00  0.00    +0.032 C 
ATOM      7  C   UNL     1      48.335  13.708  20.688  0.00  0.00    +0.076 C 
ATOM      8  C   UNL     1      49.224  13.270  19.560  0.00  0.00    -0.011 C 
ATOM      9  C   UNL     1      49.008  13.615  18.326  0.00  0.00    -0.107 C 
ATOM     10  C   UNL     1      47.915  14.568  17.941  0.00  0.00    +0.041 C 
ATOM     11  C   UNL     1      47.074  13.979  16.808  0.00  0.00    +0.074 C 
ATOM     12  C   UNL     1      47.993  13.787  15.590  0.00  0.00    +0.147 C 
ATOM     15  C   UNL     1      49.088  12.826  15.983  0.00  0.00    +0.337 C 
ATOM     16  O   UNL     1      49.307  11.842  15.311  0.00  0.00    -0.437 OA
ATOM     17  C   UNL     1      49.915  13.096  17.223  0.00  0.00    -0.066 C 
ATOM     18  C   UNL     1      50.992  14.139  16.902  0.00  0.00    +0.066 C 
ATOM     19  C   UNL     1      50.596  11.785  17.631  0.00  0.00    +0.061 C 
ATOM     20  C   UNL     1      47.050  15.102  19.059  0.00  0.00    -0.078 C 
ATOM     21  C   UNL     1      45.754  14.298  19.180  0.00  0.00    +0.054 C 
ATOM     22  C   UNL     1      46.698  16.540  18.697  0.00  0.00    +0.372 C 
ATOM     23  C   UNL     1      47.829  17.556  18.650  0.00  0.00    +0.022 C 
ATOM     24  O   UNL     1      45.561  16.856  18.456  0.00  0.00    -0.437 OA
ATOM     25  C   UNL     1      48.434  17.568  20.043  0.00  0.00    -0.047 C 
ATOM     26  C   UNL     1      47.463  18.236  21.012  0.00  0.00    +0.032 C 
ATOM     27  C   UNL     1      49.782  18.303  20.160  0.00  0.00    -0.001 C 
ENDROOT
BRANCH  12  13
ATOM     13  O   UNL     1      47.236  13.246  14.506  0.00  0.00    -0.544 OA
ATOM     14  H   UNL     1      47.389  13.689  13.660  0.00  0.00    +0.386 HD
ENDBRANCH  12  13
BRANCH  27  28
ATOM     28  C   UNL     1      49.543  19.773  20.501  0.00  0.00    +0.190 C 
BRANCH  28  29
ATOM     29  O   UNL     1      48.307  20.201  19.925  0.00  0.00    -0.538 OA
ATOM     30  H   UNL     1      48.388  20.526  19.018  0.00  0.00    +0.374 HD
ENDBRANCH  28  29
BRANCH  28  31
ATOM     31  C   UNL     1      50.670  20.606  19.949  0.00  0.00    +0.364 C 
ATOM     37  O   UNL     1      51.375  21.247  20.701  0.00  0.00    -0.453 OA
BRANCH  31  32
ATOM     32  C   UNL     1      50.915  20.643  18.508  0.00  0.00    -0.120 C 
ATOM     33  C   UNL     1      52.040  20.127  18.009  0.00  0.00    +0.087 C 
BRANCH  33  34
ATOM     34  C   UNL     1      52.291  20.166  16.523  0.00  0.00    +0.002 C 
ATOM     35  C   UNL     1      51.532  21.344  15.908  0.00  0.00    +0.036 C 
ATOM     36  C   UNL     1      51.805  18.860  15.889  0.00  0.00    +0.036 C 
ENDBRANCH  33  34
ENDBRANCH  31  32
ENDBRANCH  28  31
ENDBRANCH  27  28
TORSDOF 6
ENDMDL
MODEL 4
REMARK VINA RESULT:      -5.6      2.886      5.429
REMARK  Name = ZINC95486156
REMARK  14 active torsions:
REMARK  status: ('A' for Active; 'I' for Inactive)
REMARK    1  A    between atoms: C1_1  and  C2_2
REMARK    2  A    between atoms: C5_7  and  C30_41
REMARK    3  A    between atoms: C10_13  and  C23_31
REMARK    4  A    between atoms: C13_17  and  C22_30
REMARK    5  A    between atoms: C14_18  and  C15_20
REMARK    6  A    between atoms: C15_20  and  C16_22
REMARK    7  A    between atoms: C15_20  and  O3_29
REMARK    8  A    between atoms: C16_22  and  C17_24
REMARK    9  A    between atoms: C18_25  and  C19_26
REMARK   10  A    between atoms: C19_26  and  C20_27
REMARK   11  A    between atoms: C19_26  and  C21_28
REMARK   12  A    between atoms: C25_33  and  O5_40
REMARK   13  A    between atoms: C27_37  and  C28_38
REMARK   14  A    between atoms: C27_37  and  C29_39
REMARK                            x       y       z     vdW  Elec       q    Type
REMARK                         _______ _______ _______ _____ _____    ______ ____
ROOT
ATOM      1  C   UNL     1      44.946  16.618  22.505  0.00  0.00    +0.041 C 
ATOM      2  C   UNL     1      46.146  17.425  22.012  0.00  0.00    -0.009 C 
ATOM      3  C   UNL     1      47.314  16.473  21.619  0.00  0.00    +0.036 C 
ATOM      4  C   UNL     1      47.915  17.217  20.417  0.00  0.00    -0.001 C 
ATOM      5  C   UNL     1      49.018  16.569  19.648  0.00  0.00    -0.018 C 
ATOM      6  C   UNL     1      48.651  15.164  19.153  0.00  0.00    +0.032 C 
ATOM      7  C   UNL     1      50.261  16.380  20.526  0.00  0.00    +0.076 C 
ATOM      8  C   UNL     1      50.851  17.706  20.907  0.00  0.00    -0.011 C 
ATOM      9  C   UNL     1      50.810  18.741  20.121  0.00  0.00    -0.107 C 
ATOM     10  C   UNL     1      50.074  18.724  18.815  0.00  0.00    +0.041 C 
ATOM     11  C   UNL     1      50.976  19.240  17.692  0.00  0.00    +0.074 C 
ATOM     12  C   UNL     1      51.344  20.697  18.015  0.00  0.00    +0.147 C 
ATOM     15  C   UNL     1      52.086  20.707  19.330  0.00  0.00    +0.337 C 
ATOM     16  O   UNL     1      53.168  21.243  19.416  0.00  0.00    -0.437 OA
ATOM     17  C   UNL     1      51.471  20.042  20.544  0.00  0.00    -0.066 C 
ATOM     18  C   UNL     1      50.427  20.978  21.165  0.00  0.00    +0.066 C 
ATOM     19  C   UNL     1      52.589  19.795  21.563  0.00  0.00    +0.061 C 
ATOM     20  C   UNL     1      49.391  17.432  18.432  0.00  0.00    -0.078 C 
ATOM     21  C   UNL     1      50.267  16.607  17.488  0.00  0.00    +0.054 C 
ATOM     22  C   UNL     1      48.108  17.809  17.700  0.00  0.00    +0.372 C 
ATOM     23  C   UNL     1      47.025  18.525  18.492  0.00  0.00    +0.022 C 
ATOM     24  O   UNL     1      47.963  17.548  16.534  0.00  0.00    -0.437 OA
ATOM     25  C   UNL     1      46.648  17.585  19.624  0.00  0.00    -0.047 C 
ATOM     26  C   UNL     1      45.878  16.395  19.059  0.00  0.00    +0.032 C 
ATOM     27  C   UNL     1      45.781  18.214  20.729  0.00  0.00    -0.001 C 
ENDROOT
BRANCH  12  13
ATOM     13  O   UNL     1      52.181  21.215  16.981  0.00  0.00    -0.544 OA
ATOM     14  H   UNL     1      52.410  20.567  16.300  0.00  0.00    +0.386 HD
ENDBRANCH  12  13
BRANCH  27  28
ATOM     28  C   UNL     1      44.301  18.033  20.394  0.00  0.00    +0.190 C 
BRANCH  28  29
ATOM     29  O   UNL     1      44.125  18.079  18.977  0.00  0.00    -0.538 OA
ATOM     30  H   UNL     1      43.532  17.397  18.632  0.00  0.00    +0.374 HD
ENDBRANCH  28  29
BRANCH  28  31
ATOM     31  C   UNL     1      43.502  19.137  21.036  0.00  0.00    +0.364 C 
ATOM     37  O   UNL     1      42.473  18.878  21.624  0.00  0.00    -0.453 OA
BRANCH  31  32
ATOM     32  C   UNL     1      43.966  20.521  20.950  0.00  0.00    -0.120 C 
ATOM     33  C   UNL     1      44.226  21.066  19.760  0.00  0.00    +0.087 C 
BRANCH  33  34
ATOM     34  C   UNL     1      44.704  22.493  19.673  0.00  0.00    +0.002 C 
ATOM     35  C   UNL     1      45.513  22.837  20.927  0.00  0.00    +0.036 C 
ATOM     36  C   UNL     1      43.498  23.429  19.572  0.00  0.00    +0.036 C 
ENDBRANCH  33  34
ENDBRANCH  31  32
ENDBRANCH  28  31
ENDBRANCH  27  28
TORSDOF 6
ENDMDL
MODEL 5
REMARK VINA RESULT:      -5.5      2.895      6.176
REMARK  Name = ZINC95486156
REMARK  14 active torsions:
REMARK  status: ('A' for Active; 'I' for Inactive)
REMARK    1  A    between atoms: C1_1  and  C2_2
REMARK    2  A    between atoms: C5_7  and  C30_41
REMARK    3  A    between atoms: C10_13  and  C23_31
REMARK    4  A    between atoms: C13_17  and  C22_30
REMARK    5  A    between atoms: C14_18  and  C15_20
REMARK    6  A    between atoms: C15_20  and  C16_22
REMARK    7  A    between atoms: C15_20  and  O3_29
REMARK    8  A    between atoms: C16_22  and  C17_24
REMARK    9  A    between atoms: C18_25  and  C19_26
REMARK   10  A    between atoms: C19_26  and  C20_27
REMARK   11  A    between atoms: C19_26  and  C21_28
REMARK   12  A    between atoms: C25_33  and  O5_40
REMARK   13  A    between atoms: C27_37  and  C28_38
REMARK   14  A    between atoms: C27_37  and  C29_39
REMARK                            x       y       z     vdW  Elec       q    Type
REMARK                         _______ _______ _______ _____ _____    ______ ____
ROOT
ATOM      1  C   UNL     1      52.158  17.245  17.690  0.00  0.00    +0.041 C 
ATOM      2  C   UNL     1      50.775  17.516  18.276  0.00  0.00    -0.009 C 
ATOM      3  C   UNL     1      49.672  16.874  17.384  0.00  0.00    +0.036 C 
ATOM      4  C   UNL     1      48.651  16.431  18.442  0.00  0.00    -0.001 C 
ATOM      5  C   UNL     1      47.459  15.645  18.007  0.00  0.00    -0.018 C 
ATOM      6  C   UNL     1      47.835  14.388  17.210  0.00  0.00    +0.032 C 
ATOM      7  C   UNL     1      46.570  16.471  17.069  0.00  0.00    +0.076 C 
ATOM      8  C   UNL     1      45.958  17.631  17.799  0.00  0.00    -0.011 C 
ATOM      9  C   UNL     1      45.632  17.572  19.056  0.00  0.00    -0.107 C 
ATOM     10  C   UNL     1      45.939  16.376  19.907  0.00  0.00    +0.041 C 
ATOM     11  C   UNL     1      44.685  15.923  20.657  0.00  0.00    +0.074 C 
ATOM     12  C   UNL     1      44.250  17.071  21.583  0.00  0.00    +0.147 C 
ATOM     15  C   UNL     1      43.941  18.270  20.721  0.00  0.00    +0.337 C 
ATOM     16  O   UNL     1      42.874  18.836  20.822  0.00  0.00    -0.437 OA
ATOM     17  C   UNL     1      44.969  18.764  19.725  0.00  0.00    -0.066 C 
ATOM     18  C   UNL     1      46.024  19.604  20.454  0.00  0.00    +0.066 C 
ATOM     19  C   UNL     1      44.247  19.649  18.701  0.00  0.00    +0.061 C 
ATOM     20  C   UNL     1      46.634  15.217  19.231  0.00  0.00    -0.078 C 
ATOM     21  C   UNL     1      45.627  14.148  18.802  0.00  0.00    +0.054 C 
ATOM     22  C   UNL     1      47.580  14.608  20.259  0.00  0.00    +0.372 C 
ATOM     23  C   UNL     1      48.752  15.455  20.733  0.00  0.00    +0.022 C 
ATOM     24  O   UNL     1      47.402  13.494  20.679  0.00  0.00    -0.437 OA
ATOM     25  C   UNL     1      49.565  15.771  19.489  0.00  0.00    -0.047 C 
ATOM     26  C   UNL     1      50.275  14.506  19.013  0.00  0.00    +0.032 C 
ATOM     27  C   UNL     1      50.637  16.860  19.674  0.00  0.00    -0.001 C 
ENDROOT
BRANCH  12  13
ATOM     13  O   UNL     1      43.084  16.678  22.308  0.00  0.00    -0.544 OA
ATOM     14  H   UNL     1      43.165  15.820  22.747  0.00  0.00    +0.386 HD
ENDBRANCH  12  13
BRANCH  27  28
ATOM     28  C   UNL     1      51.959  16.222  20.096  0.00  0.00    +0.190 C 
BRANCH  28  29
ATOM     29  O   UNL     1      51.698  14.994  20.779  0.00  0.00    -0.538 OA
ATOM     30  H   UNL     1      51.723  14.214  20.209  0.00  0.00    +0.374 HD
ENDBRANCH  28  29
BRANCH  28  31
ATOM     31  C   UNL     1      52.699  17.160  21.014  0.00  0.00    +0.364 C 
ATOM     37  O   UNL     1      53.785  16.845  21.455  0.00  0.00    -0.453 OA
BRANCH  31  32
ATOM     32  C   UNL     1      52.110  18.449  21.373  0.00  0.00    -0.120 C 
ATOM     33  C   UNL     1      52.558  19.569  20.805  0.00  0.00    +0.087 C 
BRANCH  33  34
ATOM     34  C   UNL     1      51.950  20.898  21.176  0.00  0.00    +0.002 C 
ATOM     35  C   UNL     1      50.451  20.876  20.871  0.00  0.00    +0.036 C 
ATOM     36  C   UNL     1      52.619  22.009  20.365  0.00  0.00    +0.036 C 
ENDBRANCH  33  34
ENDBRANCH  31  32
ENDBRANCH  28  31
ENDBRANCH  27  28
TORSDOF 6
ENDMDL
MODEL 6
REMARK VINA RESULT:      -5.5      1.999      7.433
REMARK  Name = ZINC95486156
REMARK  14 active torsions:
REMARK  status: ('A' for Active; 'I' for Inactive)
REMARK    1  A    between atoms: C1_1  and  C2_2
REMARK    2  A    between atoms: C5_7  and  C30_41
REMARK    3  A    between atoms: C10_13  and  C23_31
REMARK    4  A    between atoms: C13_17  and  C22_30
REMARK    5  A    between atoms: C14_18  and  C15_20
REMARK    6  A    between atoms: C15_20  and  C16_22
REMARK    7  A    between atoms: C15_20  and  O3_29
REMARK    8  A    between atoms: C16_22  and  C17_24
REMARK    9  A    between atoms: C18_25  and  C19_26
REMARK   10  A    between atoms: C19_26  and  C20_27
REMARK   11  A    between atoms: C19_26  and  C21_28
REMARK   12  A    between atoms: C25_33  and  O5_40
REMARK   13  A    between atoms: C27_37  and  C28_38
REMARK   14  A    between atoms: C27_37  and  C29_39
REMARK                            x       y       z     vdW  Elec       q    Type
REMARK                         _______ _______ _______ _____ _____    ______ ____
ROOT
ATOM      1  C   UNL     1      51.509  13.693  19.307  0.00  0.00    +0.041 C 
ATOM      2  C   UNL     1      50.343  14.678  19.338  0.00  0.00    -0.009 C 
ATOM      3  C   UNL     1      50.527  15.700  20.498  0.00  0.00    +0.036 C 
ATOM      4  C   UNL     1      49.948  16.976  19.869  0.00  0.00    -0.001 C 
ATOM      5  C   UNL     1      50.040  18.258  20.627  0.00  0.00    -0.018 C 
ATOM      6  C   UNL     1      51.475  18.594  21.054  0.00  0.00    +0.032 C 
ATOM      7  C   UNL     1      49.234  18.183  21.930  0.00  0.00    +0.076 C 
ATOM      8  C   UNL     1      47.765  18.067  21.643  0.00  0.00    -0.011 C 
ATOM      9  C   UNL     1      47.209  18.630  20.612  0.00  0.00    -0.107 C 
ATOM     10  C   UNL     1      48.006  19.351  19.566  0.00  0.00    +0.041 C 
ATOM     11  C   UNL     1      47.411  20.736  19.307  0.00  0.00    +0.074 C 
ATOM     12  C   UNL     1      45.983  20.541  18.771  0.00  0.00    +0.147 C 
ATOM     15  C   UNL     1      45.186  19.817  19.827  0.00  0.00    +0.337 C 
ATOM     16  O   UNL     1      44.132  20.272  20.215  0.00  0.00    -0.437 OA
ATOM     17  C   UNL     1      45.708  18.518  20.404  0.00  0.00    -0.066 C 
ATOM     18  C   UNL     1      45.401  17.369  19.435  0.00  0.00    +0.066 C 
ATOM     19  C   UNL     1      44.978  18.262  21.728  0.00  0.00    +0.061 C 
ATOM     20  C   UNL     1      49.502  19.416  19.773  0.00  0.00    -0.078 C 
ATOM     21  C   UNL     1      49.908  20.742  20.420  0.00  0.00    +0.054 C 
ATOM     22  C   UNL     1      50.143  19.333  18.392  0.00  0.00    +0.372 C 
ATOM     23  C   UNL     1      49.981  18.036  17.614  0.00  0.00    +0.022 C 
ATOM     24  O   UNL     1      50.756  20.264  17.938  0.00  0.00    -0.437 OA
ATOM     25  C   UNL     1      50.604  16.953  18.477  0.00  0.00    -0.047 C 
ATOM     26  C   UNL     1      52.122  17.119  18.481  0.00  0.00    +0.032 C 
ATOM     27  C   UNL     1      50.299  15.511  18.031  0.00  0.00    -0.001 C 
ENDROOT
BRANCH  12  13
ATOM     13  O   UNL     1      45.398  21.817  18.508  0.00  0.00    -0.544 OA
ATOM     14  H   UNL     1      45.849  22.321  17.816  0.00  0.00    +0.386 HD
ENDBRANCH  12  13
BRANCH  27  28
ATOM     28  C   UNL     1      51.373  15.031  17.056  0.00  0.00    +0.190 C 
BRANCH  28  29
ATOM     29  O   UNL     1      51.728  16.099  16.175  0.00  0.00    -0.538 OA
ATOM     30  H   UNL     1      52.651  16.082  15.888  0.00  0.00    +0.374 HD
ENDBRANCH  28  29
BRANCH  28  31
ATOM     31  C   UNL     1      50.841  13.872  16.253  0.00  0.00    +0.364 C 
ATOM     37  O   UNL     1      51.610  13.096  15.725  0.00  0.00    -0.453 OA
BRANCH  31  32
ATOM     32  C   UNL     1      49.398  13.683  16.110  0.00  0.00    -0.120 C 
ATOM     33  C   UNL     1      48.819  12.580  16.588  0.00  0.00    +0.087 C 
BRANCH  33  34
ATOM     34  C   UNL     1      47.332  12.385  16.440  0.00  0.00    +0.002 C 
ATOM     35  C   UNL     1      46.605  13.662  16.868  0.00  0.00    +0.036 C 
ATOM     36  C   UNL     1      46.879  11.221  17.324  0.00  0.00    +0.036 C 
ENDBRANCH  33  34
ENDBRANCH  31  32
ENDBRANCH  28  31
ENDBRANCH  27  28
TORSDOF 6
ENDMDL
MODEL 7
REMARK VINA RESULT:      -5.5      3.088      6.612
REMARK  Name = ZINC95486156
REMARK  14 active torsions:
REMARK  status: ('A' for Active; 'I' for Inactive)
REMARK    1  A    between atoms: C1_1  and  C2_2
REMARK    2  A    between atoms: C5_7  and  C30_41
REMARK    3  A    between atoms: C10_13  and  C23_31
REMARK    4  A    between atoms: C13_17  and  C22_30
REMARK    5  A    between atoms: C14_18  and  C15_20
REMARK    6  A    between atoms: C15_20  and  C16_22
REMARK    7  A    between atoms: C15_20  and  O3_29
REMARK    8  A    between atoms: C16_22  and  C17_24
REMARK    9  A    between atoms: C18_25  and  C19_26
REMARK   10  A    between atoms: C19_26  and  C20_27
REMARK   11  A    between atoms: C19_26  and  C21_28
REMARK   12  A    between atoms: C25_33  and  O5_40
REMARK   13  A    between atoms: C27_37  and  C28_38
REMARK   14  A    between atoms: C27_37  and  C29_39
REMARK                            x       y       z     vdW  Elec       q    Type
REMARK                         _______ _______ _______ _____ _____    ______ ____
ROOT
ATOM      1  C   UNL     1      52.167  16.640  17.518  0.00  0.00    +0.041 C 
ATOM      2  C   UNL     1      50.821  16.993  18.146  0.00  0.00    -0.009 C 
ATOM      3  C   UNL     1      49.655  16.430  17.280  0.00  0.00    +0.036 C 
ATOM      4  C   UNL     1      48.638  16.042  18.364  0.00  0.00    -0.001 C 
ATOM      5  C   UNL     1      47.387  15.337  17.957  0.00  0.00    -0.018 C 
ATOM      6  C   UNL     1      47.660  14.068  17.139  0.00  0.00    +0.032 C 
ATOM      7  C   UNL     1      46.525  16.228  17.053  0.00  0.00    +0.076 C 
ATOM      8  C   UNL     1      46.009  17.417  17.810  0.00  0.00    -0.011 C 
ATOM      9  C   UNL     1      45.716  17.366  19.075  0.00  0.00    -0.107 C 
ATOM     10  C   UNL     1      45.971  16.144  19.907  0.00  0.00    +0.041 C 
ATOM     11  C   UNL     1      44.713  15.763  20.689  0.00  0.00    +0.074 C 
ATOM     12  C   UNL     1      44.378  16.927  21.637  0.00  0.00    +0.147 C 
ATOM     15  C   UNL     1      44.121  18.152  20.794  0.00  0.00    +0.337 C 
ATOM     16  O   UNL     1      43.096  18.783  20.932  0.00  0.00    -0.437 OA
ATOM     17  C   UNL     1      45.150  18.590  19.773  0.00  0.00    -0.066 C 
ATOM     18  C   UNL     1      46.277  19.355  20.479  0.00  0.00    +0.066 C 
ATOM     19  C   UNL     1      44.457  19.529  18.779  0.00  0.00    +0.061 C 
ATOM     20  C   UNL     1      46.572  14.950  19.201  0.00  0.00    -0.078 C 
ATOM     21  C   UNL     1      45.486  13.952  18.792  0.00  0.00    +0.054 C 
ATOM     22  C   UNL     1      47.506  14.272  20.195  0.00  0.00    +0.372 C 
ATOM     23  C   UNL     1      48.742  15.038  20.642  0.00  0.00    +0.022 C 
ATOM     24  O   UNL     1      47.269  13.167  20.611  0.00  0.00    -0.437 OA
ATOM     25  C   UNL     1      49.538  15.315  19.379  0.00  0.00    -0.047 C 
ATOM     26  C   UNL     1      50.152  14.013  18.871  0.00  0.00    +0.032 C 
ATOM     27  C   UNL     1      50.681  16.333  19.541  0.00  0.00    -0.001 C 
ENDROOT
BRANCH  12  13
ATOM     13  O   UNL     1      43.210  16.601  22.392  0.00  0.00    -0.544 OA
ATOM     14  H   UNL     1      42.393  16.970  22.030  0.00  0.00    +0.386 HD
ENDBRANCH  12  13
BRANCH  27  28
ATOM     28  C   UNL     1      51.972  15.607  19.920  0.00  0.00    +0.190 C 
BRANCH  28  29
ATOM     29  O   UNL     1      51.687  14.612  20.905  0.00  0.00    -0.538 OA
ATOM     30  H   UNL     1      52.195  14.711  21.722  0.00  0.00    +0.374 HD
ENDBRANCH  28  29
BRANCH  28  31
ATOM     31  C   UNL     1      52.960  16.598  20.477  0.00  0.00    +0.364 C 
ATOM     37  O   UNL     1      52.569  17.654  20.930  0.00  0.00    -0.453 OA
BRANCH  31  32
ATOM     32  C   UNL     1      54.389  16.289  20.473  0.00  0.00    -0.120 C 
ATOM     33  C   UNL     1      54.903  15.522  19.510  0.00  0.00    +0.087 C 
BRANCH  33  34
ATOM     34  C   UNL     1      56.377  15.204  19.506  0.00  0.00    +0.002 C 
ATOM     35  C   UNL     1      56.574  13.699  19.706  0.00  0.00    +0.036 C 
ATOM     36  C   UNL     1      57.065  15.963  20.643  0.00  0.00    +0.036 C 
ENDBRANCH  33  34
ENDBRANCH  31  32
ENDBRANCH  28  31
ENDBRANCH  27  28
TORSDOF 6
ENDMDL
MODEL 8
REMARK VINA RESULT:      -5.4      2.733      5.298
REMARK  Name = ZINC95486156
REMARK  14 active torsions:
REMARK  status: ('A' for Active; 'I' for Inactive)
REMARK    1  A    between atoms: C1_1  and  C2_2
REMARK    2  A    between atoms: C5_7  and  C30_41
REMARK    3  A    between atoms: C10_13  and  C23_31
REMARK    4  A    between atoms: C13_17  and  C22_30
REMARK    5  A    between atoms: C14_18  and  C15_20
REMARK    6  A    between atoms: C15_20  and  C16_22
REMARK    7  A    between atoms: C15_20  and  O3_29
REMARK    8  A    between atoms: C16_22  and  C17_24
REMARK    9  A    between atoms: C18_25  and  C19_26
REMARK   10  A    between atoms: C19_26  and  C20_27
REMARK   11  A    between atoms: C19_26  and  C21_28
REMARK   12  A    between atoms: C25_33  and  O5_40
REMARK   13  A    between atoms: C27_37  and  C28_38
REMARK   14  A    between atoms: C27_37  and  C29_39
REMARK                            x       y       z     vdW  Elec       q    Type
REMARK                         _______ _______ _______ _____ _____    ______ ____
ROOT
ATOM      1  C   UNL     1      51.836  18.558  16.174  0.00  0.00    +0.041 C 
ATOM      2  C   UNL     1      50.708  17.775  16.843  0.00  0.00    -0.009 C 
ATOM      3  C   UNL     1      51.019  16.249  16.818  0.00  0.00    +0.036 C 
ATOM      4  C   UNL     1      50.431  15.803  18.165  0.00  0.00    -0.001 C 
ATOM      5  C   UNL     1      50.625  14.389  18.601  0.00  0.00    -0.018 C 
ATOM      6  C   UNL     1      52.100  13.966  18.606  0.00  0.00    +0.032 C 
ATOM      7  C   UNL     1      49.926  13.418  17.640  0.00  0.00    +0.076 C 
ATOM      8  C   UNL     1      48.436  13.587  17.701  0.00  0.00    -0.011 C 
ATOM      9  C   UNL     1      47.815  13.918  18.794  0.00  0.00    -0.107 C 
ATOM     10  C   UNL     1      48.547  14.263  20.057  0.00  0.00    +0.041 C 
ATOM     11  C   UNL     1      47.976  13.469  21.233  0.00  0.00    +0.074 C 
ATOM     12  C   UNL     1      46.503  13.877  21.406  0.00  0.00    +0.147 C 
ATOM     15  C   UNL     1      45.773  13.526  20.133  0.00  0.00    +0.337 C 
ATOM     16  O   UNL     1      44.770  12.848  20.173  0.00  0.00    -0.437 OA
ATOM     17  C   UNL     1      46.300  14.023  18.803  0.00  0.00    -0.066 C 
ATOM     18  C   UNL     1      45.878  15.484  18.601  0.00  0.00    +0.066 C 
ATOM     19  C   UNL     1      45.673  13.165  17.698  0.00  0.00    +0.061 C 
ATOM     20  C   UNL     1      50.056  14.189  20.014  0.00  0.00    -0.078 C 
ATOM     21  C   UNL     1      50.555  12.853  20.567  0.00  0.00    +0.054 C 
ATOM     22  C   UNL     1      50.579  15.310  20.904  0.00  0.00    +0.372 C 
ATOM     23  C   UNL     1      50.312  16.743  20.469  0.00  0.00    +0.022 C 
ATOM     24  O   UNL     1      51.181  15.064  21.917  0.00  0.00    -0.437 OA
ATOM     25  C   UNL     1      50.970  16.893  19.108  0.00  0.00    -0.047 C 
ATOM     26  C   UNL     1      52.487  16.901  19.276  0.00  0.00    +0.032 C 
ATOM     27  C   UNL     1      50.584  18.168  18.337  0.00  0.00    -0.001 C 
ENDROOT
BRANCH  12  13
ATOM     13  O   UNL     1      45.940  13.160  22.505  0.00  0.00    -0.544 OA
ATOM     14  H   UNL     1      45.275  12.507  22.248  0.00  0.00    +0.386 HD
ENDBRANCH  12  13
BRANCH  27  28
ATOM     28  C   UNL     1      51.559  19.294  18.676  0.00  0.00    +0.190 C 
BRANCH  28  29
ATOM     29  O   UNL     1      52.105  19.076  19.978  0.00  0.00    -0.538 OA
ATOM     30  H   UNL     1      52.848  19.655  20.195  0.00  0.00    +0.374 HD
ENDBRANCH  28  29
BRANCH  28  31
ATOM     31  C   UNL     1      50.830  20.613  18.650  0.00  0.00    +0.364 C 
ATOM     37  O   UNL     1      51.449  21.644  18.490  0.00  0.00    -0.453 OA
BRANCH  31  32
ATOM     32  C   UNL     1      49.379  20.650  18.819  0.00  0.00    -0.120 C 
ATOM     33  C   UNL     1      48.849  20.649  20.044  0.00  0.00    +0.087 C 
BRANCH  33  34
ATOM     34  C   UNL     1      47.352  20.688  20.217  0.00  0.00    +0.002 C 
ATOM     35  C   UNL     1      46.682  20.800  18.845  0.00  0.00    +0.036 C 
ATOM     36  C   UNL     1      46.968  21.898  21.071  0.00  0.00    +0.036 C 
ENDBRANCH  33  34
ENDBRANCH  31  32
ENDBRANCH  28  31
ENDBRANCH  27  28
TORSDOF 6
ENDMDL
MODEL 9
REMARK VINA RESULT:      -5.4      2.465      4.763
REMARK  Name = ZINC95486156
REMARK  14 active torsions:
REMARK  status: ('A' for Active; 'I' for Inactive)
REMARK    1  A    between atoms: C1_1  and  C2_2
REMARK    2  A    between atoms: C5_7  and  C30_41
REMARK    3  A    between atoms: C10_13  and  C23_31
REMARK    4  A    between atoms: C13_17  and  C22_30
REMARK    5  A    between atoms: C14_18  and  C15_20
REMARK    6  A    between atoms: C15_20  and  C16_22
REMARK    7  A    between atoms: C15_20  and  O3_29
REMARK    8  A    between atoms: C16_22  and  C17_24
REMARK    9  A    between atoms: C18_25  and  C19_26
REMARK   10  A    between atoms: C19_26  and  C20_27
REMARK   11  A    between atoms: C19_26  and  C21_28
REMARK   12  A    between atoms: C25_33  and  O5_40
REMARK   13  A    between atoms: C27_37  and  C28_38
REMARK   14  A    between atoms: C27_37  and  C29_39
REMARK                            x       y       z     vdW  Elec       q    Type
REMARK                         _______ _______ _______ _____ _____    ______ ____
ROOT
ATOM      1  C   UNL     1      52.497  18.681  18.101  0.00  0.00    +0.041 C 
ATOM      2  C   UNL     1      51.288  17.766  17.918  0.00  0.00    -0.009 C 
ATOM      3  C   UNL     1      51.638  16.312  18.351  0.00  0.00    +0.036 C 
ATOM      4  C   UNL     1      50.308  15.855  18.968  0.00  0.00    -0.001 C 
ATOM      5  C   UNL     1      50.242  14.519  19.629  0.00  0.00    -0.018 C 
ATOM      6  C   UNL     1      51.312  14.340  20.715  0.00  0.00    +0.032 C 
ATOM      7  C   UNL     1      50.498  13.393  18.618  0.00  0.00    +0.076 C 
ATOM      8  C   UNL     1      49.390  13.323  17.608  0.00  0.00    -0.011 C 
ATOM      9  C   UNL     1      48.157  13.612  17.902  0.00  0.00    -0.107 C 
ATOM     10  C   UNL     1      47.759  14.144  19.246  0.00  0.00    +0.041 C 
ATOM     11  C   UNL     1      46.586  13.338  19.808  0.00  0.00    +0.074 C 
ATOM     12  C   UNL     1      45.394  13.512  18.852  0.00  0.00    +0.147 C 
ATOM     15  C   UNL     1      45.801  12.974  17.502  0.00  0.00    +0.337 C 
ATOM     16  O   UNL     1      45.115  12.147  16.944  0.00  0.00    -0.437 OA
ATOM     17  C   UNL     1      47.073  13.472  16.847  0.00  0.00    -0.066 C 
ATOM     18  C   UNL     1      46.809  14.831  16.188  0.00  0.00    +0.066 C 
ATOM     19  C   UNL     1      47.472  12.461  15.766  0.00  0.00    +0.061 C 
ATOM     20  C   UNL     1      48.860  14.313  20.267  0.00  0.00    -0.078 C 
ATOM     21  C   UNL     1      48.922  13.109  21.210  0.00  0.00    +0.054 C 
ATOM     22  C   UNL     1      48.519  15.553  21.085  0.00  0.00    +0.372 C 
ATOM     23  C   UNL     1      48.531  16.897  20.371  0.00  0.00    +0.022 C 
ATOM     24  O   UNL     1      48.249  15.467  22.255  0.00  0.00    -0.437 OA
ATOM     25  C   UNL     1      49.943  17.071  19.838  0.00  0.00    -0.047 C 
ATOM     26  C   UNL     1      50.895  17.334  21.002  0.00  0.00    +0.032 C 
ATOM     27  C   UNL     1      50.119  18.219  18.829  0.00  0.00    -0.001 C 
ENDROOT
BRANCH  12  13
ATOM     13  O   UNL     1      44.275  12.779  19.352  0.00  0.00    -0.544 OA
ATOM     14  H   UNL     1      43.759  13.256  20.017  0.00  0.00    +0.386 HD
ENDBRANCH  12  13
BRANCH  27  28
ATOM     28  C   UNL     1      50.485  19.507  19.566  0.00  0.00    +0.190 C 
BRANCH  28  29
ATOM     29  O   UNL     1      50.220  19.348  20.961  0.00  0.00    -0.538 OA
ATOM     30  H   UNL     1      50.130  18.427  21.242  0.00  0.00    +0.374 HD
ENDBRANCH  28  29
BRANCH  28  31
ATOM     31  C   UNL     1      49.663  20.647  19.024  0.00  0.00    +0.364 C 
ATOM     37  O   UNL     1      50.140  21.401  18.202  0.00  0.00    -0.453 OA
BRANCH  31  32
ATOM     32  C   UNL     1      48.291  20.845  19.488  0.00  0.00    -0.120 C 
ATOM     33  C   UNL     1      47.275  20.288  18.826  0.00  0.00    +0.087 C 
BRANCH  33  34
ATOM     34  C   UNL     1      45.861  20.493  19.305  0.00  0.00    +0.002 C 
ATOM     35  C   UNL     1      44.912  19.615  18.485  0.00  0.00    +0.036 C 
ATOM     36  C   UNL     1      45.472  21.963  19.132  0.00  0.00    +0.036 C 
ENDBRANCH  33  34
ENDBRANCH  31  32
ENDBRANCH  28  31
ENDBRANCH  27  28
TORSDOF 6
ENDMDL
