MODEL 1
REMARK VINA RESULT:      -7.2      0.000      0.000
REMARK  Name = ZINC95486053
REMARK  3 active torsions:
REMARK  status: ('A' for Active; 'I' for Inactive)
REMARK    1  A    between atoms: C1_1  and  C2_2
REMARK    2  A    between atoms: C2_2  and  C22_30
REMARK    3  A    between atoms: C19_22  and  O4_25
REMARK                            x       y       z     vdW  Elec       q    Type
REMARK                         _______ _______ _______ _____ _____    ______ ____
ROOT
ATOM      1  C   UNL     1      52.589  18.900  18.293  0.00  0.00    +0.034 C 
ATOM      2  C   UNL     1      52.350  17.775  19.302  0.00  0.00    +0.109 C 
ATOM      3  C   UNL     1      53.637  16.966  19.486  0.00  0.00    +0.080 C 
ATOM      4  C   UNL     1      51.917  18.370  20.647  0.00  0.00    +0.021 C 
ATOM      5  C   UNL     1      50.696  19.261  20.405  0.00  0.00    +0.101 C 
ATOM      6  C   UNL     1      49.686  18.519  19.566  0.00  0.00    -0.202 A 
ATOM      7  C   UNL     1      50.040  17.405  18.824  0.00  0.00    +0.211 A 
ATOM      8  C   UNL     1      49.084  16.742  18.050  0.00  0.00    -0.046 A 
ATOM      9  C   UNL     1      47.791  17.177  18.022  0.00  0.00    +0.152 A 
ATOM     10  C   UNL     1      47.420  18.295  18.770  0.00  0.00    -0.279 A 
ATOM     11  C   UNL     1      46.023  18.772  18.763  0.00  0.00    +0.391 C 
ATOM     12  O   UNL     1      45.201  18.375  17.964  0.00  0.00    -0.421 OA
ATOM     13  C   UNL     1      45.694  19.794  19.833  0.00  0.00    +0.114 C 
ATOM     16  C   UNL     1      44.434  20.543  19.501  0.00  0.00    -0.203 A 
ATOM     17  C   UNL     1      43.365  19.835  18.957  0.00  0.00    +0.127 A 
ATOM     18  C   UNL     1      42.197  20.531  18.694  0.00  0.00    -0.004 A 
ATOM     19  O   UNL     1      41.022  20.102  18.179  0.00  0.00    -0.301 OA
ATOM     20  C   UNL     1      40.062  21.131  18.499  0.00  0.00    +0.437 C 
ATOM     21  O   UNL     1      40.860  22.327  18.621  0.00  0.00    -0.299 OA
ATOM     22  C   UNL     1      42.097  21.905  18.964  0.00  0.00    +0.086 A 
ATOM     23  C   UNL     1      43.165  22.607  19.499  0.00  0.00    +0.022 A 
ATOM     24  C   UNL     1      44.345  21.902  19.760  0.00  0.00    +0.165 A 
ATOM     25  O   UNL     1      45.386  22.610  20.276  0.00  0.00    -0.295 OA
ATOM     26  C   UNL     1      46.502  21.906  20.828  0.00  0.00    +0.306 C 
ATOM     27  C   UNL     1      46.871  20.783  19.862  0.00  0.00    +0.174 C 
ATOM     28  O   UNL     1      48.044  20.083  20.261  0.00  0.00    -0.277 OA
ATOM     29  C   UNL     1      48.376  18.978  19.542  0.00  0.00    +0.219 A 
ATOM     30  O   UNL     1      51.308  16.919  18.832  0.00  0.00    -0.297 OA
ENDROOT
BRANCH  13  14
ATOM     14  O   UNL     1      45.565  19.160  21.107  0.00  0.00    -0.514 OA
ATOM     15  H   UNL     1      46.234  19.432  21.750  0.00  0.00    +0.389 HD
ENDBRANCH  13  14
TORSDOF 1
ENDMDL
MODEL 2
REMARK VINA RESULT:      -7.0      1.543      2.677
REMARK  Name = ZINC95486053
REMARK  3 active torsions:
REMARK  status: ('A' for Active; 'I' for Inactive)
REMARK    1  A    between atoms: C1_1  and  C2_2
REMARK    2  A    between atoms: C2_2  and  C22_30
REMARK    3  A    between atoms: C19_22  and  O4_25
REMARK                            x       y       z     vdW  Elec       q    Type
REMARK                         _______ _______ _______ _____ _____    ______ ____
ROOT
ATOM      1  C   UNL     1      51.992  17.837  21.605  0.00  0.00    +0.034 C 
ATOM      2  C   UNL     1      52.208  17.568  20.114  0.00  0.00    +0.109 C 
ATOM      3  C   UNL     1      53.685  17.263  19.854  0.00  0.00    +0.080 C 
ATOM      4  C   UNL     1      51.348  16.377  19.674  0.00  0.00    +0.021 C 
ATOM      5  C   UNL     1      49.894  16.671  20.051  0.00  0.00    +0.101 C 
ATOM      6  C   UNL     1      49.522  18.059  19.594  0.00  0.00    -0.202 A 
ATOM      7  C   UNL     1      50.488  19.000  19.281  0.00  0.00    +0.211 A 
ATOM      8  C   UNL     1      50.114  20.281  18.867  0.00  0.00    -0.046 A 
ATOM      9  C   UNL     1      48.796  20.618  18.755  0.00  0.00    +0.152 A 
ATOM     10  C   UNL     1      47.813  19.675  19.061  0.00  0.00    -0.279 A 
ATOM     11  C   UNL     1      46.382  20.015  18.934  0.00  0.00    +0.391 C 
ATOM     12  O   UNL     1      45.993  21.154  18.782  0.00  0.00    -0.421 OA
ATOM     13  C   UNL     1      45.437  18.833  19.005  0.00  0.00    +0.114 C 
ATOM     16  C   UNL     1      44.034  19.275  19.310  0.00  0.00    -0.203 A 
ATOM     17  C   UNL     1      43.553  20.428  18.695  0.00  0.00    +0.127 A 
ATOM     18  C   UNL     1      42.245  20.800  18.955  0.00  0.00    -0.004 A 
ATOM     19  O   UNL     1      41.529  21.854  18.498  0.00  0.00    -0.301 OA
ATOM     20  C   UNL     1      40.148  21.527  18.763  0.00  0.00    +0.437 C 
ATOM     21  O   UNL     1      40.214  20.620  19.884  0.00  0.00    -0.299 OA
ATOM     22  C   UNL     1      41.433  20.041  19.812  0.00  0.00    +0.086 A 
ATOM     23  C   UNL     1      41.918  18.898  20.428  0.00  0.00    +0.022 A 
ATOM     24  C   UNL     1      43.241  18.527  20.166  0.00  0.00    +0.165 A 
ATOM     25  O   UNL     1      43.702  17.407  20.787  0.00  0.00    -0.295 OA
ATOM     26  C   UNL     1      44.929  16.820  20.344  0.00  0.00    +0.306 C 
ATOM     27  C   UNL     1      45.943  17.945  20.153  0.00  0.00    +0.174 C 
ATOM     28  O   UNL     1      47.238  17.460  19.818  0.00  0.00    -0.277 OA
ATOM     29  C   UNL     1      48.178  18.387  19.492  0.00  0.00    +0.219 A 
ATOM     30  O   UNL     1      51.813  18.713  19.357  0.00  0.00    -0.297 OA
ENDROOT
BRANCH  13  14
ATOM     14  O   UNL     1      45.463  18.098  17.780  0.00  0.00    -0.514 OA
ATOM     15  H   UNL     1      45.341  17.145  17.891  0.00  0.00    +0.389 HD
ENDBRANCH  13  14
TORSDOF 1
ENDMDL
MODEL 3
REMARK VINA RESULT:      -6.7      3.150      7.838
REMARK  Name = ZINC95486053
REMARK  3 active torsions:
REMARK  status: ('A' for Active; 'I' for Inactive)
REMARK    1  A    between atoms: C1_1  and  C2_2
REMARK    2  A    between atoms: C2_2  and  C22_30
REMARK    3  A    between atoms: C19_22  and  O4_25
REMARK                            x       y       z     vdW  Elec       q    Type
REMARK                         _______ _______ _______ _____ _____    ______ ____
ROOT
ATOM      1  C   UNL     1      46.428  21.375  22.229  0.00  0.00    +0.034 C 
ATOM      2  C   UNL     1      45.332  21.727  21.220  0.00  0.00    +0.109 C 
ATOM      3  C   UNL     1      44.568  22.963  21.700  0.00  0.00    +0.080 C 
ATOM      4  C   UNL     1      45.962  22.008  19.850  0.00  0.00    +0.021 C 
ATOM      5  C   UNL     1      46.808  20.795  19.454  0.00  0.00    +0.101 C 
ATOM      6  C   UNL     1      46.008  19.532  19.655  0.00  0.00    -0.202 A 
ATOM      7  C   UNL     1      44.880  19.510  20.457  0.00  0.00    +0.211 A 
ATOM      8  C   UNL     1      44.163  18.323  20.630  0.00  0.00    -0.046 A 
ATOM      9  C   UNL     1      44.558  17.176  20.006  0.00  0.00    +0.152 A 
ATOM     10  C   UNL     1      45.691  17.187  19.189  0.00  0.00    -0.279 A 
ATOM     11  C   UNL     1      46.127  15.959  18.496  0.00  0.00    +0.391 C 
ATOM     12  O   UNL     1      45.679  14.864  18.762  0.00  0.00    -0.421 OA
ATOM     13  C   UNL     1      47.176  16.172  17.422  0.00  0.00    +0.114 C 
ATOM     16  C   UNL     1      47.876  14.887  17.082  0.00  0.00    -0.203 A 
ATOM     17  C   UNL     1      47.119  13.722  16.998  0.00  0.00    +0.127 A 
ATOM     18  C   UNL     1      47.771  12.552  16.645  0.00  0.00    -0.004 A 
ATOM     19  O   UNL     1      47.290  11.297  16.486  0.00  0.00    -0.301 OA
ATOM     20  C   UNL     1      48.302  10.588  15.740  0.00  0.00    +0.437 C 
ATOM     21  O   UNL     1      49.524  11.286  16.057  0.00  0.00    -0.299 OA
ATOM     22  C   UNL     1      49.150  12.544  16.382  0.00  0.00    +0.086 A 
ATOM     23  C   UNL     1      49.901  13.705  16.473  0.00  0.00    +0.022 A 
ATOM     24  C   UNL     1      49.239  14.884  16.834  0.00  0.00    +0.165 A 
ATOM     25  O   UNL     1      49.995  16.012  16.928  0.00  0.00    -0.295 OA
ATOM     26  C   UNL     1      49.343  17.282  17.006  0.00  0.00    +0.306 C 
ATOM     27  C   UNL     1      48.198  17.159  18.008  0.00  0.00    +0.174 C 
ATOM     28  O   UNL     1      47.547  18.402  18.248  0.00  0.00    -0.277 OA
ATOM     29  C   UNL     1      46.428  18.372  19.019  0.00  0.00    +0.219 A 
ATOM     30  O   UNL     1      44.432  20.627  21.085  0.00  0.00    -0.297 OA
ENDROOT
BRANCH  13  14
ATOM     14  O   UNL     1      46.583  16.733  16.249  0.00  0.00    -0.514 OA
ATOM     15  H   UNL     1      46.529  16.119  15.504  0.00  0.00    +0.389 HD
ENDBRANCH  13  14
TORSDOF 1
ENDMDL
MODEL 4
REMARK VINA RESULT:      -6.4      3.256      4.791
REMARK  Name = ZINC95486053
REMARK  3 active torsions:
REMARK  status: ('A' for Active; 'I' for Inactive)
REMARK    1  A    between atoms: C1_1  and  C2_2
REMARK    2  A    between atoms: C2_2  and  C22_30
REMARK    3  A    between atoms: C19_22  and  O4_25
REMARK                            x       y       z     vdW  Elec       q    Type
REMARK                         _______ _______ _______ _____ _____    ______ ____
ROOT
ATOM      1  C   UNL     1      51.820  13.072  14.403  0.00  0.00    +0.034 C 
ATOM      2  C   UNL     1      51.358  12.071  15.464  0.00  0.00    +0.109 C 
ATOM      3  C   UNL     1      51.929  10.686  15.149  0.00  0.00    +0.080 C 
ATOM      4  C   UNL     1      51.838  12.526  16.847  0.00  0.00    +0.021 C 
ATOM      5  C   UNL     1      51.342  13.956  17.080  0.00  0.00    +0.101 C 
ATOM      6  C   UNL     1      49.876  14.045  16.741  0.00  0.00    -0.202 A 
ATOM      7  C   UNL     1      49.254  13.084  15.961  0.00  0.00    +0.211 A 
ATOM      8  C   UNL     1      47.895  13.197  15.657  0.00  0.00    -0.046 A 
ATOM      9  C   UNL     1      47.162  14.246  16.131  0.00  0.00    +0.152 A 
ATOM     10  C   UNL     1      47.775  15.217  16.924  0.00  0.00    -0.279 A 
ATOM     11  C   UNL     1      46.997  16.352  17.457  0.00  0.00    +0.391 C 
ATOM     12  O   UNL     1      45.880  16.618  17.067  0.00  0.00    -0.421 OA
ATOM     13  C   UNL     1      47.699  17.159  18.531  0.00  0.00    +0.114 C 
ATOM     16  C   UNL     1      47.064  18.509  18.701  0.00  0.00    -0.203 A 
ATOM     17  C   UNL     1      45.675  18.599  18.655  0.00  0.00    +0.127 A 
ATOM     18  C   UNL     1      45.101  19.844  18.854  0.00  0.00    -0.004 A 
ATOM     19  O   UNL     1      43.800  20.214  18.867  0.00  0.00    -0.301 OA
ATOM     20  C   UNL     1      43.773  21.508  19.505  0.00  0.00    +0.437 C 
ATOM     21  O   UNL     1      45.088  22.048  19.255  0.00  0.00    -0.299 OA
ATOM     22  C   UNL     1      45.896  20.977  19.092  0.00  0.00    +0.086 A 
ATOM     23  C   UNL     1      47.277  20.884  19.130  0.00  0.00    +0.022 A 
ATOM     24  C   UNL     1      47.854  19.626  18.925  0.00  0.00    +0.165 A 
ATOM     25  O   UNL     1      49.212  19.556  18.956  0.00  0.00    -0.295 OA
ATOM     26  C   UNL     1      49.843  18.276  19.043  0.00  0.00    +0.306 C 
ATOM     27  C   UNL     1      49.148  17.345  18.052  0.00  0.00    +0.174 C 
ATOM     28  O   UNL     1      49.770  16.067  17.975  0.00  0.00    -0.277 OA
ATOM     29  C   UNL     1      49.146  15.122  17.224  0.00  0.00    +0.219 A 
ATOM     30  O   UNL     1      49.932  12.011  15.480  0.00  0.00    -0.297 OA
ENDROOT
BRANCH  13  14
ATOM     14  O   UNL     1      47.690  16.452  19.773  0.00  0.00    -0.514 OA
ATOM     15  H   UNL     1      46.830  16.446  20.215  0.00  0.00    +0.389 HD
ENDBRANCH  13  14
TORSDOF 1
ENDMDL
MODEL 5
REMARK VINA RESULT:      -6.4      3.148      8.223
REMARK  Name = ZINC95486053
REMARK  3 active torsions:
REMARK  status: ('A' for Active; 'I' for Inactive)
REMARK    1  A    between atoms: C1_1  and  C2_2
REMARK    2  A    between atoms: C2_2  and  C22_30
REMARK    3  A    between atoms: C19_22  and  O4_25
REMARK                            x       y       z     vdW  Elec       q    Type
REMARK                         _______ _______ _______ _____ _____    ______ ____
ROOT
ATOM      1  C   UNL     1      45.466  21.890  19.137  0.00  0.00    +0.034 C 
ATOM      2  C   UNL     1      46.180  21.646  20.468  0.00  0.00    +0.109 C 
ATOM      3  C   UNL     1      45.917  22.819  21.416  0.00  0.00    +0.080 C 
ATOM      4  C   UNL     1      45.665  20.347  21.100  0.00  0.00    +0.021 C 
ATOM      5  C   UNL     1      45.842  19.217  20.081  0.00  0.00    +0.101 C 
ATOM      6  C   UNL     1      47.238  19.260  19.513  0.00  0.00    -0.202 A 
ATOM      7  C   UNL     1      48.025  20.395  19.615  0.00  0.00    +0.211 A 
ATOM      8  C   UNL     1      49.313  20.408  19.072  0.00  0.00    -0.046 A 
ATOM      9  C   UNL     1      49.814  19.304  18.445  0.00  0.00    +0.152 A 
ATOM     10  C   UNL     1      49.032  18.152  18.342  0.00  0.00    -0.279 A 
ATOM     11  C   UNL     1      49.561  16.944  17.680  0.00  0.00    +0.391 C 
ATOM     12  O   UNL     1      50.575  16.954  17.015  0.00  0.00    -0.421 OA
ATOM     13  C   UNL     1      48.740  15.688  17.895  0.00  0.00    +0.114 C 
ATOM     16  C   UNL     1      49.068  14.640  16.870  0.00  0.00    -0.203 A 
ATOM     17  C   UNL     1      50.399  14.465  16.502  0.00  0.00    +0.127 A 
ATOM     18  C   UNL     1      50.691  13.469  15.586  0.00  0.00    -0.004 A 
ATOM     19  O   UNL     1      51.877  13.083  15.063  0.00  0.00    -0.301 OA
ATOM     20  C   UNL     1      51.642  11.777  14.495  0.00  0.00    +0.437 C 
ATOM     21  O   UNL     1      50.232  11.778  14.189  0.00  0.00    -0.299 OA
ATOM     22  C   UNL     1      49.675  12.665  15.044  0.00  0.00    +0.086 A 
ATOM     23  C   UNL     1      48.351  12.847  15.407  0.00  0.00    +0.022 A 
ATOM     24  C   UNL     1      48.060  13.856  16.331  0.00  0.00    +0.165 A 
ATOM     25  O   UNL     1      46.752  14.026  16.668  0.00  0.00    -0.295 OA
ATOM     26  C   UNL     1      46.425  14.831  17.804  0.00  0.00    +0.306 C 
ATOM     27  C   UNL     1      47.268  16.102  17.735  0.00  0.00    +0.174 C 
ATOM     28  O   UNL     1      46.941  17.030  18.764  0.00  0.00    -0.277 OA
ATOM     29  C   UNL     1      47.730  18.132  18.872  0.00  0.00    +0.219 A 
ATOM     30  O   UNL     1      47.584  21.513  20.245  0.00  0.00    -0.297 OA
ENDROOT
BRANCH  13  14
ATOM     14  O   UNL     1      48.955  15.171  19.210  0.00  0.00    -0.514 OA
ATOM     15  H   UNL     1      49.130  14.220  19.235  0.00  0.00    +0.389 HD
ENDBRANCH  13  14
TORSDOF 1
ENDMDL
MODEL 6
REMARK VINA RESULT:      -6.2      3.571      5.675
REMARK  Name = ZINC95486053
REMARK  3 active torsions:
REMARK  status: ('A' for Active; 'I' for Inactive)
REMARK    1  A    between atoms: C1_1  and  C2_2
REMARK    2  A    between atoms: C2_2  and  C22_30
REMARK    3  A    between atoms: C19_22  and  O4_25
REMARK                            x       y       z     vdW  Elec       q    Type
REMARK                         _______ _______ _______ _____ _____    ______ ____
ROOT
ATOM      1  C   UNL     1      50.683  12.749  13.144  0.00  0.00    +0.034 C 
ATOM      2  C   UNL     1      50.643  11.745  14.298  0.00  0.00    +0.109 C 
ATOM      3  C   UNL     1      51.048  10.359  13.789  0.00  0.00    +0.080 C 
ATOM      4  C   UNL     1      51.607  12.191  15.404  0.00  0.00    +0.021 C 
ATOM      5  C   UNL     1      51.241  13.621  15.809  0.00  0.00    +0.101 C 
ATOM      6  C   UNL     1      49.755  13.719  16.041  0.00  0.00    -0.202 A 
ATOM      7  C   UNL     1      48.881  12.765  15.545  0.00  0.00    +0.211 A 
ATOM      8  C   UNL     1      47.508  12.886  15.769  0.00  0.00    -0.046 A 
ATOM      9  C   UNL     1      47.010  13.936  16.485  0.00  0.00    +0.152 A 
ATOM     10  C   UNL     1      47.880  14.900  16.996  0.00  0.00    -0.279 A 
ATOM     11  C   UNL     1      47.363  16.036  17.784  0.00  0.00    +0.391 C 
ATOM     12  O   UNL     1      46.183  16.308  17.839  0.00  0.00    -0.421 OA
ATOM     13  C   UNL     1      48.420  16.833  18.521  0.00  0.00    +0.114 C 
ATOM     16  C   UNL     1      47.901  18.186  18.920  0.00  0.00    -0.203 A 
ATOM     17  C   UNL     1      46.596  18.282  19.395  0.00  0.00    +0.127 A 
ATOM     18  C   UNL     1      46.145  19.528  19.797  0.00  0.00    -0.004 A 
ATOM     19  O   UNL     1      44.944  19.904  20.295  0.00  0.00    -0.301 OA
ATOM     20  C   UNL     1      45.165  21.195  20.901  0.00  0.00    +0.437 C 
ATOM     21  O   UNL     1      46.295  21.731  20.181  0.00  0.00    -0.299 OA
ATOM     22  C   UNL     1      46.978  20.656  19.725  0.00  0.00    +0.086 A 
ATOM     23  C   UNL     1      48.273  20.557  19.246  0.00  0.00    +0.022 A 
ATOM     24  C   UNL     1      48.724  19.298  18.837  0.00  0.00    +0.165 A 
ATOM     25  O   UNL     1      49.997  19.222  18.361  0.00  0.00    -0.295 OA
ATOM     26  C   UNL     1      50.606  17.938  18.202  0.00  0.00    +0.306 C 
ATOM     27  C   UNL     1      49.587  17.015  17.538  0.00  0.00    +0.174 C 
ATOM     28  O   UNL     1      50.129  15.735  17.232  0.00  0.00    -0.277 OA
ATOM     29  C   UNL     1      49.264  14.797  16.764  0.00  0.00    +0.219 A 
ATOM     30  O   UNL     1      49.325  11.691  14.843  0.00  0.00    -0.297 OA
ENDROOT
BRANCH  13  14
ATOM     14  O   UNL     1      48.869  16.120  19.676  0.00  0.00    -0.514 OA
ATOM     15  H   UNL     1      48.363  15.318  19.863  0.00  0.00    +0.389 HD
ENDBRANCH  13  14
TORSDOF 1
ENDMDL
MODEL 7
REMARK VINA RESULT:      -6.2      3.980      8.979
REMARK  Name = ZINC95486053
REMARK  3 active torsions:
REMARK  status: ('A' for Active; 'I' for Inactive)
REMARK    1  A    between atoms: C1_1  and  C2_2
REMARK    2  A    between atoms: C2_2  and  C22_30
REMARK    3  A    between atoms: C19_22  and  O4_25
REMARK                            x       y       z     vdW  Elec       q    Type
REMARK                         _______ _______ _______ _____ _____    ______ ____
ROOT
ATOM      1  C   UNL     1      44.200  19.974  18.760  0.00  0.00    +0.034 C 
ATOM      2  C   UNL     1      44.868  19.783  20.124  0.00  0.00    +0.109 C 
ATOM      3  C   UNL     1      44.419  20.893  21.077  0.00  0.00    +0.080 C 
ATOM      4  C   UNL     1      44.482  18.416  20.702  0.00  0.00    +0.021 C 
ATOM      5  C   UNL     1      44.845  17.342  19.674  0.00  0.00    +0.101 C 
ATOM      6  C   UNL     1      46.253  17.565  19.182  0.00  0.00    -0.202 A 
ATOM      7  C   UNL     1      46.892  18.782  19.347  0.00  0.00    +0.211 A 
ATOM      8  C   UNL     1      48.195  18.961  18.875  0.00  0.00    -0.046 A 
ATOM      9  C   UNL     1      48.856  17.941  18.255  0.00  0.00    +0.152 A 
ATOM     10  C   UNL     1      48.225  16.707  18.089  0.00  0.00    -0.279 A 
ATOM     11  C   UNL     1      48.927  15.587  17.433  0.00  0.00    +0.391 C 
ATOM     12  O   UNL     1      49.966  15.735  16.825  0.00  0.00    -0.421 OA
ATOM     13  C   UNL     1      48.254  14.238  17.581  0.00  0.00    +0.114 C 
ATOM     16  C   UNL     1      48.756  13.262  16.555  0.00  0.00    -0.203 A 
ATOM     17  C   UNL     1      50.117  13.256  16.257  0.00  0.00    +0.127 A 
ATOM     18  C   UNL     1      50.572  12.325  15.339  0.00  0.00    -0.004 A 
ATOM     19  O   UNL     1      51.822  12.096  14.873  0.00  0.00    -0.301 OA
ATOM     20  C   UNL     1      51.774  10.786  14.269  0.00  0.00    +0.437 C 
ATOM     21  O   UNL     1      50.391  10.626  13.888  0.00  0.00    -0.299 OA
ATOM     22  C   UNL     1      49.689  11.419  14.729  0.00  0.00    +0.086 A 
ATOM     23  C   UNL     1      48.336  11.433  15.024  0.00  0.00    +0.022 A 
ATOM     24  C   UNL     1      47.879  12.378  15.949  0.00  0.00    +0.165 A 
ATOM     25  O   UNL     1      46.545  12.383  16.218  0.00  0.00    -0.295 OA
ATOM     26  C   UNL     1      46.066  13.115  17.349  0.00  0.00    +0.306 C 
ATOM     27  C   UNL     1      46.753  14.478  17.350  0.00  0.00    +0.174 C 
ATOM     28  O   UNL     1      46.265  15.334  18.377  0.00  0.00    -0.277 OA
ATOM     29  C   UNL     1      46.908  16.519  18.548  0.00  0.00    +0.219 A 
ATOM     30  O   UNL     1      46.288  19.824  19.973  0.00  0.00    -0.297 OA
ENDROOT
BRANCH  13  14
ATOM     14  O   UNL     1      48.461  13.717  18.896  0.00  0.00    -0.514 OA
ATOM     15  H   UNL     1      48.719  14.384  19.546  0.00  0.00    +0.389 HD
ENDBRANCH  13  14
TORSDOF 1
ENDMDL
MODEL 8
REMARK VINA RESULT:      -5.9      3.160      8.663
REMARK  Name = ZINC95486053
REMARK  3 active torsions:
REMARK  status: ('A' for Active; 'I' for Inactive)
REMARK    1  A    between atoms: C1_1  and  C2_2
REMARK    2  A    between atoms: C2_2  and  C22_30
REMARK    3  A    between atoms: C19_22  and  O4_25
REMARK                            x       y       z     vdW  Elec       q    Type
REMARK                         _______ _______ _______ _____ _____    ______ ____
ROOT
ATOM      1  C   UNL     1      40.745  19.335  17.929  0.00  0.00    +0.034 C 
ATOM      2  C   UNL     1      41.058  20.429  18.952  0.00  0.00    +0.109 C 
ATOM      3  C   UNL     1      40.078  21.591  18.779  0.00  0.00    +0.080 C 
ATOM      4  C   UNL     1      40.939  19.858  20.371  0.00  0.00    +0.021 C 
ATOM      5  C   UNL     1      41.849  18.631  20.471  0.00  0.00    +0.101 C 
ATOM      6  C   UNL     1      43.213  18.965  19.921  0.00  0.00    -0.202 A 
ATOM      7  C   UNL     1      43.413  20.061  19.098  0.00  0.00    +0.211 A 
ATOM      8  C   UNL     1      44.687  20.341  18.597  0.00  0.00    -0.046 A 
ATOM      9  C   UNL     1      45.749  19.547  18.917  0.00  0.00    +0.152 A 
ATOM     10  C   UNL     1      45.562  18.443  19.751  0.00  0.00    -0.279 A 
ATOM     11  C   UNL     1      46.701  17.579  20.119  0.00  0.00    +0.391 C 
ATOM     12  O   UNL     1      47.776  17.643  19.562  0.00  0.00    -0.421 OA
ATOM     13  C   UNL     1      46.425  16.608  21.250  0.00  0.00    +0.114 C 
ATOM     16  C   UNL     1      47.435  15.497  21.272  0.00  0.00    -0.203 A 
ATOM     17  C   UNL     1      48.769  15.808  21.023  0.00  0.00    +0.127 A 
ATOM     18  C   UNL     1      49.695  14.780  21.086  0.00  0.00    -0.004 A 
ATOM     19  O   UNL     1      51.035  14.798  20.896  0.00  0.00    -0.301 OA
ATOM     20  C   UNL     1      51.522  13.567  21.471  0.00  0.00    +0.437 C 
ATOM     21  O   UNL     1      50.392  12.672  21.392  0.00  0.00    -0.299 OA
ATOM     22  C   UNL     1      49.299  13.468  21.390  0.00  0.00    +0.086 A 
ATOM     23  C   UNL     1      47.970  13.161  21.631  0.00  0.00    +0.022 A 
ATOM     24  C   UNL     1      47.037  14.202  21.562  0.00  0.00    +0.165 A 
ATOM     25  O   UNL     1      45.735  13.879  21.792  0.00  0.00    -0.295 OA
ATOM     26  C   UNL     1      44.788  14.926  22.020  0.00  0.00    +0.306 C 
ATOM     27  C   UNL     1      45.033  16.014  20.978  0.00  0.00    +0.174 C 
ATOM     28  O   UNL     1      44.071  17.060  21.044  0.00  0.00    -0.277 OA
ATOM     29  C   UNL     1      44.282  18.143  20.250  0.00  0.00    +0.219 A 
ATOM     30  O   UNL     1      42.395  20.894  18.764  0.00  0.00    -0.297 OA
ENDROOT
BRANCH  13  14
ATOM     14  O   UNL     1      46.420  17.292  22.505  0.00  0.00    -0.514 OA
ATOM     15  H   UNL     1      47.263  17.252  22.977  0.00  0.00    +0.389 HD
ENDBRANCH  13  14
TORSDOF 1
ENDMDL
MODEL 9
REMARK VINA RESULT:      -5.9      1.940      8.406
REMARK  Name = ZINC95486053
REMARK  3 active torsions:
REMARK  status: ('A' for Active; 'I' for Inactive)
REMARK    1  A    between atoms: C1_1  and  C2_2
REMARK    2  A    between atoms: C2_2  and  C22_30
REMARK    3  A    between atoms: C19_22  and  O4_25
REMARK                            x       y       z     vdW  Elec       q    Type
REMARK                         _______ _______ _______ _____ _____    ______ ____
ROOT
ATOM      1  C   UNL     1      40.961  19.960  17.753  0.00  0.00    +0.034 C 
ATOM      2  C   UNL     1      40.798  20.788  19.030  0.00  0.00    +0.109 C 
ATOM      3  C   UNL     1      39.468  21.545  18.987  0.00  0.00    +0.080 C 
ATOM      4  C   UNL     1      40.828  19.863  20.253  0.00  0.00    +0.021 C 
ATOM      5  C   UNL     1      42.119  19.043  20.201  0.00  0.00    +0.101 C 
ATOM      6  C   UNL     1      43.290  19.956  19.938  0.00  0.00    -0.202 A 
ATOM      7  C   UNL     1      43.112  21.228  19.419  0.00  0.00    +0.211 A 
ATOM      8  C   UNL     1      44.217  22.049  19.178  0.00  0.00    -0.046 A 
ATOM      9  C   UNL     1      45.480  21.615  19.457  0.00  0.00    +0.152 A 
ATOM     10  C   UNL     1      45.671  20.338  19.986  0.00  0.00    -0.279 A 
ATOM     11  C   UNL     1      47.028  19.854  20.308  0.00  0.00    +0.391 C 
ATOM     12  O   UNL     1      48.031  20.427  19.936  0.00  0.00    -0.421 OA
ATOM     13  C   UNL     1      47.074  18.589  21.141  0.00  0.00    +0.114 C 
ATOM     16  C   UNL     1      48.420  17.928  21.054  0.00  0.00    -0.203 A 
ATOM     17  C   UNL     1      49.556  18.733  21.071  0.00  0.00    +0.127 A 
ATOM     18  C   UNL     1      50.791  18.107  21.032  0.00  0.00    -0.004 A 
ATOM     19  O   UNL     1      52.038  18.633  21.040  0.00  0.00    -0.301 OA
ATOM     20  C   UNL     1      52.915  17.541  21.387  0.00  0.00    +0.437 C 
ATOM     21  O   UNL     1      52.200  16.366  20.950  0.00  0.00    -0.299 OA
ATOM     22  C   UNL     1      50.892  16.708  20.973  0.00  0.00    +0.086 A 
ATOM     23  C   UNL     1      49.759  15.912  20.950  0.00  0.00    +0.022 A 
ATOM     24  C   UNL     1      48.513  16.547  20.986  0.00  0.00    +0.165 A 
ATOM     25  O   UNL     1      47.411  15.748  20.953  0.00  0.00    -0.295 OA
ATOM     26  C   UNL     1      46.135  16.308  21.275  0.00  0.00    +0.306 C 
ATOM     27  C   UNL     1      46.014  17.645  20.550  0.00  0.00    +0.174 C 
ATOM     28  O   UNL     1      44.732  18.240  20.713  0.00  0.00    -0.277 OA
ATOM     29  C   UNL     1      44.568  19.497  20.220  0.00  0.00    +0.219 A 
ATOM     30  O   UNL     1      41.877  21.717  19.141  0.00  0.00    -0.297 OA
ENDROOT
BRANCH  13  14
ATOM     14  O   UNL     1      46.756  18.877  22.504  0.00  0.00    -0.514 OA
ATOM     15  H   UNL     1      46.115  18.267  22.895  0.00  0.00    +0.389 HD
ENDBRANCH  13  14
TORSDOF 1
ENDMDL
