MODEL 1
REMARK VINA RESULT:      -6.0      0.000      0.000
REMARK  Name = ZINC95486336
REMARK  6 active torsions:
REMARK  status: ('A' for Active; 'I' for Inactive)
REMARK    1  A    between atoms: C1_1  and  C2_2
REMARK    2  A    between atoms: C6_6  and  C19_27
REMARK    3  A    between atoms: C6_6  and  C20_28
REMARK    4  A    between atoms: C12_13  and  C13_15
REMARK    5  A    between atoms: C15_18  and  C18_25
REMARK    6  A    between atoms: C17_20  and  O3_24
REMARK                            x       y       z     vdW  Elec       q    Type
REMARK                         _______ _______ _______ _____ _____    ______ ____
ROOT
ATOM      1  C   UNL     1      51.073  18.054  19.716  0.00  0.00    +0.030 C 
ATOM      2  C   UNL     1      50.088  18.377  18.593  0.00  0.00    -0.028 C 
ATOM      3  C   UNL     1      50.198  17.318  17.495  0.00  0.00    +0.005 C 
ATOM      4  C   UNL     1      51.544  17.437  16.781  0.00  0.00    -0.001 C 
ATOM      5  C   UNL     1      51.642  18.805  16.113  0.00  0.00    +0.008 C 
ATOM      6  C   UNL     1      51.521  19.930  17.141  0.00  0.00    -0.049 C 
ATOM      7  C   UNL     1      52.812  20.036  17.950  0.00  0.00    +0.023 C 
ATOM      8  C   UNL     1      51.374  21.243  16.336  0.00  0.00    +0.012 C 
ATOM      9  C   UNL     1      48.663  18.308  19.181  0.00  0.00    +0.034 C 
ATOM     21  C   UNL     1      48.519  19.418  20.198  0.00  0.00    -0.112 C 
ATOM     22  C   UNL     1      48.083  19.159  21.409  0.00  0.00    +0.010 C 
ATOM     23  C   UNL     1      48.878  20.827  19.794  0.00  0.00    +0.053 C 
ATOM     24  C   UNL     1      50.255  20.829  19.119  0.00  0.00    +0.021 C 
ATOM     25  C   UNL     1      50.292  19.771  18.018  0.00  0.00    +0.005 C 
ENDROOT
BRANCH   9  10
ATOM     10  C   UNL     1      48.455  16.962  19.876  0.00  0.00    +0.219 C 
ATOM     11  C   UNL     1      48.314  15.871  18.837  0.00  0.00    +0.019 C 
ATOM     12  C   UNL     1      47.458  16.026  17.834  0.00  0.00    -0.152 C 
ATOM     15  C   UNL     1      46.624  17.283  17.740  0.00  0.00    +0.096 C 
ATOM     16  C   UNL     1      45.590  17.267  18.870  0.00  0.00    +0.350 C 
ATOM     19  O   UNL     1      46.165  17.774  20.066  0.00  0.00    -0.225 OA
ATOM     20  O   UNL     1      47.261  17.009  20.663  0.00  0.00    -0.170 OA
BRANCH  12  13
ATOM     13  C   UNL     1      47.323  14.980  16.819  0.00  0.00    +0.476 C 
ATOM     14  O   UNL     1      46.503  14.098  16.963  0.00  0.00    -0.448 OA
ENDBRANCH  12  13
BRANCH  16  17
ATOM     17  O   UNL     1      45.148  15.925  19.091  0.00  0.00    -0.562 OA
ATOM     18  H   UNL     1      44.217  15.778  18.879  0.00  0.00    +0.386 HD
ENDBRANCH  16  17
ENDBRANCH   9  10
TORSDOF 3
ENDMDL
MODEL 2
REMARK VINA RESULT:      -5.8      3.144      6.078
REMARK  Name = ZINC95486336
REMARK  6 active torsions:
REMARK  status: ('A' for Active; 'I' for Inactive)
REMARK    1  A    between atoms: C1_1  and  C2_2
REMARK    2  A    between atoms: C6_6  and  C19_27
REMARK    3  A    between atoms: C6_6  and  C20_28
REMARK    4  A    between atoms: C12_13  and  C13_15
REMARK    5  A    between atoms: C15_18  and  C18_25
REMARK    6  A    between atoms: C17_20  and  O3_24
REMARK                            x       y       z     vdW  Elec       q    Type
REMARK                         _______ _______ _______ _____ _____    ______ ____
ROOT
ATOM      1  C   UNL     1      47.149  19.152  21.424  0.00  0.00    +0.030 C 
ATOM      2  C   UNL     1      47.560  20.236  20.428  0.00  0.00    -0.028 C 
ATOM      3  C   UNL     1      48.457  21.260  21.125  0.00  0.00    +0.005 C 
ATOM      4  C   UNL     1      47.650  22.059  22.147  0.00  0.00    -0.001 C 
ATOM      5  C   UNL     1      46.546  22.827  21.429  0.00  0.00    +0.008 C 
ATOM      6  C   UNL     1      45.608  21.878  20.683  0.00  0.00    -0.049 C 
ATOM      7  C   UNL     1      44.702  21.156  21.678  0.00  0.00    +0.023 C 
ATOM      8  C   UNL     1      44.703  22.765  19.796  0.00  0.00    +0.012 C 
ATOM      9  C   UNL     1      48.384  19.561  19.311  0.00  0.00    +0.034 C 
ATOM     21  C   UNL     1      47.473  18.620  18.555  0.00  0.00    -0.112 C 
ATOM     22  C   UNL     1      47.823  17.370  18.358  0.00  0.00    +0.010 C 
ATOM     23  C   UNL     1      46.161  19.145  18.027  0.00  0.00    +0.053 C 
ATOM     24  C   UNL     1      45.426  19.898  19.143  0.00  0.00    +0.021 C 
ATOM     25  C   UNL     1      46.365  20.921  19.781  0.00  0.00    +0.005 C 
ENDROOT
BRANCH   9  10
ATOM     10  C   UNL     1      49.532  18.760  19.927  0.00  0.00    +0.219 C 
ATOM     11  C   UNL     1      50.573  19.709  20.480  0.00  0.00    +0.019 C 
ATOM     12  C   UNL     1      51.036  20.693  19.719  0.00  0.00    -0.152 C 
ATOM     15  C   UNL     1      50.529  20.855  18.304  0.00  0.00    +0.096 C 
ATOM     16  C   UNL     1      51.064  19.695  17.458  0.00  0.00    +0.350 C 
ATOM     19  O   UNL     1      50.222  18.560  17.598  0.00  0.00    -0.225 OA
ATOM     20  O   UNL     1      50.139  17.941  18.923  0.00  0.00    -0.170 OA
BRANCH  12  13
ATOM     13  C   UNL     1      52.035  21.622  20.249  0.00  0.00    +0.476 C 
ATOM     14  O   UNL     1      53.161  21.623  19.798  0.00  0.00    -0.448 OA
ENDBRANCH  12  13
BRANCH  16  17
ATOM     17  O   UNL     1      52.383  19.360  17.894  0.00  0.00    -0.562 OA
ATOM     18  H   UNL     1      52.681  19.858  18.667  0.00  0.00    +0.386 HD
ENDBRANCH  16  17
ENDBRANCH   9  10
TORSDOF 3
ENDMDL
MODEL 3
REMARK VINA RESULT:      -5.8      3.335      5.283
REMARK  Name = ZINC95486336
REMARK  6 active torsions:
REMARK  status: ('A' for Active; 'I' for Inactive)
REMARK    1  A    between atoms: C1_1  and  C2_2
REMARK    2  A    between atoms: C6_6  and  C19_27
REMARK    3  A    between atoms: C6_6  and  C20_28
REMARK    4  A    between atoms: C12_13  and  C13_15
REMARK    5  A    between atoms: C15_18  and  C18_25
REMARK    6  A    between atoms: C17_20  and  O3_24
REMARK                            x       y       z     vdW  Elec       q    Type
REMARK                         _______ _______ _______ _____ _____    ______ ____
ROOT
ATOM      1  C   UNL     1      47.062  18.165  21.367  0.00  0.00    +0.030 C 
ATOM      2  C   UNL     1      46.718  18.858  20.049  0.00  0.00    -0.028 C 
ATOM      3  C   UNL     1      45.386  18.323  19.520  0.00  0.00    +0.005 C 
ATOM      4  C   UNL     1      45.539  16.867  19.082  0.00  0.00    -0.001 C 
ATOM      5  C   UNL     1      46.551  16.785  17.945  0.00  0.00    +0.008 C 
ATOM      6  C   UNL     1      47.914  17.321  18.381  0.00  0.00    -0.049 C 
ATOM      7  C   UNL     1      48.600  16.312  19.300  0.00  0.00    +0.023 C 
ATOM      8  C   UNL     1      48.772  17.430  17.098  0.00  0.00    +0.012 C 
ATOM      9  C   UNL     1      46.548  20.364  20.339  0.00  0.00    +0.034 C 
ATOM     21  C   UNL     1      47.888  20.917  20.768  0.00  0.00    -0.112 C 
ATOM     22  C   UNL     1      47.998  21.613  21.875  0.00  0.00    +0.010 C 
ATOM     23  C   UNL     1      49.094  20.659  19.896  0.00  0.00    +0.053 C 
ATOM     24  C   UNL     1      49.162  19.168  19.547  0.00  0.00    +0.021 C 
ATOM     25  C   UNL     1      47.813  18.702  19.003  0.00  0.00    +0.005 C 
ENDROOT
BRANCH   9  10
ATOM     10  C   UNL     1      45.539  20.561  21.472  0.00  0.00    +0.219 C 
ATOM     11  C   UNL     1      44.145  20.253  20.969  0.00  0.00    +0.019 C 
ATOM     12  C   UNL     1      43.713  20.813  19.846  0.00  0.00    -0.152 C 
ATOM     15  C   UNL     1      44.610  21.759  19.080  0.00  0.00    +0.096 C 
ATOM     16  C   UNL     1      44.758  23.052  19.890  0.00  0.00    +0.350 C 
ATOM     19  O   UNL     1      45.788  22.906  20.857  0.00  0.00    -0.225 OA
ATOM     20  O   UNL     1      45.581  21.919  21.919  0.00  0.00    -0.170 OA
BRANCH  12  13
ATOM     13  C   UNL     1      42.370  20.513  19.347  0.00  0.00    +0.476 C 
ATOM     14  O   UNL     1      41.631  21.415  19.015  0.00  0.00    -0.448 OA
ENDBRANCH  12  13
BRANCH  16  17
ATOM     17  O   UNL     1      43.525  23.340  20.553  0.00  0.00    -0.562 OA
ATOM     18  H   UNL     1      43.057  24.107  20.197  0.00  0.00    +0.386 HD
ENDBRANCH  16  17
ENDBRANCH   9  10
TORSDOF 3
ENDMDL
MODEL 4
REMARK VINA RESULT:      -5.5      3.977      6.487
REMARK  Name = ZINC95486336
REMARK  6 active torsions:
REMARK  status: ('A' for Active; 'I' for Inactive)
REMARK    1  A    between atoms: C1_1  and  C2_2
REMARK    2  A    between atoms: C6_6  and  C19_27
REMARK    3  A    between atoms: C6_6  and  C20_28
REMARK    4  A    between atoms: C12_13  and  C13_15
REMARK    5  A    between atoms: C15_18  and  C18_25
REMARK    6  A    between atoms: C17_20  and  O3_24
REMARK                            x       y       z     vdW  Elec       q    Type
REMARK                         _______ _______ _______ _____ _____    ______ ____
ROOT
ATOM      1  C   UNL     1      46.802  17.379  21.089  0.00  0.00    +0.030 C 
ATOM      2  C   UNL     1      45.496  17.063  20.361  0.00  0.00    -0.028 C 
ATOM      3  C   UNL     1      44.424  16.668  21.378  0.00  0.00    +0.005 C 
ATOM      4  C   UNL     1      44.769  15.320  22.009  0.00  0.00    -0.001 C 
ATOM      5  C   UNL     1      44.793  14.247  20.926  0.00  0.00    +0.008 C 
ATOM      6  C   UNL     1      45.829  14.574  19.850  0.00  0.00    -0.049 C 
ATOM      7  C   UNL     1      47.235  14.315  20.387  0.00  0.00    +0.023 C 
ATOM      8  C   UNL     1      45.587  13.575  18.694  0.00  0.00    +0.012 C 
ATOM      9  C   UNL     1      45.029  18.352  19.652  0.00  0.00    +0.034 C 
ATOM     21  C   UNL     1      46.038  18.692  18.577  0.00  0.00    -0.112 C 
ATOM     22  C   UNL     1      46.561  19.893  18.511  0.00  0.00    +0.010 C 
ATOM     23  C   UNL     1      46.425  17.627  17.581  0.00  0.00    +0.053 C 
ATOM     24  C   UNL     1      46.779  16.334  18.326  0.00  0.00    +0.021 C 
ATOM     25  C   UNL     1      45.661  15.980  19.305  0.00  0.00    +0.005 C 
ENDROOT
BRANCH   9  10
ATOM     10  C   UNL     1      44.964  19.502  20.658  0.00  0.00    +0.219 C 
ATOM     11  C   UNL     1      43.743  19.338  21.537  0.00  0.00    +0.019 C 
ATOM     12  C   UNL     1      42.557  19.125  20.981  0.00  0.00    -0.152 C 
ATOM     15  C   UNL     1      42.429  19.058  19.476  0.00  0.00    +0.096 C 
ATOM     16  C   UNL     1      42.658  20.461  18.904  0.00  0.00    +0.350 C 
ATOM     19  O   UNL     1      44.048  20.703  18.746  0.00  0.00    -0.225 OA
ATOM     20  O   UNL     1      44.867  20.746  19.959  0.00  0.00    -0.170 OA
BRANCH  12  13
ATOM     13  C   UNL     1      41.372  18.955  21.824  0.00  0.00    +0.476 C 
ATOM     14  O   UNL     1      40.317  19.454  21.495  0.00  0.00    -0.448 OA
ENDBRANCH  12  13
BRANCH  16  17
ATOM     17  O   UNL     1      42.108  21.432  19.797  0.00  0.00    -0.562 OA
ATOM     18  H   UNL     1      42.371  22.341  19.600  0.00  0.00    +0.386 HD
ENDBRANCH  16  17
ENDBRANCH   9  10
TORSDOF 3
ENDMDL
MODEL 5
REMARK VINA RESULT:      -5.4     20.194     22.126
REMARK  Name = ZINC95486336
REMARK  6 active torsions:
REMARK  status: ('A' for Active; 'I' for Inactive)
REMARK    1  A    between atoms: C1_1  and  C2_2
REMARK    2  A    between atoms: C6_6  and  C19_27
REMARK    3  A    between atoms: C6_6  and  C20_28
REMARK    4  A    between atoms: C12_13  and  C13_15
REMARK    5  A    between atoms: C15_18  and  C18_25
REMARK    6  A    between atoms: C17_20  and  O3_24
REMARK                            x       y       z     vdW  Elec       q    Type
REMARK                         _______ _______ _______ _____ _____    ______ ____
ROOT
ATOM      1  C   UNL     1      55.723  34.658   2.519  0.00  0.00    +0.030 C 
ATOM      2  C   UNL     1      55.464  33.711   3.691  0.00  0.00    -0.028 C 
ATOM      3  C   UNL     1      55.661  34.461   5.009  0.00  0.00    +0.005 C 
ATOM      4  C   UNL     1      57.136  34.809   5.203  0.00  0.00    -0.001 C 
ATOM      5  C   UNL     1      57.952  33.524   5.278  0.00  0.00    +0.008 C 
ATOM      6  C   UNL     1      57.797  32.696   4.002  0.00  0.00    -0.049 C 
ATOM      7  C   UNL     1      58.589  33.341   2.866  0.00  0.00    +0.023 C 
ATOM      8  C   UNL     1      58.446  31.322   4.291  0.00  0.00    +0.012 C 
ATOM      9  C   UNL     1      53.991  33.258   3.614  0.00  0.00    +0.034 C 
ATOM     21  C   UNL     1      53.816  32.432   2.359  0.00  0.00    -0.112 C 
ATOM     22  C   UNL     1      52.858  32.710   1.507  0.00  0.00    +0.010 C 
ATOM     23  C   UNL     1      54.758  31.279   2.110  0.00  0.00    +0.053 C 
ATOM     24  C   UNL     1      56.204  31.751   2.301  0.00  0.00    +0.021 C 
ATOM     25  C   UNL     1      56.341  32.468   3.644  0.00  0.00    +0.005 C 
ENDROOT
BRANCH   9  10
ATOM     10  C   UNL     1      53.077  34.482   3.538  0.00  0.00    +0.219 C 
ATOM     11  C   UNL     1      53.073  35.195   4.873  0.00  0.00    +0.019 C 
ATOM     12  C   UNL     1      52.854  34.506   5.986  0.00  0.00    -0.152 C 
ATOM     15  C   UNL     1      52.600  33.018   5.914  0.00  0.00    +0.096 C 
ATOM     16  C   UNL     1      51.226  32.788   5.275  0.00  0.00    +0.350 C 
ATOM     19  O   UNL     1      51.336  32.807   3.860  0.00  0.00    -0.225 OA
ATOM     20  O   UNL     1      51.743  34.066   3.232  0.00  0.00    -0.170 OA
BRANCH  12  13
ATOM     13  C   UNL     1      52.859  35.186   7.282  0.00  0.00    +0.476 C 
ATOM     14  O   UNL     1      51.813  35.401   7.858  0.00  0.00    -0.448 OA
ENDBRANCH  12  13
BRANCH  16  17
ATOM     17  O   UNL     1      50.330  33.821   5.693  0.00  0.00    -0.562 OA
ATOM     18  H   UNL     1      50.314  33.965   6.649  0.00  0.00    +0.386 HD
ENDBRANCH  16  17
ENDBRANCH   9  10
TORSDOF 3
ENDMDL
MODEL 6
REMARK VINA RESULT:      -5.4      2.642      4.791
REMARK  Name = ZINC95486336
REMARK  6 active torsions:
REMARK  status: ('A' for Active; 'I' for Inactive)
REMARK    1  A    between atoms: C1_1  and  C2_2
REMARK    2  A    between atoms: C6_6  and  C19_27
REMARK    3  A    between atoms: C6_6  and  C20_28
REMARK    4  A    between atoms: C12_13  and  C13_15
REMARK    5  A    between atoms: C15_18  and  C18_25
REMARK    6  A    between atoms: C17_20  and  O3_24
REMARK                            x       y       z     vdW  Elec       q    Type
REMARK                         _______ _______ _______ _____ _____    ______ ____
ROOT
ATOM      1  C   UNL     1      48.078  18.151  18.273  0.00  0.00    +0.030 C 
ATOM      2  C   UNL     1      47.872  18.958  19.554  0.00  0.00    -0.028 C 
ATOM      3  C   UNL     1      47.934  20.452  19.234  0.00  0.00    +0.005 C 
ATOM      4  C   UNL     1      49.356  20.848  18.836  0.00  0.00    -0.001 C 
ATOM      5  C   UNL     1      50.298  20.587  20.006  0.00  0.00    +0.008 C 
ATOM      6  C   UNL     1      50.284  19.113  20.409  0.00  0.00    -0.049 C 
ATOM      7  C   UNL     1      51.050  18.286  19.378  0.00  0.00    +0.023 C 
ATOM      8  C   UNL     1      51.060  19.016  21.743  0.00  0.00    +0.012 C 
ATOM      9  C   UNL     1      46.459  18.642  20.087  0.00  0.00    +0.034 C 
ATOM     21  C   UNL     1      46.423  17.187  20.497  0.00  0.00    -0.112 C 
ATOM     22  C   UNL     1      45.477  16.393  20.053  0.00  0.00    +0.010 C 
ATOM     23  C   UNL     1      47.490  16.668  21.430  0.00  0.00    +0.053 C 
ATOM     24  C   UNL     1      48.870  17.096  20.916  0.00  0.00    +0.021 C 
ATOM     25  C   UNL     1      48.875  18.599  20.640  0.00  0.00    +0.005 C 
ENDROOT
BRANCH   9  10
ATOM     10  C   UNL     1      45.425  18.877  18.984  0.00  0.00    +0.219 C 
ATOM     11  C   UNL     1      45.255  20.364  18.757  0.00  0.00    +0.019 C 
ATOM     12  C   UNL     1      45.036  21.166  19.792  0.00  0.00    -0.152 C 
ATOM     15  C   UNL     1      44.949  20.591  21.187  0.00  0.00    +0.096 C 
ATOM     16  C   UNL     1      43.655  19.780  21.300  0.00  0.00    +0.350 C 
ATOM     19  O   UNL     1      43.858  18.465  20.804  0.00  0.00    -0.225 OA
ATOM     20  O   UNL     1      44.167  18.322  19.380  0.00  0.00    -0.170 OA
BRANCH  12  13
ATOM     13  C   UNL     1      44.881  22.606  19.582  0.00  0.00    +0.476 C 
ATOM     14  O   UNL     1      43.788  23.120  19.695  0.00  0.00    -0.448 OA
ENDBRANCH  12  13
BRANCH  16  17
ATOM     17  O   UNL     1      42.627  20.418  20.539  0.00  0.00    -0.562 OA
ATOM     18  H   UNL     1      42.917  21.217  20.078  0.00  0.00    +0.386 HD
ENDBRANCH  16  17
ENDBRANCH   9  10
TORSDOF 3
ENDMDL
MODEL 7
REMARK VINA RESULT:      -5.3      2.350      3.260
REMARK  Name = ZINC95486336
REMARK  6 active torsions:
REMARK  status: ('A' for Active; 'I' for Inactive)
REMARK    1  A    between atoms: C1_1  and  C2_2
REMARK    2  A    between atoms: C6_6  and  C19_27
REMARK    3  A    between atoms: C6_6  and  C20_28
REMARK    4  A    between atoms: C12_13  and  C13_15
REMARK    5  A    between atoms: C15_18  and  C18_25
REMARK    6  A    between atoms: C17_20  and  O3_24
REMARK                            x       y       z     vdW  Elec       q    Type
REMARK                         _______ _______ _______ _____ _____    ______ ____
ROOT
ATOM      1  C   UNL     1      50.142  17.908  20.268  0.00  0.00    +0.030 C 
ATOM      2  C   UNL     1      49.625  18.954  19.281  0.00  0.00    -0.028 C 
ATOM      3  C   UNL     1      48.629  18.303  18.321  0.00  0.00    +0.005 C 
ATOM      4  C   UNL     1      49.351  17.325  17.395  0.00  0.00    -0.001 C 
ATOM      5  C   UNL     1      50.372  18.084  16.555  0.00  0.00    +0.008 C 
ATOM      6  C   UNL     1      51.401  18.787  17.441  0.00  0.00    -0.049 C 
ATOM      7  C   UNL     1      52.376  17.763  18.018  0.00  0.00    +0.023 C 
ATOM      8  C   UNL     1      52.213  19.720  16.512  0.00  0.00    +0.012 C 
ATOM      9  C   UNL     1      48.874  20.033  20.090  0.00  0.00    +0.034 C 
ATOM     21  C   UNL     1      49.875  20.746  20.970  0.00  0.00    -0.112 C 
ATOM     22  C   UNL     1      49.654  20.880  22.257  0.00  0.00    +0.010 C 
ATOM     23  C   UNL     1      51.128  21.305  20.342  0.00  0.00    +0.053 C 
ATOM     24  C   UNL     1      51.783  20.231  19.465  0.00  0.00    +0.021 C 
ATOM     25  C   UNL     1      50.745  19.639  18.512  0.00  0.00    +0.005 C 
ENDROOT
BRANCH   9  10
ATOM     10  C   UNL     1      47.812  19.373  20.971  0.00  0.00    +0.219 C 
ATOM     11  C   UNL     1      46.674  18.874  20.108  0.00  0.00    +0.019 C 
ATOM     12  C   UNL     1      46.116  19.689  19.221  0.00  0.00    -0.152 C 
ATOM     15  C   UNL     1      46.611  21.110  19.085  0.00  0.00    +0.096 C 
ATOM     16  C   UNL     1      46.206  21.890  20.340  0.00  0.00    +0.350 C 
ATOM     19  O   UNL     1      47.161  21.687  21.371  0.00  0.00    -0.225 OA
ATOM     20  O   UNL     1      47.301  20.330  21.903  0.00  0.00    -0.170 OA
BRANCH  12  13
ATOM     13  C   UNL     1      45.021  19.211  18.375  0.00  0.00    +0.476 C 
ATOM     14  O   UNL     1      43.930  19.736  18.441  0.00  0.00    -0.448 OA
ENDBRANCH  12  13
BRANCH  16  17
ATOM     17  O   UNL     1      44.926  21.437  20.787  0.00  0.00    -0.562 OA
ATOM     18  H   UNL     1      44.600  20.656  20.320  0.00  0.00    +0.386 HD
ENDBRANCH  16  17
ENDBRANCH   9  10
TORSDOF 3
ENDMDL
MODEL 8
REMARK VINA RESULT:      -5.0      2.635      5.221
REMARK  Name = ZINC95486336
REMARK  6 active torsions:
REMARK  status: ('A' for Active; 'I' for Inactive)
REMARK    1  A    between atoms: C1_1  and  C2_2
REMARK    2  A    between atoms: C6_6  and  C19_27
REMARK    3  A    between atoms: C6_6  and  C20_28
REMARK    4  A    between atoms: C12_13  and  C13_15
REMARK    5  A    between atoms: C15_18  and  C18_25
REMARK    6  A    between atoms: C17_20  and  O3_24
REMARK                            x       y       z     vdW  Elec       q    Type
REMARK                         _______ _______ _______ _____ _____    ______ ____
ROOT
ATOM      1  C   UNL     1      48.160  15.961  20.258  0.00  0.00    +0.030 C 
ATOM      2  C   UNL     1      47.192  16.360  19.145  0.00  0.00    -0.028 C 
ATOM      3  C   UNL     1      45.760  16.035  19.569  0.00  0.00    +0.005 C 
ATOM      4  C   UNL     1      45.559  14.522  19.636  0.00  0.00    -0.001 C 
ATOM      5  C   UNL     1      45.776  13.922  18.251  0.00  0.00    +0.008 C 
ATOM      6  C   UNL     1      47.184  14.218  17.736  0.00  0.00    -0.049 C 
ATOM      7  C   UNL     1      48.199  13.341  18.467  0.00  0.00    +0.023 C 
ATOM      8  C   UNL     1      47.203  13.797  16.247  0.00  0.00    +0.012 C 
ATOM      9  C   UNL     1      47.299  17.887  18.953  0.00  0.00    +0.034 C 
ATOM     21  C   UNL     1      48.686  18.202  18.438  0.00  0.00    -0.112 C 
ATOM     22  C   UNL     1      49.427  19.109  19.031  0.00  0.00    +0.010 C 
ATOM     23  C   UNL     1      49.199  17.460  17.227  0.00  0.00    +0.053 C 
ATOM     24  C   UNL     1      48.975  15.955  17.419  0.00  0.00    +0.021 C 
ATOM     25  C   UNL     1      47.523  15.695  17.816  0.00  0.00    +0.005 C 
ENDROOT
BRANCH   9  10
ATOM     10  C   UNL     1      47.091  18.593  20.293  0.00  0.00    +0.219 C 
ATOM     11  C   UNL     1      45.632  18.514  20.686  0.00  0.00    +0.019 C 
ATOM     12  C   UNL     1      44.696  18.866  19.813  0.00  0.00    -0.152 C 
ATOM     15  C   UNL     1      45.092  19.352  18.438  0.00  0.00    +0.096 C 
ATOM     16  C   UNL     1      45.748  20.730  18.578  0.00  0.00    +0.350 C 
ATOM     19  O   UNL     1      47.126  20.585  18.890  0.00  0.00    -0.225 OA
ATOM     20  O   UNL     1      47.465  19.969  20.174  0.00  0.00    -0.170 OA
BRANCH  12  13
ATOM     13  C   UNL     1      43.282  18.784  20.182  0.00  0.00    +0.476 C 
ATOM     14  O   UNL     1      42.599  19.786  20.193  0.00  0.00    -0.448 OA
ENDBRANCH  12  13
BRANCH  16  17
ATOM     17  O   UNL     1      45.102  21.459  19.623  0.00  0.00    -0.562 OA
ATOM     18  H   UNL     1      44.856  20.919  20.386  0.00  0.00    +0.386 HD
ENDBRANCH  16  17
ENDBRANCH   9  10
TORSDOF 3
ENDMDL
MODEL 9
REMARK VINA RESULT:      -5.0      1.534      3.647
REMARK  Name = ZINC95486336
REMARK  6 active torsions:
REMARK  status: ('A' for Active; 'I' for Inactive)
REMARK    1  A    between atoms: C1_1  and  C2_2
REMARK    2  A    between atoms: C6_6  and  C19_27
REMARK    3  A    between atoms: C6_6  and  C20_28
REMARK    4  A    between atoms: C12_13  and  C13_15
REMARK    5  A    between atoms: C15_18  and  C18_25
REMARK    6  A    between atoms: C17_20  and  O3_24
REMARK                            x       y       z     vdW  Elec       q    Type
REMARK                         _______ _______ _______ _____ _____    ______ ____
ROOT
ATOM      1  C   UNL     1      50.724  18.861  16.938  0.00  0.00    +0.030 C 
ATOM      2  C   UNL     1      50.239  18.447  18.327  0.00  0.00    -0.028 C 
ATOM      3  C   UNL     1      49.010  19.274  18.708  0.00  0.00    +0.005 C 
ATOM      4  C   UNL     1      49.405  20.733  18.932  0.00  0.00    -0.001 C 
ATOM      5  C   UNL     1      50.394  20.816  20.090  0.00  0.00    +0.008 C 
ATOM      6  C   UNL     1      51.651  19.997  19.802  0.00  0.00    -0.049 C 
ATOM      7  C   UNL     1      52.520  20.722  18.777  0.00  0.00    +0.023 C 
ATOM      8  C   UNL     1      52.451  19.943  21.125  0.00  0.00    +0.012 C 
ATOM      9  C   UNL     1      49.814  16.965  18.256  0.00  0.00    +0.034 C 
ATOM     21  C   UNL     1      51.046  16.134  17.976  0.00  0.00    -0.112 C 
ATOM     22  C   UNL     1      51.055  15.267  16.990  0.00  0.00    +0.010 C 
ATOM     23  C   UNL     1      52.260  16.314  18.854  0.00  0.00    +0.053 C 
ATOM     24  C   UNL     1      52.581  17.809  18.981  0.00  0.00    +0.021 C 
ATOM     25  C   UNL     1      51.323  18.574  19.388  0.00  0.00    +0.005 C 
ENDROOT
BRANCH   9  10
ATOM     10  C   UNL     1      48.809  16.769  17.119  0.00  0.00    +0.219 C 
ATOM     11  C   UNL     1      47.487  17.401  17.496  0.00  0.00    +0.019 C 
ATOM     12  C   UNL     1      46.936  17.121  18.671  0.00  0.00    -0.152 C 
ATOM     15  C   UNL     1      47.625  16.168  19.620  0.00  0.00    +0.096 C 
ATOM     16  C   UNL     1      47.548  14.754  19.032  0.00  0.00    +0.350 C 
ATOM     19  O   UNL     1      48.605  14.551  18.107  0.00  0.00    -0.225 OA
ATOM     20  O   UNL     1      48.607  15.371  16.894  0.00  0.00    -0.170 OA
BRANCH  12  13
ATOM     13  C   UNL     1      45.663  17.736  19.048  0.00  0.00    +0.476 C 
ATOM     14  O   UNL     1      44.795  17.065  19.565  0.00  0.00    -0.448 OA
ENDBRANCH  12  13
BRANCH  16  17
ATOM     17  O   UNL     1      46.296  14.588  18.362  0.00  0.00    -0.562 OA
ATOM     18  H   UNL     1      45.545  14.461  18.958  0.00  0.00    +0.386 HD
ENDBRANCH  16  17
ENDBRANCH   9  10
TORSDOF 3
ENDMDL
