MODEL 1
REMARK VINA RESULT:      -6.0      0.000      0.000
REMARK  Name = ZINC95485965
REMARK  17 active torsions:
REMARK  status: ('A' for Active; 'I' for Inactive)
REMARK    1  A    between atoms: C1_1  and  C2_2
REMARK    2  A    between atoms: C4_4  and  O4_37
REMARK    3  A    between atoms: C7_7  and  C8_8
REMARK    4  A    between atoms: C8_8  and  C9_9
REMARK    5  A    between atoms: C9_9  and  C10_10
REMARK    6  A    between atoms: C11_11  and  C12_12
REMARK    7  A    between atoms: C11_11  and  C13_13
REMARK    8  A    between atoms: C21_23  and  C22_24
REMARK    9  A    between atoms: C21_23  and  C28_30
REMARK   10  A    between atoms: C22_24  and  C23_25
REMARK   11  A    between atoms: C23_25  and  C24_26
REMARK   12  A    between atoms: C25_27  and  C26_28
REMARK   13  A    between atoms: C25_27  and  C27_29
REMARK   14  A    between atoms: C28_30  and  C29_31
REMARK   15  A    between atoms: C29_31  and  C30_32
REMARK   16  A    between atoms: C31_33  and  C32_34
REMARK   17  A    between atoms: C31_33  and  C33_35
REMARK                            x       y       z     vdW  Elec       q    Type
REMARK                         _______ _______ _______ _____ _____    ______ ____
ROOT
ATOM      1  C   UNL     1      42.882  20.947  19.250  0.00  0.00    +0.075 C 
ATOM      2  C   UNL     1      43.455  19.665  19.798  0.00  0.00    -0.048 A 
ATOM      3  C   UNL     1      42.719  18.924  20.717  0.00  0.00    -0.102 A 
ATOM      4  C   UNL     1      43.221  17.750  21.235  0.00  0.00    +0.179 A 
ATOM      7  C   UNL     1      44.493  17.299  20.827  0.00  0.00    -0.179 A 
ATOM      8  C   UNL     1      45.232  18.059  19.887  0.00  0.00    +0.056 A 
ATOM      9  C   UNL     1      46.498  17.609  19.469  0.00  0.00    -0.156 A 
ATOM     10  C   UNL     1      47.024  16.454  19.961  0.00  0.00    +0.062 A 
ATOM     11  C   UNL     1      46.310  15.697  20.908  0.00  0.00    -0.380 A 
ATOM     12  C   UNL     1      46.873  14.468  21.481  0.00  0.00    +0.405 C 
ATOM     13  C   UNL     1      48.074  13.837  20.810  0.00  0.00    -0.001 C 
ATOM     14  C   UNL     1      48.970  14.979  20.368  0.00  0.00    +0.390 C 
ATOM     15  O   UNL     1      50.118  15.048  20.735  0.00  0.00    -0.451 OA
ATOM     16  O   UNL     1      46.384  13.967  22.474  0.00  0.00    -0.456 OA
ATOM     17  C   UNL     1      48.379  16.024  19.455  0.00  0.00    -0.066 C 
ATOM     30  C   UNL     1      45.043  16.111  21.337  0.00  0.00    +0.343 A 
ATOM     31  O   UNL     1      44.352  15.372  22.237  0.00  0.00    -0.615 OA
ATOM     32  C   UNL     1      44.684  19.248  19.381  0.00  0.00    -0.132 A 
ENDROOT
BRANCH   4   5
ATOM      5  O   UNL     1      42.496  17.033  22.132  0.00  0.00    -0.478 OA
ATOM      6  H   UNL     1      41.612  17.390  22.297  0.00  0.00    +0.384 HD
ENDBRANCH   4   5
BRANCH  17  18
ATOM     18  C   UNL     1      49.310  17.237  19.404  0.00  0.00    +0.053 C 
BRANCH  18  19
ATOM     19  C   UNL     1      49.876  17.385  17.992  0.00  0.00    +0.050 C 
BRANCH  19  20
ATOM     20  C   UNL     1      49.934  18.845  17.624  0.00  0.00    -0.049 C 
ATOM     21  C   UNL     1      51.058  19.507  17.743  0.00  0.00    -0.142 C 
ATOM     22  C   UNL     1      51.095  20.986  17.460  0.00  0.00    +0.065 C 
ATOM     23  C   UNL     1      52.315  18.788  18.162  0.00  0.00    +0.071 C 
ENDBRANCH  19  20
ENDBRANCH  18  19
ENDBRANCH  17  18
BRANCH  17  24
ATOM     24  C   UNL     1      48.231  15.442  18.047  0.00  0.00    +0.064 C 
BRANCH  24  25
ATOM     25  C   UNL     1      46.779  15.020  17.820  0.00  0.00    +0.042 C 
BRANCH  25  26
ATOM     26  C   UNL     1      46.747  13.732  17.038  0.00  0.00    -0.047 C 
ATOM     27  C   UNL     1      45.910  12.782  17.373  0.00  0.00    -0.141 C 
ATOM     28  C   UNL     1      45.786  11.550  16.515  0.00  0.00    +0.069 C 
ATOM     29  C   UNL     1      45.071  12.921  18.617  0.00  0.00    +0.070 C 
ENDBRANCH  25  26
ENDBRANCH  24  25
ENDBRANCH  17  24
BRANCH  32  33
ATOM     33  C   UNL     1      45.458  20.067  18.380  0.00  0.00    +0.070 C 
BRANCH  33  34
ATOM     34  C   UNL     1      46.062  21.288  19.078  0.00  0.00    +0.056 C 
BRANCH  34  35
ATOM     35  C   UNL     1      47.516  21.027  19.376  0.00  0.00    -0.045 C 
ATOM     36  C   UNL     1      47.916  20.886  20.616  0.00  0.00    -0.147 C 
ATOM     37  C   UNL     1      49.343  20.501  20.907  0.00  0.00    +0.065 C 
ATOM     38  C   UNL     1      46.948  21.109  21.749  0.00  0.00    +0.068 C 
ENDBRANCH  34  35
ENDBRANCH  33  34
ENDBRANCH  32  33
TORSDOF 10
ENDMDL
MODEL 2
REMARK VINA RESULT:      -5.8      2.083      6.023
REMARK  Name = ZINC95485965
REMARK  17 active torsions:
REMARK  status: ('A' for Active; 'I' for Inactive)
REMARK    1  A    between atoms: C1_1  and  C2_2
REMARK    2  A    between atoms: C4_4  and  O4_37
REMARK    3  A    between atoms: C7_7  and  C8_8
REMARK    4  A    between atoms: C8_8  and  C9_9
REMARK    5  A    between atoms: C9_9  and  C10_10
REMARK    6  A    between atoms: C11_11  and  C12_12
REMARK    7  A    between atoms: C11_11  and  C13_13
REMARK    8  A    between atoms: C21_23  and  C22_24
REMARK    9  A    between atoms: C21_23  and  C28_30
REMARK   10  A    between atoms: C22_24  and  C23_25
REMARK   11  A    between atoms: C23_25  and  C24_26
REMARK   12  A    between atoms: C25_27  and  C26_28
REMARK   13  A    between atoms: C25_27  and  C27_29
REMARK   14  A    between atoms: C28_30  and  C29_31
REMARK   15  A    between atoms: C29_31  and  C30_32
REMARK   16  A    between atoms: C31_33  and  C32_34
REMARK   17  A    between atoms: C31_33  and  C33_35
REMARK                            x       y       z     vdW  Elec       q    Type
REMARK                         _______ _______ _______ _____ _____    ______ ____
ROOT
ATOM      1  C   UNL     1      50.775  21.144  18.535  0.00  0.00    +0.075 C 
ATOM      2  C   UNL     1      50.514  19.693  18.219  0.00  0.00    -0.048 A 
ATOM      3  C   UNL     1      51.332  19.035  17.307  0.00  0.00    -0.102 A 
ATOM      4  C   UNL     1      51.116  17.709  16.998  0.00  0.00    +0.179 A 
ATOM      7  C   UNL     1      50.053  17.018  17.616  0.00  0.00    -0.179 A 
ATOM      8  C   UNL     1      49.229  17.698  18.547  0.00  0.00    +0.056 A 
ATOM      9  C   UNL     1      48.173  17.010  19.174  0.00  0.00    -0.156 A 
ATOM     10  C   UNL     1      47.930  15.701  18.892  0.00  0.00    +0.062 A 
ATOM     11  C   UNL     1      48.728  15.017  17.956  0.00  0.00    -0.380 A 
ATOM     12  C   UNL     1      48.462  13.616  17.608  0.00  0.00    +0.405 C 
ATOM     13  C   UNL     1      47.540  12.809  18.497  0.00  0.00    -0.001 C 
ATOM     14  C   UNL     1      46.417  13.741  18.913  0.00  0.00    +0.390 C 
ATOM     15  O   UNL     1      45.263  13.465  18.691  0.00  0.00    -0.451 OA
ATOM     16  O   UNL     1      48.972  13.113  16.628  0.00  0.00    -0.456 OA
ATOM     17  C   UNL     1      46.792  15.023  19.613  0.00  0.00    -0.066 C 
ATOM     30  C   UNL     1      49.794  15.669  17.323  0.00  0.00    +0.343 A 
ATOM     31  O   UNL     1      50.570  15.003  16.436  0.00  0.00    -0.615 OA
ATOM     32  C   UNL     1      49.485  19.047  18.836  0.00  0.00    -0.132 A 
ENDROOT
BRANCH   4   5
ATOM      5  O   UNL     1      51.919  17.074  16.107  0.00  0.00    -0.478 OA
ATOM      6  H   UNL     1      51.759  17.325  15.187  0.00  0.00    +0.384 HD
ENDBRANCH   4   5
BRANCH  17  18
ATOM     18  C   UNL     1      45.580  15.958  19.641  0.00  0.00    +0.053 C 
BRANCH  18  19
ATOM     19  C   UNL     1      45.021  16.026  21.062  0.00  0.00    +0.050 C 
BRANCH  19  20
ATOM     20  C   UNL     1      44.266  17.317  21.244  0.00  0.00    -0.049 C 
ATOM     21  C   UNL     1      44.827  18.321  21.871  0.00  0.00    -0.142 C 
ATOM     22  C   UNL     1      44.042  19.580  22.131  0.00  0.00    +0.065 C 
ATOM     23  C   UNL     1      46.258  18.217  22.332  0.00  0.00    +0.071 C 
ENDBRANCH  19  20
ENDBRANCH  18  19
ENDBRANCH  17  18
BRANCH  17  24
ATOM     24  C   UNL     1      47.218  14.710  21.050  0.00  0.00    +0.064 C 
BRANCH  24  25
ATOM     25  C   UNL     1      48.715  14.399  21.079  0.00  0.00    +0.042 C 
BRANCH  25  26
ATOM     26  C   UNL     1      49.416  15.388  21.976  0.00  0.00    -0.047 C 
ATOM     27  C   UNL     1      50.629  15.789  21.686  0.00  0.00    -0.141 C 
ATOM     28  C   UNL     1      51.279  16.873  22.505  0.00  0.00    +0.069 C 
ATOM     29  C   UNL     1      51.374  15.167  20.533  0.00  0.00    +0.070 C 
ENDBRANCH  25  26
ENDBRANCH  24  25
ENDBRANCH  17  24
BRANCH  32  33
ATOM     33  C   UNL     1      48.618  19.783  19.824  0.00  0.00    +0.070 C 
BRANCH  33  34
ATOM     34  C   UNL     1      47.614  20.658  19.070  0.00  0.00    +0.056 C 
BRANCH  34  35
ATOM     35  C   UNL     1      46.349  19.875  18.827  0.00  0.00    -0.045 C 
ATOM     36  C   UNL     1      45.190  20.486  18.826  0.00  0.00    -0.147 C 
ATOM     37  C   UNL     1      43.940  19.729  18.459  0.00  0.00    +0.065 C 
ATOM     38  C   UNL     1      45.108  21.946  19.193  0.00  0.00    +0.068 C 
ENDBRANCH  34  35
ENDBRANCH  33  34
ENDBRANCH  32  33
TORSDOF 10
ENDMDL
MODEL 3
REMARK VINA RESULT:      -5.6      2.678      6.005
REMARK  Name = ZINC95485965
REMARK  17 active torsions:
REMARK  status: ('A' for Active; 'I' for Inactive)
REMARK    1  A    between atoms: C1_1  and  C2_2
REMARK    2  A    between atoms: C4_4  and  O4_37
REMARK    3  A    between atoms: C7_7  and  C8_8
REMARK    4  A    between atoms: C8_8  and  C9_9
REMARK    5  A    between atoms: C9_9  and  C10_10
REMARK    6  A    between atoms: C11_11  and  C12_12
REMARK    7  A    between atoms: C11_11  and  C13_13
REMARK    8  A    between atoms: C21_23  and  C22_24
REMARK    9  A    between atoms: C21_23  and  C28_30
REMARK   10  A    between atoms: C22_24  and  C23_25
REMARK   11  A    between atoms: C23_25  and  C24_26
REMARK   12  A    between atoms: C25_27  and  C26_28
REMARK   13  A    between atoms: C25_27  and  C27_29
REMARK   14  A    between atoms: C28_30  and  C29_31
REMARK   15  A    between atoms: C29_31  and  C30_32
REMARK   16  A    between atoms: C31_33  and  C32_34
REMARK   17  A    between atoms: C31_33  and  C33_35
REMARK                            x       y       z     vdW  Elec       q    Type
REMARK                         _______ _______ _______ _____ _____    ______ ____
ROOT
ATOM      1  C   UNL     1      46.376  10.992  15.163  0.00  0.00    +0.075 C 
ATOM      2  C   UNL     1      46.294  12.031  16.253  0.00  0.00    -0.048 A 
ATOM      3  C   UNL     1      45.264  11.963  17.185  0.00  0.00    -0.102 A 
ATOM      4  C   UNL     1      45.165  12.901  18.191  0.00  0.00    +0.179 A 
ATOM      7  C   UNL     1      46.118  13.937  18.269  0.00  0.00    -0.179 A 
ATOM      8  C   UNL     1      47.165  13.993  17.316  0.00  0.00    +0.056 A 
ATOM      9  C   UNL     1      48.125  15.019  17.396  0.00  0.00    -0.156 A 
ATOM     10  C   UNL     1      48.056  15.963  18.375  0.00  0.00    +0.062 A 
ATOM     11  C   UNL     1      47.012  15.931  19.318  0.00  0.00    -0.380 A 
ATOM     12  C   UNL     1      46.896  16.958  20.361  0.00  0.00    +0.405 C 
ATOM     13  C   UNL     1      48.081  17.861  20.626  0.00  0.00    -0.001 C 
ATOM     14  C   UNL     1      48.692  18.179  19.274  0.00  0.00    +0.390 C 
ATOM     15  O   UNL     1      48.825  19.321  18.903  0.00  0.00    -0.451 OA
ATOM     16  O   UNL     1      45.869  17.082  20.997  0.00  0.00    -0.456 OA
ATOM     17  C   UNL     1      49.128  17.023  18.410  0.00  0.00    -0.066 C 
ATOM     30  C   UNL     1      46.047  14.917  19.274  0.00  0.00    +0.343 A 
ATOM     31  O   UNL     1      45.054  14.880  20.193  0.00  0.00    -0.615 OA
ATOM     32  C   UNL     1      47.233  13.017  16.310  0.00  0.00    -0.132 A 
ENDROOT
BRANCH   4   5
ATOM      5  O   UNL     1      44.156  12.828  19.097  0.00  0.00    -0.478 OA
ATOM      6  H   UNL     1      44.292  12.159  19.782  0.00  0.00    +0.384 HD
ENDBRANCH   4   5
BRANCH  17  18
ATOM     18  C   UNL     1      49.391  17.525  16.988  0.00  0.00    +0.053 C 
BRANCH  18  19
ATOM     19  C   UNL     1      50.897  17.547  16.727  0.00  0.00    +0.050 C 
BRANCH  19  20
ATOM     20  C   UNL     1      51.270  18.839  16.047  0.00  0.00    -0.049 C 
ATOM     21  C   UNL     1      51.889  19.778  16.718  0.00  0.00    -0.142 C 
ATOM     22  C   UNL     1      52.183  21.103  16.064  0.00  0.00    +0.065 C 
ATOM     23  C   UNL     1      52.308  19.533  18.145  0.00  0.00    +0.071 C 
ENDBRANCH  19  20
ENDBRANCH  18  19
ENDBRANCH  17  18
BRANCH  17  24
ATOM     24  C   UNL     1      50.416  16.422  18.978  0.00  0.00    +0.064 C 
BRANCH  24  25
ATOM     25  C   UNL     1      50.081  15.156  19.768  0.00  0.00    +0.042 C 
BRANCH  25  26
ATOM     26  C   UNL     1      51.059  14.067  19.408  0.00  0.00    -0.047 C 
ATOM     27  C   UNL     1      50.670  12.817  19.389  0.00  0.00    -0.141 C 
ATOM     28  C   UNL     1      51.608  11.742  18.903  0.00  0.00    +0.069 C 
ATOM     29  C   UNL     1      49.283  12.452  19.851  0.00  0.00    +0.070 C 
ENDBRANCH  25  26
ENDBRANCH  24  25
ENDBRANCH  17  24
BRANCH  32  33
ATOM     33  C   UNL     1      48.341  13.063  15.290  0.00  0.00    +0.070 C 
BRANCH  33  34
ATOM     34  C   UNL     1      49.620  12.485  15.900  0.00  0.00    +0.056 C 
BRANCH  34  35
ATOM     35  C   UNL     1      50.798  13.328  15.488  0.00  0.00    -0.045 C 
ATOM     36  C   UNL     1      51.431  13.068  14.370  0.00  0.00    -0.147 C 
ATOM     37  C   UNL     1      52.528  13.986  13.895  0.00  0.00    +0.065 C 
ATOM     38  C   UNL     1      51.063  11.851  13.562  0.00  0.00    +0.068 C 
ENDBRANCH  34  35
ENDBRANCH  33  34
ENDBRANCH  32  33
TORSDOF 10
ENDMDL
MODEL 4
REMARK VINA RESULT:      -5.6      3.439      7.211
REMARK  Name = ZINC95485965
REMARK  17 active torsions:
REMARK  status: ('A' for Active; 'I' for Inactive)
REMARK    1  A    between atoms: C1_1  and  C2_2
REMARK    2  A    between atoms: C4_4  and  O4_37
REMARK    3  A    between atoms: C7_7  and  C8_8
REMARK    4  A    between atoms: C8_8  and  C9_9
REMARK    5  A    between atoms: C9_9  and  C10_10
REMARK    6  A    between atoms: C11_11  and  C12_12
REMARK    7  A    between atoms: C11_11  and  C13_13
REMARK    8  A    between atoms: C21_23  and  C22_24
REMARK    9  A    between atoms: C21_23  and  C28_30
REMARK   10  A    between atoms: C22_24  and  C23_25
REMARK   11  A    between atoms: C23_25  and  C24_26
REMARK   12  A    between atoms: C25_27  and  C26_28
REMARK   13  A    between atoms: C25_27  and  C27_29
REMARK   14  A    between atoms: C28_30  and  C29_31
REMARK   15  A    between atoms: C29_31  and  C30_32
REMARK   16  A    between atoms: C31_33  and  C32_34
REMARK   17  A    between atoms: C31_33  and  C33_35
REMARK                            x       y       z     vdW  Elec       q    Type
REMARK                         _______ _______ _______ _____ _____    ______ ____
ROOT
ATOM      1  C   UNL     1      49.202  12.788  19.385  0.00  0.00    +0.075 C 
ATOM      2  C   UNL     1      49.766  13.998  18.684  0.00  0.00    -0.048 A 
ATOM      3  C   UNL     1      50.431  13.838  17.474  0.00  0.00    -0.102 A 
ATOM      4  C   UNL     1      50.958  14.927  16.812  0.00  0.00    +0.179 A 
ATOM      7  C   UNL     1      50.818  16.212  17.373  0.00  0.00    -0.179 A 
ATOM      8  C   UNL     1      50.134  16.364  18.605  0.00  0.00    +0.056 A 
ATOM      9  C   UNL     1      49.983  17.647  19.164  0.00  0.00    -0.156 A 
ATOM     10  C   UNL     1      50.491  18.744  18.539  0.00  0.00    +0.062 A 
ATOM     11  C   UNL     1      51.188  18.608  17.324  0.00  0.00    -0.380 A 
ATOM     12  C   UNL     1      51.777  19.771  16.650  0.00  0.00    +0.405 C 
ATOM     13  C   UNL     1      51.352  21.156  17.088  0.00  0.00    -0.001 C 
ATOM     14  C   UNL     1      51.217  21.109  18.598  0.00  0.00    +0.390 C 
ATOM     15  O   UNL     1      51.841  21.865  19.303  0.00  0.00    -0.451 OA
ATOM     16  O   UNL     1      52.589  19.626  15.759  0.00  0.00    -0.456 OA
ATOM     17  C   UNL     1      50.277  20.088  19.188  0.00  0.00    -0.066 C 
ATOM     30  C   UNL     1      51.346  17.347  16.735  0.00  0.00    +0.343 A 
ATOM     31  O   UNL     1      52.004  17.222  15.558  0.00  0.00    -0.615 OA
ATOM     32  C   UNL     1      49.610  15.230  19.245  0.00  0.00    -0.132 A 
ENDROOT
BRANCH   4   5
ATOM      5  O   UNL     1      51.606  14.762  15.631  0.00  0.00    -0.478 OA
ATOM      6  H   UNL     1      52.531  14.498  15.725  0.00  0.00    +0.384 HD
ENDBRANCH   4   5
BRANCH  17  18
ATOM     18  C   UNL     1      50.535  19.972  20.692  0.00  0.00    +0.053 C 
BRANCH  18  19
ATOM     19  C   UNL     1      51.940  19.419  20.927  0.00  0.00    +0.050 C 
BRANCH  19  20
ATOM     20  C   UNL     1      51.868  18.253  21.879  0.00  0.00    -0.049 C 
ATOM     21  C   UNL     1      52.478  17.131  21.588  0.00  0.00    -0.142 C 
ATOM     22  C   UNL     1      52.332  15.937  22.496  0.00  0.00    +0.065 C 
ATOM     23  C   UNL     1      53.324  17.033  20.345  0.00  0.00    +0.071 C 
ENDBRANCH  19  20
ENDBRANCH  18  19
ENDBRANCH  17  18
BRANCH  17  24
ATOM     24  C   UNL     1      48.832  20.536  18.958  0.00  0.00    +0.064 C 
BRANCH  24  25
ATOM     25  C   UNL     1      48.243  21.051  20.273  0.00  0.00    +0.042 C 
BRANCH  25  26
ATOM     26  C   UNL     1      46.780  20.692  20.342  0.00  0.00    -0.047 C 
ATOM     27  C   UNL     1      46.343  19.906  21.294  0.00  0.00    -0.141 C 
ATOM     28  C   UNL     1      44.865  19.652  21.442  0.00  0.00    +0.069 C 
ATOM     29  C   UNL     1      47.317  19.256  22.241  0.00  0.00    +0.070 C 
ENDBRANCH  25  26
ENDBRANCH  24  25
ENDBRANCH  17  24
BRANCH  32  33
ATOM     33  C   UNL     1      48.880  15.375  20.555  0.00  0.00    +0.070 C 
BRANCH  33  34
ATOM     34  C   UNL     1      47.371  15.294  20.310  0.00  0.00    +0.056 C 
BRANCH  34  35
ATOM     35  C   UNL     1      46.876  16.617  19.786  0.00  0.00    -0.045 C 
ATOM     36  C   UNL     1      46.451  16.716  18.551  0.00  0.00    -0.147 C 
ATOM     37  C   UNL     1      45.839  18.005  18.066  0.00  0.00    +0.065 C 
ATOM     38  C   UNL     1      46.576  15.541  17.616  0.00  0.00    +0.068 C 
ENDBRANCH  34  35
ENDBRANCH  33  34
ENDBRANCH  32  33
TORSDOF 10
ENDMDL
MODEL 5
REMARK VINA RESULT:      -5.6      2.341      5.634
REMARK  Name = ZINC95485965
REMARK  17 active torsions:
REMARK  status: ('A' for Active; 'I' for Inactive)
REMARK    1  A    between atoms: C1_1  and  C2_2
REMARK    2  A    between atoms: C4_4  and  O4_37
REMARK    3  A    between atoms: C7_7  and  C8_8
REMARK    4  A    between atoms: C8_8  and  C9_9
REMARK    5  A    between atoms: C9_9  and  C10_10
REMARK    6  A    between atoms: C11_11  and  C12_12
REMARK    7  A    between atoms: C11_11  and  C13_13
REMARK    8  A    between atoms: C21_23  and  C22_24
REMARK    9  A    between atoms: C21_23  and  C28_30
REMARK   10  A    between atoms: C22_24  and  C23_25
REMARK   11  A    between atoms: C23_25  and  C24_26
REMARK   12  A    between atoms: C25_27  and  C26_28
REMARK   13  A    between atoms: C25_27  and  C27_29
REMARK   14  A    between atoms: C28_30  and  C29_31
REMARK   15  A    between atoms: C29_31  and  C30_32
REMARK   16  A    between atoms: C31_33  and  C32_34
REMARK   17  A    between atoms: C31_33  and  C33_35
REMARK                            x       y       z     vdW  Elec       q    Type
REMARK                         _______ _______ _______ _____ _____    ______ ____
ROOT
ATOM      1  C   UNL     1      47.894  14.006  16.238  0.00  0.00    +0.075 C 
ATOM      2  C   UNL     1      47.394  14.848  17.384  0.00  0.00    -0.048 A 
ATOM      3  C   UNL     1      46.286  14.425  18.111  0.00  0.00    -0.102 A 
ATOM      4  C   UNL     1      45.808  15.177  19.163  0.00  0.00    +0.179 A 
ATOM      7  C   UNL     1      46.450  16.385  19.500  0.00  0.00    -0.179 A 
ATOM      8  C   UNL     1      47.580  16.804  18.755  0.00  0.00    +0.056 A 
ATOM      9  C   UNL     1      48.232  18.005  19.094  0.00  0.00    -0.156 A 
ATOM     10  C   UNL     1      47.785  18.773  20.126  0.00  0.00    +0.062 A 
ATOM     11  C   UNL     1      46.654  18.380  20.864  0.00  0.00    -0.380 A 
ATOM     12  C   UNL     1      46.131  19.209  21.956  0.00  0.00    +0.405 C 
ATOM     13  C   UNL     1      47.001  20.319  22.505  0.00  0.00    -0.001 C 
ATOM     14  C   UNL     1      47.709  20.941  21.316  0.00  0.00    +0.390 C 
ATOM     15  O   UNL     1      47.607  22.121  21.078  0.00  0.00    -0.451 OA
ATOM     16  O   UNL     1      45.023  19.009  22.411  0.00  0.00    -0.456 OA
ATOM     17  C   UNL     1      48.542  20.038  20.443  0.00  0.00    -0.066 C 
ATOM     30  C   UNL     1      45.989  17.185  20.560  0.00  0.00    +0.343 A 
ATOM     31  O   UNL     1      44.910  16.802  21.282  0.00  0.00    -0.615 OA
ATOM     32  C   UNL     1      48.039  16.009  17.694  0.00  0.00    -0.132 A 
ENDROOT
BRANCH   4   5
ATOM      5  O   UNL     1      44.726  14.757  19.867  0.00  0.00    -0.478 OA
ATOM      6  H   UNL     1      43.910  15.229  19.651  0.00  0.00    +0.384 HD
ENDBRANCH   4   5
BRANCH  17  18
ATOM     18  C   UNL     1      48.882  20.766  19.140  0.00  0.00    +0.053 C 
BRANCH  18  19
ATOM     19  C   UNL     1      50.400  20.897  19.011  0.00  0.00    +0.050 C 
BRANCH  19  20
ATOM     20  C   UNL     1      50.806  20.641  17.582  0.00  0.00    -0.049 C 
ATOM     21  C   UNL     1      51.777  19.803  17.317  0.00  0.00    -0.142 C 
ATOM     22  C   UNL     1      52.243  19.615  15.897  0.00  0.00    +0.065 C 
ATOM     23  C   UNL     1      52.429  19.028  18.433  0.00  0.00    +0.071 C 
ENDBRANCH  19  20
ENDBRANCH  18  19
ENDBRANCH  17  18
BRANCH  17  24
ATOM     24  C   UNL     1      49.839  19.682  21.173  0.00  0.00    +0.064 C 
BRANCH  24  25
ATOM     25  C   UNL     1      49.730  18.268  21.744  0.00  0.00    +0.042 C 
BRANCH  25  26
ATOM     26  C   UNL     1      51.026  17.532  21.515  0.00  0.00    -0.047 C 
ATOM     27  C   UNL     1      51.016  16.242  21.294  0.00  0.00    -0.141 C 
ATOM     28  C   UNL     1      52.295  15.529  20.936  0.00  0.00    +0.069 C 
ATOM     29  C   UNL     1      49.727  15.468  21.396  0.00  0.00    +0.070 C 
ENDBRANCH  25  26
ENDBRANCH  24  25
ENDBRANCH  17  24
BRANCH  32  33
ATOM     33  C   UNL     1      49.240  16.440  16.893  0.00  0.00    +0.070 C 
BRANCH  33  34
ATOM     34  C   UNL     1      50.517  16.015  17.621  0.00  0.00    +0.056 C 
BRANCH  34  35
ATOM     35  C   UNL     1      51.227  14.960  16.813  0.00  0.00    -0.045 C 
ATOM     36  C   UNL     1      51.232  13.715  17.221  0.00  0.00    -0.147 C 
ATOM     37  C   UNL     1      51.833  12.640  16.352  0.00  0.00    +0.065 C 
ATOM     38  C   UNL     1      50.639  13.359  18.560  0.00  0.00    +0.068 C 
ENDBRANCH  34  35
ENDBRANCH  33  34
ENDBRANCH  32  33
TORSDOF 10
ENDMDL
MODEL 6
REMARK VINA RESULT:      -5.6      2.537      6.791
REMARK  Name = ZINC95485965
REMARK  17 active torsions:
REMARK  status: ('A' for Active; 'I' for Inactive)
REMARK    1  A    between atoms: C1_1  and  C2_2
REMARK    2  A    between atoms: C4_4  and  O4_37
REMARK    3  A    between atoms: C7_7  and  C8_8
REMARK    4  A    between atoms: C8_8  and  C9_9
REMARK    5  A    between atoms: C9_9  and  C10_10
REMARK    6  A    between atoms: C11_11  and  C12_12
REMARK    7  A    between atoms: C11_11  and  C13_13
REMARK    8  A    between atoms: C21_23  and  C22_24
REMARK    9  A    between atoms: C21_23  and  C28_30
REMARK   10  A    between atoms: C22_24  and  C23_25
REMARK   11  A    between atoms: C23_25  and  C24_26
REMARK   12  A    between atoms: C25_27  and  C26_28
REMARK   13  A    between atoms: C25_27  and  C27_29
REMARK   14  A    between atoms: C28_30  and  C29_31
REMARK   15  A    between atoms: C29_31  and  C30_32
REMARK   16  A    between atoms: C31_33  and  C32_34
REMARK   17  A    between atoms: C31_33  and  C33_35
REMARK                            x       y       z     vdW  Elec       q    Type
REMARK                         _______ _______ _______ _____ _____    ______ ____
ROOT
ATOM      1  C   UNL     1      47.790  13.994  16.273  0.00  0.00    +0.075 C 
ATOM      2  C   UNL     1      48.588  14.761  17.297  0.00  0.00    -0.048 A 
ATOM      3  C   UNL     1      49.696  14.163  17.887  0.00  0.00    -0.102 A 
ATOM      4  C   UNL     1      50.442  14.841  18.828  0.00  0.00    +0.179 A 
ATOM      7  C   UNL     1      50.073  16.152  19.191  0.00  0.00    -0.179 A 
ATOM      8  C   UNL     1      48.945  16.752  18.580  0.00  0.00    +0.056 A 
ATOM      9  C   UNL     1      48.578  18.065  18.932  0.00  0.00    -0.156 A 
ATOM     10  C   UNL     1      49.291  18.763  19.858  0.00  0.00    +0.062 A 
ATOM     11  C   UNL     1      50.404  18.174  20.487  0.00  0.00    -0.380 A 
ATOM     12  C   UNL     1      51.166  18.893  21.515  0.00  0.00    +0.405 C 
ATOM     13  C   UNL     1      50.960  20.385  21.661  0.00  0.00    -0.001 C 
ATOM     14  C   UNL     1      49.477  20.638  21.463  0.00  0.00    +0.390 C 
ATOM     15  O   UNL     1      48.822  21.195  22.310  0.00  0.00    -0.451 OA
ATOM     16  O   UNL     1      51.947  18.303  22.234  0.00  0.00    -0.456 OA
ATOM     17  C   UNL     1      48.851  20.171  20.174  0.00  0.00    -0.066 C 
ATOM     30  C   UNL     1      50.802  16.874  20.151  0.00  0.00    +0.343 A 
ATOM     31  O   UNL     1      51.883  16.317  20.747  0.00  0.00    -0.615 OA
ATOM     32  C   UNL     1      48.214  16.030  17.624  0.00  0.00    -0.132 A 
ENDROOT
BRANCH   4   5
ATOM      5  O   UNL     1      51.522  14.250  19.400  0.00  0.00    -0.478 OA
ATOM      6  H   UNL     1      52.027  14.834  19.981  0.00  0.00    +0.384 HD
ENDBRANCH   4   5
BRANCH  17  18
ATOM     18  C   UNL     1      47.327  20.207  20.308  0.00  0.00    +0.053 C 
BRANCH  18  19
ATOM     19  C   UNL     1      46.730  20.977  19.130  0.00  0.00    +0.050 C 
BRANCH  19  20
ATOM     20  C   UNL     1      45.444  20.320  18.701  0.00  0.00    -0.049 C 
ATOM     21  C   UNL     1      44.295  20.792  19.118  0.00  0.00    -0.142 C 
ATOM     22  C   UNL     1      43.014  20.083  18.762  0.00  0.00    +0.065 C 
ATOM     23  C   UNL     1      44.255  22.045  19.955  0.00  0.00    +0.071 C 
ENDBRANCH  19  20
ENDBRANCH  18  19
ENDBRANCH  17  18
BRANCH  17  24
ATOM     24  C   UNL     1      49.278  21.101  19.036  0.00  0.00    +0.064 C 
BRANCH  24  25
ATOM     25  C   UNL     1      50.798  21.043  18.874  0.00  0.00    +0.042 C 
BRANCH  25  26
ATOM     26  C   UNL     1      51.141  20.894  17.413  0.00  0.00    -0.047 C 
ATOM     27  C   UNL     1      51.961  19.950  17.026  0.00  0.00    -0.141 C 
ATOM     28  C   UNL     1      52.203  19.717  15.557  0.00  0.00    +0.069 C 
ATOM     29  C   UNL     1      52.664  19.095  18.049  0.00  0.00    +0.070 C 
ENDBRANCH  25  26
ENDBRANCH  24  25
ENDBRANCH  17  24
BRANCH  32  33
ATOM     33  C   UNL     1      47.012  16.656  16.965  0.00  0.00    +0.070 C 
BRANCH  33  34
ATOM     34  C   UNL     1      45.917  16.883  18.010  0.00  0.00    +0.056 C 
BRANCH  34  35
ATOM     35  C   UNL     1      45.794  15.661  18.883  0.00  0.00    -0.045 C 
ATOM     36  C   UNL     1      45.445  15.786  20.139  0.00  0.00    -0.147 C 
ATOM     37  C   UNL     1      45.200  14.557  20.978  0.00  0.00    +0.065 C 
ATOM     38  C   UNL     1      45.291  17.157  20.746  0.00  0.00    +0.068 C 
ENDBRANCH  34  35
ENDBRANCH  33  34
ENDBRANCH  32  33
TORSDOF 10
ENDMDL
MODEL 7
REMARK VINA RESULT:      -5.4      2.202      5.903
REMARK  Name = ZINC95485965
REMARK  17 active torsions:
REMARK  status: ('A' for Active; 'I' for Inactive)
REMARK    1  A    between atoms: C1_1  and  C2_2
REMARK    2  A    between atoms: C4_4  and  O4_37
REMARK    3  A    between atoms: C7_7  and  C8_8
REMARK    4  A    between atoms: C8_8  and  C9_9
REMARK    5  A    between atoms: C9_9  and  C10_10
REMARK    6  A    between atoms: C11_11  and  C12_12
REMARK    7  A    between atoms: C11_11  and  C13_13
REMARK    8  A    between atoms: C21_23  and  C22_24
REMARK    9  A    between atoms: C21_23  and  C28_30
REMARK   10  A    between atoms: C22_24  and  C23_25
REMARK   11  A    between atoms: C23_25  and  C24_26
REMARK   12  A    between atoms: C25_27  and  C26_28
REMARK   13  A    between atoms: C25_27  and  C27_29
REMARK   14  A    between atoms: C28_30  and  C29_31
REMARK   15  A    between atoms: C29_31  and  C30_32
REMARK   16  A    between atoms: C31_33  and  C32_34
REMARK   17  A    between atoms: C31_33  and  C33_35
REMARK                            x       y       z     vdW  Elec       q    Type
REMARK                         _______ _______ _______ _____ _____    ______ ____
ROOT
ATOM      1  C   UNL     1      50.961  21.151  17.920  0.00  0.00    +0.075 C 
ATOM      2  C   UNL     1      50.703  19.676  17.750  0.00  0.00    -0.048 A 
ATOM      3  C   UNL     1      51.587  18.910  16.998  0.00  0.00    -0.102 A 
ATOM      4  C   UNL     1      51.375  17.559  16.824  0.00  0.00    +0.179 A 
ATOM      7  C   UNL     1      50.248  16.954  17.418  0.00  0.00    -0.179 A 
ATOM      8  C   UNL     1      49.357  17.742  18.186  0.00  0.00    +0.056 A 
ATOM      9  C   UNL     1      48.236  17.141  18.789  0.00  0.00    -0.156 A 
ATOM     10  C   UNL     1      47.995  15.809  18.637  0.00  0.00    +0.062 A 
ATOM     11  C   UNL     1      48.861  15.016  17.863  0.00  0.00    -0.380 A 
ATOM     12  C   UNL     1      48.601  13.586  17.655  0.00  0.00    +0.405 C 
ATOM     13  C   UNL     1      47.588  12.895  18.542  0.00  0.00    -0.001 C 
ATOM     14  C   UNL     1      46.451  13.878  18.745  0.00  0.00    +0.390 C 
ATOM     15  O   UNL     1      45.316  13.587  18.451  0.00  0.00    -0.451 OA
ATOM     16  O   UNL     1      49.188  12.969  16.788  0.00  0.00    -0.456 OA
ATOM     17  C   UNL     1      46.785  15.229  19.325  0.00  0.00    -0.066 C 
ATOM     30  C   UNL     1      49.991  15.581  17.259  0.00  0.00    +0.343 A 
ATOM     31  O   UNL     1      50.831  14.811  16.528  0.00  0.00    -0.615 OA
ATOM     32  C   UNL     1      49.611  19.114  18.341  0.00  0.00    -0.132 A 
ENDROOT
BRANCH   4   5
ATOM      5  O   UNL     1      52.242  16.819  16.088  0.00  0.00    -0.478 OA
ATOM      6  H   UNL     1      52.222  15.874  16.291  0.00  0.00    +0.384 HD
ENDBRANCH   4   5
BRANCH  17  18
ATOM     18  C   UNL     1      45.593  16.170  19.135  0.00  0.00    +0.053 C 
BRANCH  18  19
ATOM     19  C   UNL     1      45.069  16.612  20.502  0.00  0.00    +0.050 C 
BRANCH  19  20
ATOM     20  C   UNL     1      44.859  18.104  20.502  0.00  0.00    -0.049 C 
ATOM     21  C   UNL     1      45.374  18.838  21.456  0.00  0.00    -0.142 C 
ATOM     22  C   UNL     1      45.089  20.317  21.506  0.00  0.00    +0.065 C 
ATOM     23  C   UNL     1      46.250  18.205  22.505  0.00  0.00    +0.071 C 
ENDBRANCH  19  20
ENDBRANCH  18  19
ENDBRANCH  17  18
BRANCH  17  24
ATOM     24  C   UNL     1      47.075  15.081  20.820  0.00  0.00    +0.064 C 
BRANCH  24  25
ATOM     25  C   UNL     1      48.513  15.518  21.105  0.00  0.00    +0.042 C 
BRANCH  25  26
ATOM     26  C   UNL     1      49.336  14.315  21.494  0.00  0.00    -0.047 C 
ATOM     27  C   UNL     1      50.637  14.340  21.356  0.00  0.00    -0.141 C 
ATOM     28  C   UNL     1      51.471  13.192  21.865  0.00  0.00    +0.069 C 
ATOM     29  C   UNL     1      51.303  15.516  20.690  0.00  0.00    +0.070 C 
ENDBRANCH  25  26
ENDBRANCH  24  25
ENDBRANCH  17  24
BRANCH  32  33
ATOM     33  C   UNL     1      48.673  19.966  19.155  0.00  0.00    +0.070 C 
BRANCH  33  34
ATOM     34  C   UNL     1      48.904  19.699  20.645  0.00  0.00    +0.056 C 
BRANCH  34  35
ATOM     35  C   UNL     1      49.739  20.808  21.230  0.00  0.00    -0.045 C 
ATOM     36  C   UNL     1      50.993  20.589  21.542  0.00  0.00    -0.147 C 
ATOM     37  C   UNL     1      51.862  21.728  22.008  0.00  0.00    +0.065 C 
ATOM     38  C   UNL     1      51.564  19.198  21.435  0.00  0.00    +0.068 C 
ENDBRANCH  34  35
ENDBRANCH  33  34
ENDBRANCH  32  33
TORSDOF 10
ENDMDL
MODEL 8
REMARK VINA RESULT:      -5.4      2.259      6.535
REMARK  Name = ZINC95485965
REMARK  17 active torsions:
REMARK  status: ('A' for Active; 'I' for Inactive)
REMARK    1  A    between atoms: C1_1  and  C2_2
REMARK    2  A    between atoms: C4_4  and  O4_37
REMARK    3  A    between atoms: C7_7  and  C8_8
REMARK    4  A    between atoms: C8_8  and  C9_9
REMARK    5  A    between atoms: C9_9  and  C10_10
REMARK    6  A    between atoms: C11_11  and  C12_12
REMARK    7  A    between atoms: C11_11  and  C13_13
REMARK    8  A    between atoms: C21_23  and  C22_24
REMARK    9  A    between atoms: C21_23  and  C28_30
REMARK   10  A    between atoms: C22_24  and  C23_25
REMARK   11  A    between atoms: C23_25  and  C24_26
REMARK   12  A    between atoms: C25_27  and  C26_28
REMARK   13  A    between atoms: C25_27  and  C27_29
REMARK   14  A    between atoms: C28_30  and  C29_31
REMARK   15  A    between atoms: C29_31  and  C30_32
REMARK   16  A    between atoms: C31_33  and  C32_34
REMARK   17  A    between atoms: C31_33  and  C33_35
REMARK                            x       y       z     vdW  Elec       q    Type
REMARK                         _______ _______ _______ _____ _____    ______ ____
ROOT
ATOM      1  C   UNL     1      53.444  14.641  21.147  0.00  0.00    +0.075 C 
ATOM      2  C   UNL     1      51.954  14.659  20.914  0.00  0.00    -0.048 A 
ATOM      3  C   UNL     1      51.233  13.474  21.010  0.00  0.00    -0.102 A 
ATOM      4  C   UNL     1      49.870  13.462  20.800  0.00  0.00    +0.179 A 
ATOM      7  C   UNL     1      49.207  14.666  20.485  0.00  0.00    -0.179 A 
ATOM      8  C   UNL     1      49.951  15.868  20.395  0.00  0.00    +0.056 A 
ATOM      9  C   UNL     1      49.293  17.074  20.091  0.00  0.00    -0.156 A 
ATOM     10  C   UNL     1      47.949  17.098  19.876  0.00  0.00    +0.062 A 
ATOM     11  C   UNL     1      47.198  15.910  19.945  0.00  0.00    -0.380 A 
ATOM     12  C   UNL     1      45.754  15.905  19.682  0.00  0.00    +0.405 C 
ATOM     13  C   UNL     1      45.015  17.226  19.662  0.00  0.00    -0.001 C 
ATOM     14  C   UNL     1      45.934  18.225  18.984  0.00  0.00    +0.390 C 
ATOM     15  O   UNL     1      45.576  18.835  18.005  0.00  0.00    -0.451 OA
ATOM     16  O   UNL     1      45.163  14.863  19.484  0.00  0.00    -0.456 OA
ATOM     17  C   UNL     1      47.307  18.429  19.571  0.00  0.00    -0.066 C 
ATOM     30  C   UNL     1      47.821  14.695  20.257  0.00  0.00    +0.343 A 
ATOM     31  O   UNL     1      47.093  13.557  20.338  0.00  0.00    -0.615 OA
ATOM     32  C   UNL     1      51.337  15.838  20.619  0.00  0.00    -0.132 A 
ENDROOT
BRANCH   4   5
ATOM      5  O   UNL     1      49.174  12.301  20.895  0.00  0.00    -0.478 OA
ATOM      6  H   UNL     1      48.485  12.311  21.573  0.00  0.00    +0.384 HD
ENDBRANCH   4   5
BRANCH  17  18
ATOM     18  C   UNL     1      48.177  19.195  18.573  0.00  0.00    +0.053 C 
BRANCH  18  19
ATOM     19  C   UNL     1      48.568  20.547  19.169  0.00  0.00    +0.050 C 
BRANCH  19  20
ATOM     20  C   UNL     1      50.013  20.835  18.858  0.00  0.00    -0.049 C 
ATOM     21  C   UNL     1      50.890  20.913  19.828  0.00  0.00    -0.142 C 
ATOM     22  C   UNL     1      52.317  21.289  19.526  0.00  0.00    +0.065 C 
ATOM     23  C   UNL     1      50.470  20.627  21.247  0.00  0.00    +0.071 C 
ENDBRANCH  19  20
ENDBRANCH  18  19
ENDBRANCH  17  18
BRANCH  17  24
ATOM     24  C   UNL     1      47.190  19.242  20.863  0.00  0.00    +0.064 C 
BRANCH  24  25
ATOM     25  C   UNL     1      45.794  19.861  20.949  0.00  0.00    +0.042 C 
BRANCH  25  26
ATOM     26  C   UNL     1      45.908  21.293  21.408  0.00  0.00    -0.047 C 
ATOM     27  C   UNL     1      45.574  22.268  20.600  0.00  0.00    -0.141 C 
ATOM     28  C   UNL     1      45.563  23.690  21.099  0.00  0.00    +0.069 C 
ATOM     29  C   UNL     1      45.200  21.969  19.171  0.00  0.00    +0.070 C 
ENDBRANCH  25  26
ENDBRANCH  24  25
ENDBRANCH  17  24
BRANCH  32  33
ATOM     33  C   UNL     1      52.142  17.108  20.527  0.00  0.00    +0.070 C 
BRANCH  33  34
ATOM     34  C   UNL     1      52.977  17.091  19.244  0.00  0.00    +0.056 C 
BRANCH  34  35
ATOM     35  C   UNL     1      52.362  18.024  18.233  0.00  0.00    -0.045 C 
ATOM     36  C   UNL     1      51.685  17.539  17.221  0.00  0.00    -0.147 C 
ATOM     37  C   UNL     1      50.965  18.472  16.281  0.00  0.00    +0.065 C 
ATOM     38  C   UNL     1      51.627  16.050  16.998  0.00  0.00    +0.068 C 
ENDBRANCH  34  35
ENDBRANCH  33  34
ENDBRANCH  32  33
TORSDOF 10
ENDMDL
MODEL 9
REMARK VINA RESULT:      -5.2      2.814      5.167
REMARK  Name = ZINC95485965
REMARK  17 active torsions:
REMARK  status: ('A' for Active; 'I' for Inactive)
REMARK    1  A    between atoms: C1_1  and  C2_2
REMARK    2  A    between atoms: C4_4  and  O4_37
REMARK    3  A    between atoms: C7_7  and  C8_8
REMARK    4  A    between atoms: C8_8  and  C9_9
REMARK    5  A    between atoms: C9_9  and  C10_10
REMARK    6  A    between atoms: C11_11  and  C12_12
REMARK    7  A    between atoms: C11_11  and  C13_13
REMARK    8  A    between atoms: C21_23  and  C22_24
REMARK    9  A    between atoms: C21_23  and  C28_30
REMARK   10  A    between atoms: C22_24  and  C23_25
REMARK   11  A    between atoms: C23_25  and  C24_26
REMARK   12  A    between atoms: C25_27  and  C26_28
REMARK   13  A    between atoms: C25_27  and  C27_29
REMARK   14  A    between atoms: C28_30  and  C29_31
REMARK   15  A    between atoms: C29_31  and  C30_32
REMARK   16  A    between atoms: C31_33  and  C32_34
REMARK   17  A    between atoms: C31_33  and  C33_35
REMARK                            x       y       z     vdW  Elec       q    Type
REMARK                         _______ _______ _______ _____ _____    ______ ____
ROOT
ATOM      1  C   UNL     1      51.365  21.168  18.024  0.00  0.00    +0.075 C 
ATOM      2  C   UNL     1      50.174  20.316  18.381  0.00  0.00    -0.048 A 
ATOM      3  C   UNL     1      49.053  20.912  18.948  0.00  0.00    -0.102 A 
ATOM      4  C   UNL     1      47.950  20.157  19.286  0.00  0.00    +0.179 A 
ATOM      7  C   UNL     1      47.965  18.767  19.053  0.00  0.00    -0.179 A 
ATOM      8  C   UNL     1      49.110  18.170  18.471  0.00  0.00    +0.056 A 
ATOM      9  C   UNL     1      49.127  16.784  18.227  0.00  0.00    -0.156 A 
ATOM     10  C   UNL     1      48.056  16.008  18.549  0.00  0.00    +0.062 A 
ATOM     11  C   UNL     1      46.918  16.582  19.144  0.00  0.00    -0.380 A 
ATOM     12  C   UNL     1      45.766  15.760  19.535  0.00  0.00    +0.405 C 
ATOM     13  C   UNL     1      45.665  14.349  18.997  0.00  0.00    -0.001 C 
ATOM     14  C   UNL     1      47.073  13.783  19.004  0.00  0.00    +0.390 C 
ATOM     15  O   UNL     1      47.332  12.765  19.600  0.00  0.00    -0.451 OA
ATOM     16  O   UNL     1      44.911  16.203  20.274  0.00  0.00    -0.456 OA
ATOM     17  C   UNL     1      48.137  14.533  18.244  0.00  0.00    -0.066 C 
ATOM     30  C   UNL     1      46.865  17.960  19.390  0.00  0.00    +0.343 A 
ATOM     31  O   UNL     1      45.762  18.511  19.948  0.00  0.00    -0.615 OA
ATOM     32  C   UNL     1      50.211  18.975  18.138  0.00  0.00    -0.132 A 
ENDROOT
BRANCH   4   5
ATOM      5  O   UNL     1      46.860  20.747  19.840  0.00  0.00    -0.478 OA
ATOM      6  H   UNL     1      47.006  21.077  20.737  0.00  0.00    +0.384 HD
ENDBRANCH   4   5
BRANCH  17  18
ATOM     18  C   UNL     1      49.515  14.006  18.647  0.00  0.00    +0.053 C 
BRANCH  18  19
ATOM     19  C   UNL     1      50.456  14.066  17.444  0.00  0.00    +0.050 C 
BRANCH  19  20
ATOM     20  C   UNL     1      51.292  12.813  17.396  0.00  0.00    -0.049 C 
ATOM     21  C   UNL     1      51.806  12.411  16.261  0.00  0.00    -0.142 C 
ATOM     22  C   UNL     1      52.567  11.112  16.196  0.00  0.00    +0.065 C 
ATOM     23  C   UNL     1      51.636  13.247  15.019  0.00  0.00    +0.071 C 
ENDBRANCH  19  20
ENDBRANCH  18  19
ENDBRANCH  17  18
BRANCH  17  24
ATOM     24  C   UNL     1      47.935  14.316  16.742  0.00  0.00    +0.064 C 
BRANCH  24  25
ATOM     25  C   UNL     1      46.979  13.141  16.522  0.00  0.00    +0.042 C 
BRANCH  25  26
ATOM     26  C   UNL     1      47.775  11.898  16.215  0.00  0.00    -0.047 C 
ATOM     27  C   UNL     1      48.238  11.699  15.007  0.00  0.00    -0.141 C 
ATOM     28  C   UNL     1      49.142  10.525  14.730  0.00  0.00    +0.069 C 
ATOM     29  C   UNL     1      47.869  12.644  13.892  0.00  0.00    +0.070 C 
ENDBRANCH  25  26
ENDBRANCH  24  25
ENDBRANCH  17  24
BRANCH  32  33
ATOM     33  C   UNL     1      51.436  18.356  17.517  0.00  0.00    +0.070 C 
BRANCH  33  34
ATOM     34  C   UNL     1      52.556  18.284  18.559  0.00  0.00    +0.056 C 
BRANCH  34  35
ATOM     35  C   UNL     1      52.821  16.844  18.912  0.00  0.00    -0.045 C 
ATOM     36  C   UNL     1      52.394  16.359  20.052  0.00  0.00    -0.147 C 
ATOM     37  C   UNL     1      52.549  14.890  20.351  0.00  0.00    +0.065 C 
ATOM     38  C   UNL     1      51.750  17.271  21.064  0.00  0.00    +0.068 C 
ENDBRANCH  34  35
ENDBRANCH  33  34
ENDBRANCH  32  33
TORSDOF 10
ENDMDL
