MODEL 1
REMARK VINA RESULT:      -6.6      0.000      0.000
REMARK  Name = ZINC95486375
REMARK  14 active torsions:
REMARK  status: ('A' for Active; 'I' for Inactive)
REMARK    1  A    between atoms: C1_1  and  C2_2
REMARK    2  A    between atoms: C2_2  and  C26_32
REMARK    3  A    between atoms: C3_3  and  C4_4
REMARK    4  A    between atoms: C4_4  and  C5_5
REMARK    5  A    between atoms: C5_5  and  C6_6
REMARK    6  A    between atoms: C8_8  and  C12_13
REMARK    7  A    between atoms: C11_11  and  O1_12
REMARK    8  A    between atoms: C13_14  and  C14_15
REMARK    9  A    between atoms: C14_15  and  C15_17
REMARK   10  A    between atoms: C20_22  and  O3_23
REMARK   11  A    between atoms: C21_25  and  C23_28
REMARK   12  A    between atoms: C23_28  and  C24_29
REMARK   13  A    between atoms: C23_28  and  C25_30
REMARK   14  A    between atoms: C23_28  and  O5_31
REMARK                            x       y       z     vdW  Elec       q    Type
REMARK                         _______ _______ _______ _____ _____    ______ ____
ROOT
ATOM     12  C   UNL     1      47.929  21.028  21.236  0.00  0.00    +0.428 C 
ATOM     29  O   UNL     1      48.382  21.230  22.349  0.00  0.00    -0.447 OA
ENDROOT
BRANCH  12  13
ATOM     13  C   UNL     1      46.567  21.482  20.901  0.00  0.00    -0.220 A 
ATOM     14  C   UNL     1      45.649  20.595  20.327  0.00  0.00    +0.129 A 
ATOM     15  C   UNL     1      44.385  21.025  20.016  0.00  0.00    -0.194 A 
ATOM     16  C   UNL     1      43.993  22.341  20.258  0.00  0.00    +0.162 A 
ATOM     17  O   UNL     1      42.712  22.553  19.854  0.00  0.00    -0.282 OA
ATOM     18  C   UNL     1      42.036  21.291  19.733  0.00  0.00    +0.196 C 
ATOM     24  C   UNL     1      44.901  23.226  20.835  0.00  0.00    -0.044 A 
ATOM     25  C   UNL     1      43.191  20.313  19.409  0.00  0.00    +0.098 C 
ATOM     26  C   UNL     1      46.176  22.805  21.162  0.00  0.00    +0.206 A 
BRANCH  18  19
ATOM     19  C   UNL     1      41.017  21.327  18.593  0.00  0.00    +0.132 C 
ATOM     22  C   UNL     1      39.601  21.324  19.174  0.00  0.00    +0.024 C 
ATOM     23  C   UNL     1      41.204  20.098  17.701  0.00  0.00    +0.031 C 
BRANCH  19  20
ATOM     20  O   UNL     1      41.211  22.512  17.818  0.00  0.00    -0.551 OA
ATOM     21  H   UNL     1      40.871  22.451  16.915  0.00  0.00    +0.381 HD
ENDBRANCH  19  20
ENDBRANCH  18  19
BRANCH  26  27
ATOM     27  O   UNL     1      47.052  23.670  21.731  0.00  0.00    -0.476 OA
ATOM     28  H   UNL     1      46.718  24.096  22.533  0.00  0.00    +0.400 HD
ENDBRANCH  26  27
ENDBRANCH  12  13
BRANCH  12  11
ATOM     10  C   UNL     1      49.400  21.047  19.293  0.00  0.00    +0.124 C 
ATOM     11  C   UNL     1      48.737  20.338  20.234  0.00  0.00    -0.102 C 
BRANCH  10   9
ATOM      7  C   UNL     1      50.927  18.313  17.237  0.00  0.00    -0.108 A 
ATOM      8  C   UNL     1      50.163  18.958  18.183  0.00  0.00    +0.058 A 
ATOM      9  C   UNL     1      50.213  20.353  18.285  0.00  0.00    -0.087 A 
ATOM     30  C   UNL     1      51.040  21.085  17.424  0.00  0.00    +0.045 A 
ATOM     31  C   UNL     1      51.800  20.429  16.482  0.00  0.00    -0.012 A 
ATOM     32  C   UNL     1      51.751  19.043  16.388  0.00  0.00    +0.123 A 
BRANCH  32  33
ATOM     33  O   UNL     1      52.507  18.402  15.460  0.00  0.00    -0.493 OA
ATOM     34  H   UNL     1      52.049  17.677  15.014  0.00  0.00    +0.391 HD
ENDBRANCH  32  33
BRANCH   7   6
ATOM      6  C   UNL     1      50.876  16.810  17.124  0.00  0.00    +0.083 C 
BRANCH   6   5
ATOM      5  C   UNL     1      49.798  16.265  18.063  0.00  0.00    +0.053 C 
BRANCH   5   4
ATOM      1  C   UNL     1      47.122  16.879  17.413  0.00  0.00    +0.072 C 
ATOM      2  C   UNL     1      47.691  15.525  17.076  0.00  0.00    -0.129 C 
ATOM      3  C   UNL     1      46.810  14.472  16.453  0.00  0.00    +0.073 C 
ATOM      4  C   UNL     1      48.950  15.262  17.324  0.00  0.00    -0.061 C 
ENDBRANCH   5   4
ENDBRANCH   6   5
ENDBRANCH   7   6
ENDBRANCH  10   9
ENDBRANCH  12  11
TORSDOF 10
ENDMDL
MODEL 2
REMARK VINA RESULT:      -6.3      2.775      8.133
REMARK  Name = ZINC95486375
REMARK  14 active torsions:
REMARK  status: ('A' for Active; 'I' for Inactive)
REMARK    1  A    between atoms: C1_1  and  C2_2
REMARK    2  A    between atoms: C2_2  and  C26_32
REMARK    3  A    between atoms: C3_3  and  C4_4
REMARK    4  A    between atoms: C4_4  and  C5_5
REMARK    5  A    between atoms: C5_5  and  C6_6
REMARK    6  A    between atoms: C8_8  and  C12_13
REMARK    7  A    between atoms: C11_11  and  O1_12
REMARK    8  A    between atoms: C13_14  and  C14_15
REMARK    9  A    between atoms: C14_15  and  C15_17
REMARK   10  A    between atoms: C20_22  and  O3_23
REMARK   11  A    between atoms: C21_25  and  C23_28
REMARK   12  A    between atoms: C23_28  and  C24_29
REMARK   13  A    between atoms: C23_28  and  C25_30
REMARK   14  A    between atoms: C23_28  and  O5_31
REMARK                            x       y       z     vdW  Elec       q    Type
REMARK                         _______ _______ _______ _____ _____    ______ ____
ROOT
ATOM     12  C   UNL     1      49.326  18.741  18.373  0.00  0.00    +0.428 C 
ATOM     29  O   UNL     1      50.329  19.372  18.089  0.00  0.00    -0.447 OA
ENDROOT
BRANCH  12  13
ATOM     13  C   UNL     1      49.243  17.304  18.051  0.00  0.00    -0.220 A 
ATOM     14  C   UNL     1      48.087  16.779  17.461  0.00  0.00    +0.129 A 
ATOM     15  C   UNL     1      48.017  15.441  17.167  0.00  0.00    -0.194 A 
ATOM     16  C   UNL     1      49.080  14.586  17.452  0.00  0.00    +0.162 A 
ATOM     17  O   UNL     1      48.786  13.305  17.100  0.00  0.00    -0.282 OA
ATOM     18  C   UNL     1      47.698  13.308  16.161  0.00  0.00    +0.196 C 
ATOM     24  C   UNL     1      50.234  15.105  18.033  0.00  0.00    -0.044 A 
ATOM     25  C   UNL     1      46.928  14.598  16.531  0.00  0.00    +0.098 C 
ATOM     26  C   UNL     1      50.323  16.452  18.327  0.00  0.00    +0.206 A 
BRANCH  18  19
ATOM     19  C   UNL     1      46.815  12.073  16.349  0.00  0.00    +0.132 C 
ATOM     22  C   UNL     1      47.308  11.274  17.557  0.00  0.00    +0.024 C 
ATOM     23  C   UNL     1      46.887  11.198  15.095  0.00  0.00    +0.031 C 
BRANCH  19  20
ATOM     20  O   UNL     1      45.463  12.482  16.568  0.00  0.00    -0.551 OA
ATOM     21  H   UNL     1      44.885  11.775  16.885  0.00  0.00    +0.381 HD
ENDBRANCH  19  20
ENDBRANCH  18  19
BRANCH  26  27
ATOM     27  O   UNL     1      51.454  16.952  18.887  0.00  0.00    -0.476 OA
ATOM     28  H   UNL     1      52.257  16.769  18.379  0.00  0.00    +0.400 HD
ENDBRANCH  26  27
ENDBRANCH  12  13
BRANCH  12  11
ATOM     10  C   UNL     1      48.375  20.634  19.578  0.00  0.00    +0.124 C 
ATOM     11  C   UNL     1      48.206  19.409  19.032  0.00  0.00    -0.102 C 
BRANCH  10   9
ATOM      7  C   UNL     1      44.925  21.911  20.285  0.00  0.00    -0.108 A 
ATOM      8  C   UNL     1      45.976  21.280  19.660  0.00  0.00    +0.058 A 
ATOM      9  C   UNL     1      47.249  21.306  20.241  0.00  0.00    -0.087 A 
ATOM     30  C   UNL     1      47.446  21.974  21.456  0.00  0.00    +0.045 A 
ATOM     31  C   UNL     1      46.388  22.602  22.072  0.00  0.00    -0.012 A 
ATOM     32  C   UNL     1      45.126  22.578  21.489  0.00  0.00    +0.123 A 
BRANCH  32  33
ATOM     33  O   UNL     1      44.088  23.204  22.099  0.00  0.00    -0.493 OA
ATOM     34  H   UNL     1      43.402  23.510  21.490  0.00  0.00    +0.391 HD
ENDBRANCH  32  33
BRANCH   7   6
ATOM      6  C   UNL     1      43.552  21.884  19.662  0.00  0.00    +0.083 C 
BRANCH   6   5
ATOM      5  C   UNL     1      43.190  20.446  19.287  0.00  0.00    +0.053 C 
BRANCH   5   4
ATOM      1  C   UNL     1      44.483  18.001  19.839  0.00  0.00    +0.072 C 
ATOM      2  C   UNL     1      43.403  18.510  20.759  0.00  0.00    -0.129 C 
ATOM      3  C   UNL     1      42.965  17.679  21.938  0.00  0.00    +0.073 C 
ATOM      4  C   UNL     1      42.845  19.674  20.535  0.00  0.00    -0.061 C 
ENDBRANCH   5   4
ENDBRANCH   6   5
ENDBRANCH   7   6
ENDBRANCH  10   9
ENDBRANCH  12  11
TORSDOF 10
ENDMDL
MODEL 3
REMARK VINA RESULT:      -6.2      3.765      9.314
REMARK  Name = ZINC95486375
REMARK  14 active torsions:
REMARK  status: ('A' for Active; 'I' for Inactive)
REMARK    1  A    between atoms: C1_1  and  C2_2
REMARK    2  A    between atoms: C2_2  and  C26_32
REMARK    3  A    between atoms: C3_3  and  C4_4
REMARK    4  A    between atoms: C4_4  and  C5_5
REMARK    5  A    between atoms: C5_5  and  C6_6
REMARK    6  A    between atoms: C8_8  and  C12_13
REMARK    7  A    between atoms: C11_11  and  O1_12
REMARK    8  A    between atoms: C13_14  and  C14_15
REMARK    9  A    between atoms: C14_15  and  C15_17
REMARK   10  A    between atoms: C20_22  and  O3_23
REMARK   11  A    between atoms: C21_25  and  C23_28
REMARK   12  A    between atoms: C23_28  and  C24_29
REMARK   13  A    between atoms: C23_28  and  C25_30
REMARK   14  A    between atoms: C23_28  and  O5_31
REMARK                            x       y       z     vdW  Elec       q    Type
REMARK                         _______ _______ _______ _____ _____    ______ ____
ROOT
ATOM     12  C   UNL     1      45.600  15.003  19.465  0.00  0.00    +0.428 C 
ATOM     29  O   UNL     1      45.117  14.529  20.478  0.00  0.00    -0.447 OA
ENDROOT
BRANCH  12  13
ATOM     13  C   UNL     1      46.173  14.115  18.437  0.00  0.00    -0.220 A 
ATOM     14  C   UNL     1      47.453  14.361  17.927  0.00  0.00    +0.129 A 
ATOM     15  C   UNL     1      47.979  13.531  16.970  0.00  0.00    -0.194 A 
ATOM     16  C   UNL     1      47.256  12.443  16.485  0.00  0.00    +0.162 A 
ATOM     17  O   UNL     1      47.956  11.776  15.529  0.00  0.00    -0.282 OA
ATOM     18  C   UNL     1      49.350  12.110  15.640  0.00  0.00    +0.196 C 
ATOM     24  C   UNL     1      45.983  12.191  16.993  0.00  0.00    -0.044 A 
ATOM     25  C   UNL     1      49.314  13.532  16.248  0.00  0.00    +0.098 C 
ATOM     26  C   UNL     1      45.444  13.013  17.965  0.00  0.00    +0.206 A 
BRANCH  18  19
ATOM     19  C   UNL     1      50.016  12.122  14.263  0.00  0.00    +0.132 C 
ATOM     22  C   UNL     1      50.533  10.719  13.935  0.00  0.00    +0.024 C 
ATOM     23  C   UNL     1      51.187  13.107  14.272  0.00  0.00    +0.031 C 
BRANCH  19  20
ATOM     20  O   UNL     1      49.064  12.522  13.276  0.00  0.00    -0.551 OA
ATOM     21  H   UNL     1      48.887  13.473  13.264  0.00  0.00    +0.381 HD
ENDBRANCH  19  20
ENDBRANCH  18  19
BRANCH  26  27
ATOM     27  O   UNL     1      44.207  12.757  18.460  0.00  0.00    -0.476 OA
ATOM     28  H   UNL     1      43.871  13.444  19.052  0.00  0.00    +0.400 HD
ENDBRANCH  26  27
ENDBRANCH  12  13
BRANCH  12  11
ATOM     10  C   UNL     1      44.762  17.235  19.973  0.00  0.00    +0.124 C 
ATOM     11  C   UNL     1      45.609  16.451  19.268  0.00  0.00    -0.102 C 
BRANCH  10   9
ATOM      7  C   UNL     1      45.917  20.798  19.910  0.00  0.00    -0.108 A 
ATOM      8  C   UNL     1      45.913  19.434  20.096  0.00  0.00    +0.058 A 
ATOM      9  C   UNL     1      44.772  18.691  19.776  0.00  0.00    -0.087 A 
ATOM     30  C   UNL     1      43.639  19.338  19.268  0.00  0.00    +0.045 A 
ATOM     31  C   UNL     1      43.653  20.702  19.086  0.00  0.00    -0.012 A 
ATOM     32  C   UNL     1      44.788  21.438  19.410  0.00  0.00    +0.123 A 
BRANCH  32  33
ATOM     33  O   UNL     1      44.794  22.784  19.234  0.00  0.00    -0.493 OA
ATOM     34  H   UNL     1      45.101  23.279  20.005  0.00  0.00    +0.391 HD
ENDBRANCH  32  33
BRANCH   7   6
ATOM      6  C   UNL     1      47.145  21.602  20.253  0.00  0.00    +0.083 C 
BRANCH   6   5
ATOM      5  C   UNL     1      48.368  20.683  20.271  0.00  0.00    +0.053 C 
BRANCH   5   4
ATOM      1  C   UNL     1      51.182  20.841  20.175  0.00  0.00    +0.072 C 
ATOM      2  C   UNL     1      50.377  20.896  18.902  0.00  0.00    -0.129 C 
ATOM      3  C   UNL     1      51.072  21.104  17.580  0.00  0.00    +0.073 C 
ATOM      4  C   UNL     1      49.075  20.763  18.943  0.00  0.00    -0.061 C 
ENDBRANCH   5   4
ENDBRANCH   6   5
ENDBRANCH   7   6
ENDBRANCH  10   9
ENDBRANCH  12  11
TORSDOF 10
ENDMDL
MODEL 4
REMARK VINA RESULT:      -6.1      2.782      4.978
REMARK  Name = ZINC95486375
REMARK  14 active torsions:
REMARK  status: ('A' for Active; 'I' for Inactive)
REMARK    1  A    between atoms: C1_1  and  C2_2
REMARK    2  A    between atoms: C2_2  and  C26_32
REMARK    3  A    between atoms: C3_3  and  C4_4
REMARK    4  A    between atoms: C4_4  and  C5_5
REMARK    5  A    between atoms: C5_5  and  C6_6
REMARK    6  A    between atoms: C8_8  and  C12_13
REMARK    7  A    between atoms: C11_11  and  O1_12
REMARK    8  A    between atoms: C13_14  and  C14_15
REMARK    9  A    between atoms: C14_15  and  C15_17
REMARK   10  A    between atoms: C20_22  and  O3_23
REMARK   11  A    between atoms: C21_25  and  C23_28
REMARK   12  A    between atoms: C23_28  and  C24_29
REMARK   13  A    between atoms: C23_28  and  C25_30
REMARK   14  A    between atoms: C23_28  and  O5_31
REMARK                            x       y       z     vdW  Elec       q    Type
REMARK                         _______ _______ _______ _____ _____    ______ ____
ROOT
ATOM     12  C   UNL     1      46.087  15.609  19.324  0.00  0.00    +0.428 C 
ATOM     29  O   UNL     1      45.453  14.577  19.193  0.00  0.00    -0.447 OA
ENDROOT
BRANCH  12  13
ATOM     13  C   UNL     1      45.409  16.839  19.773  0.00  0.00    -0.220 A 
ATOM     14  C   UNL     1      45.562  18.030  19.055  0.00  0.00    +0.129 A 
ATOM     15  C   UNL     1      44.930  19.171  19.480  0.00  0.00    -0.194 A 
ATOM     16  C   UNL     1      44.136  19.169  20.626  0.00  0.00    +0.162 A 
ATOM     17  O   UNL     1      43.629  20.406  20.873  0.00  0.00    -0.282 OA
ATOM     18  C   UNL     1      43.689  21.193  19.672  0.00  0.00    +0.196 C 
ATOM     24  C   UNL     1      43.976  17.984  21.341  0.00  0.00    -0.044 A 
ATOM     25  C   UNL     1      44.894  20.580  18.920  0.00  0.00    +0.098 C 
ATOM     26  C   UNL     1      44.600  16.825  20.919  0.00  0.00    +0.206 A 
BRANCH  18  19
ATOM     19  C   UNL     1      43.942  22.666  20.000  0.00  0.00    +0.132 C 
ATOM     22  C   UNL     1      44.990  23.229  19.037  0.00  0.00    +0.024 C 
ATOM     23  C   UNL     1      44.453  22.788  21.437  0.00  0.00    +0.031 C 
BRANCH  19  20
ATOM     20  O   UNL     1      42.725  23.401  19.862  0.00  0.00    -0.551 OA
ATOM     21  H   UNL     1      42.775  24.130  19.228  0.00  0.00    +0.381 HD
ENDBRANCH  19  20
ENDBRANCH  18  19
BRANCH  26  27
ATOM     27  O   UNL     1      44.434  15.673  21.617  0.00  0.00    -0.476 OA
ATOM     28  H   UNL     1      44.474  14.874  21.071  0.00  0.00    +0.400 HD
ENDBRANCH  26  27
ENDBRANCH  12  13
BRANCH  12  11
ATOM     10  C   UNL     1      48.322  16.526  19.650  0.00  0.00    +0.124 C 
ATOM     11  C   UNL     1      47.520  15.626  19.037  0.00  0.00    -0.102 C 
BRANCH  10   9
ATOM      7  C   UNL     1      51.597  17.244  17.979  0.00  0.00    -0.108 A 
ATOM      8  C   UNL     1      50.246  17.232  18.244  0.00  0.00    +0.058 A 
ATOM      9  C   UNL     1      49.762  16.543  19.362  0.00  0.00    -0.087 A 
ATOM     30  C   UNL     1      50.655  15.870  20.205  0.00  0.00    +0.045 A 
ATOM     31  C   UNL     1      52.004  15.889  19.930  0.00  0.00    -0.012 A 
ATOM     32  C   UNL     1      52.479  16.570  18.815  0.00  0.00    +0.123 A 
BRANCH  32  33
ATOM     33  O   UNL     1      53.810  16.581  18.546  0.00  0.00    -0.493 OA
ATOM     34  H   UNL     1      54.173  17.464  18.399  0.00  0.00    +0.391 HD
ENDBRANCH  32  33
BRANCH   7   6
ATOM      6  C   UNL     1      52.121  17.985  16.775  0.00  0.00    +0.083 C 
BRANCH   6   5
ATOM      5  C   UNL     1      51.676  19.447  16.842  0.00  0.00    +0.053 C 
BRANCH   5   4
ATOM      1  C   UNL     1      50.217  20.951  18.730  0.00  0.00    +0.072 C 
ATOM      2  C   UNL     1      51.720  20.885  18.814  0.00  0.00    -0.129 C 
ATOM      3  C   UNL     1      52.451  21.679  19.868  0.00  0.00    +0.073 C 
ATOM      4  C   UNL     1      52.392  20.139  17.973  0.00  0.00    -0.061 C 
ENDBRANCH   5   4
ENDBRANCH   6   5
ENDBRANCH   7   6
ENDBRANCH  10   9
ENDBRANCH  12  11
TORSDOF 10
ENDMDL
MODEL 5
REMARK VINA RESULT:      -5.8      3.709      9.403
REMARK  Name = ZINC95486375
REMARK  14 active torsions:
REMARK  status: ('A' for Active; 'I' for Inactive)
REMARK    1  A    between atoms: C1_1  and  C2_2
REMARK    2  A    between atoms: C2_2  and  C26_32
REMARK    3  A    between atoms: C3_3  and  C4_4
REMARK    4  A    between atoms: C4_4  and  C5_5
REMARK    5  A    between atoms: C5_5  and  C6_6
REMARK    6  A    between atoms: C8_8  and  C12_13
REMARK    7  A    between atoms: C11_11  and  O1_12
REMARK    8  A    between atoms: C13_14  and  C14_15
REMARK    9  A    between atoms: C14_15  and  C15_17
REMARK   10  A    between atoms: C20_22  and  O3_23
REMARK   11  A    between atoms: C21_25  and  C23_28
REMARK   12  A    between atoms: C23_28  and  C24_29
REMARK   13  A    between atoms: C23_28  and  C25_30
REMARK   14  A    between atoms: C23_28  and  O5_31
REMARK                            x       y       z     vdW  Elec       q    Type
REMARK                         _______ _______ _______ _____ _____    ______ ____
ROOT
ATOM     12  C   UNL     1      45.404  14.912  20.060  0.00  0.00    +0.428 C 
ATOM     29  O   UNL     1      45.114  14.373  21.113  0.00  0.00    -0.447 OA
ENDROOT
BRANCH  12  13
ATOM     13  C   UNL     1      45.987  14.120  18.962  0.00  0.00    -0.220 A 
ATOM     14  C   UNL     1      47.273  14.407  18.490  0.00  0.00    +0.129 A 
ATOM     15  C   UNL     1      47.807  13.667  17.466  0.00  0.00    -0.194 A 
ATOM     16  C   UNL     1      47.087  12.628  16.878  0.00  0.00    +0.162 A 
ATOM     17  O   UNL     1      47.796  12.048  15.872  0.00  0.00    -0.282 OA
ATOM     18  C   UNL     1      49.189  12.367  16.027  0.00  0.00    +0.196 C 
ATOM     24  C   UNL     1      45.809  12.335  17.348  0.00  0.00    -0.044 A 
ATOM     25  C   UNL     1      49.149  13.729  16.761  0.00  0.00    +0.098 C 
ATOM     26  C   UNL     1      45.261  13.067  18.384  0.00  0.00    +0.206 A 
BRANCH  18  19
ATOM     19  C   UNL     1      49.869  12.502  14.664  0.00  0.00    +0.132 C 
ATOM     22  C   UNL     1      50.208  11.111  14.124  0.00  0.00    +0.024 C 
ATOM     23  C   UNL     1      51.156  13.318  14.815  0.00  0.00    +0.031 C 
BRANCH  19  20
ATOM     20  O   UNL     1      48.988  13.165  13.755  0.00  0.00    -0.551 OA
ATOM     21  H   UNL     1      48.537  12.569  13.141  0.00  0.00    +0.381 HD
ENDBRANCH  19  20
ENDBRANCH  18  19
BRANCH  26  27
ATOM     27  O   UNL     1      44.018  12.770  18.842  0.00  0.00    -0.476 OA
ATOM     28  H   UNL     1      43.628  11.983  18.436  0.00  0.00    +0.400 HD
ENDBRANCH  26  27
ENDBRANCH  12  13
BRANCH  12  11
ATOM     10  C   UNL     1      44.574  17.058  20.865  0.00  0.00    +0.124 C 
ATOM     11  C   UNL     1      45.174  16.345  19.886  0.00  0.00    -0.102 C 
BRANCH  10   9
ATOM      7  C   UNL     1      44.778  20.767  21.348  0.00  0.00    -0.108 A 
ATOM      8  C   UNL     1      44.998  19.419  21.516  0.00  0.00    +0.058 A 
ATOM      9  C   UNL     1      44.343  18.498  20.690  0.00  0.00    -0.087 A 
ATOM     30  C   UNL     1      43.467  18.954  19.697  0.00  0.00    +0.045 A 
ATOM     31  C   UNL     1      43.255  20.304  19.538  0.00  0.00    -0.012 A 
ATOM     32  C   UNL     1      43.903  21.215  20.364  0.00  0.00    +0.123 A 
BRANCH  32  33
ATOM     33  O   UNL     1      43.685  22.546  20.207  0.00  0.00    -0.493 OA
ATOM     34  H   UNL     1      44.413  23.102  20.515  0.00  0.00    +0.391 HD
ENDBRANCH  32  33
BRANCH   7   6
ATOM      6  C   UNL     1      45.482  21.761  22.236  0.00  0.00    +0.083 C 
BRANCH   6   5
ATOM      5  C   UNL     1      46.980  21.453  22.259  0.00  0.00    +0.053 C 
BRANCH   5   4
ATOM      1  C   UNL     1      48.605  19.399  21.213  0.00  0.00    +0.072 C 
ATOM      2  C   UNL     1      48.340  20.641  20.401  0.00  0.00    -0.129 C 
ATOM      3  C   UNL     1      48.999  20.816  19.057  0.00  0.00    +0.073 C 
ATOM      4  C   UNL     1      47.537  21.567  20.863  0.00  0.00    -0.061 C 
ENDBRANCH   5   4
ENDBRANCH   6   5
ENDBRANCH   7   6
ENDBRANCH  10   9
ENDBRANCH  12  11
TORSDOF 10
ENDMDL
MODEL 6
REMARK VINA RESULT:      -5.7      3.236      9.738
REMARK  Name = ZINC95486375
REMARK  14 active torsions:
REMARK  status: ('A' for Active; 'I' for Inactive)
REMARK    1  A    between atoms: C1_1  and  C2_2
REMARK    2  A    between atoms: C2_2  and  C26_32
REMARK    3  A    between atoms: C3_3  and  C4_4
REMARK    4  A    between atoms: C4_4  and  C5_5
REMARK    5  A    between atoms: C5_5  and  C6_6
REMARK    6  A    between atoms: C8_8  and  C12_13
REMARK    7  A    between atoms: C11_11  and  O1_12
REMARK    8  A    between atoms: C13_14  and  C14_15
REMARK    9  A    between atoms: C14_15  and  C15_17
REMARK   10  A    between atoms: C20_22  and  O3_23
REMARK   11  A    between atoms: C21_25  and  C23_28
REMARK   12  A    between atoms: C23_28  and  C24_29
REMARK   13  A    between atoms: C23_28  and  C25_30
REMARK   14  A    between atoms: C23_28  and  O5_31
REMARK                            x       y       z     vdW  Elec       q    Type
REMARK                         _______ _______ _______ _____ _____    ______ ____
ROOT
ATOM     12  C   UNL     1      51.071  19.662  17.963  0.00  0.00    +0.428 C 
ATOM     29  O   UNL     1      51.435  20.253  16.961  0.00  0.00    -0.447 OA
ENDROOT
BRANCH  12  13
ATOM     13  C   UNL     1      51.536  18.286  18.217  0.00  0.00    -0.220 A 
ATOM     14  C   UNL     1      52.641  18.057  19.045  0.00  0.00    +0.129 A 
ATOM     15  C   UNL     1      53.069  16.774  19.274  0.00  0.00    -0.194 A 
ATOM     16  C   UNL     1      52.423  15.685  18.691  0.00  0.00    +0.162 A 
ATOM     17  O   UNL     1      53.026  14.515  19.034  0.00  0.00    -0.282 OA
ATOM     18  C   UNL     1      53.824  14.720  20.212  0.00  0.00    +0.196 C 
ATOM     24  C   UNL     1      51.319  15.908  17.871  0.00  0.00    -0.044 A 
ATOM     25  C   UNL     1      54.203  16.217  20.114  0.00  0.00    +0.098 C 
ATOM     26  C   UNL     1      50.871  17.195  17.637  0.00  0.00    +0.206 A 
BRANCH  18  19
ATOM     19  C   UNL     1      55.073  13.838  20.182  0.00  0.00    +0.132 C 
ATOM     22  C   UNL     1      56.202  14.578  19.459  0.00  0.00    +0.024 C 
ATOM     23  C   UNL     1      54.761  12.536  19.440  0.00  0.00    +0.031 C 
BRANCH  19  20
ATOM     20  O   UNL     1      55.479  13.539  21.519  0.00  0.00    -0.551 OA
ATOM     21  H   UNL     1      54.887  13.893  22.197  0.00  0.00    +0.381 HD
ENDBRANCH  19  20
ENDBRANCH  18  19
BRANCH  26  27
ATOM     27  O   UNL     1      49.791  17.403  16.843  0.00  0.00    -0.476 OA
ATOM     28  H   UNL     1      49.064  17.865  17.284  0.00  0.00    +0.400 HD
ENDBRANCH  26  27
ENDBRANCH  12  13
BRANCH  12  11
ATOM     10  C   UNL     1      48.836  20.155  18.802  0.00  0.00    +0.124 C 
ATOM     11  C   UNL     1      50.174  20.318  18.912  0.00  0.00    -0.102 C 
BRANCH  10   9
ATOM      7  C   UNL     1      45.763  21.685  20.302  0.00  0.00    -0.108 A 
ATOM      8  C   UNL     1      46.604  21.068  19.404  0.00  0.00    +0.058 A 
ATOM      9  C   UNL     1      47.934  20.814  19.756  0.00  0.00    -0.087 A 
ATOM     30  C   UNL     1      48.404  21.191  21.020  0.00  0.00    +0.045 A 
ATOM     31  C   UNL     1      47.554  21.808  21.911  0.00  0.00    -0.012 A 
ATOM     32  C   UNL     1      46.235  22.063  21.555  0.00  0.00    +0.123 A 
BRANCH  32  33
ATOM     33  O   UNL     1      45.404  22.677  22.435  0.00  0.00    -0.493 OA
ATOM     34  H   UNL     1      45.343  22.234  23.292  0.00  0.00    +0.391 HD
ENDBRANCH  32  33
BRANCH   7   6
ATOM      6  C   UNL     1      44.329  21.960  19.926  0.00  0.00    +0.083 C 
BRANCH   6   5
ATOM      5  C   UNL     1      43.754  20.747  19.191  0.00  0.00    +0.053 C 
BRANCH   5   4
ATOM      1  C   UNL     1      41.017  20.142  18.876  0.00  0.00    +0.072 C 
ATOM      2  C   UNL     1      41.777  19.612  20.065  0.00  0.00    -0.129 C 
ATOM      3  C   UNL     1      41.059  18.814  21.123  0.00  0.00    +0.073 C 
ATOM      4  C   UNL     1      43.061  19.844  20.179  0.00  0.00    -0.061 C 
ENDBRANCH   5   4
ENDBRANCH   6   5
ENDBRANCH   7   6
ENDBRANCH  10   9
ENDBRANCH  12  11
TORSDOF 10
ENDMDL
MODEL 7
REMARK VINA RESULT:      -5.5      2.121      3.217
REMARK  Name = ZINC95486375
REMARK  14 active torsions:
REMARK  status: ('A' for Active; 'I' for Inactive)
REMARK    1  A    between atoms: C1_1  and  C2_2
REMARK    2  A    between atoms: C2_2  and  C26_32
REMARK    3  A    between atoms: C3_3  and  C4_4
REMARK    4  A    between atoms: C4_4  and  C5_5
REMARK    5  A    between atoms: C5_5  and  C6_6
REMARK    6  A    between atoms: C8_8  and  C12_13
REMARK    7  A    between atoms: C11_11  and  O1_12
REMARK    8  A    between atoms: C13_14  and  C14_15
REMARK    9  A    between atoms: C14_15  and  C15_17
REMARK   10  A    between atoms: C20_22  and  O3_23
REMARK   11  A    between atoms: C21_25  and  C23_28
REMARK   12  A    between atoms: C23_28  and  C24_29
REMARK   13  A    between atoms: C23_28  and  C25_30
REMARK   14  A    between atoms: C23_28  and  O5_31
REMARK                            x       y       z     vdW  Elec       q    Type
REMARK                         _______ _______ _______ _____ _____    ______ ____
ROOT
ATOM     12  C   UNL     1      48.825  20.153  19.116  0.00  0.00    +0.428 C 
ATOM     29  O   UNL     1      49.528  21.130  18.927  0.00  0.00    -0.447 OA
ENDROOT
BRANCH  12  13
ATOM     13  C   UNL     1      47.429  20.324  19.558  0.00  0.00    -0.220 A 
ATOM     14  C   UNL     1      46.373  19.982  18.706  0.00  0.00    +0.129 A 
ATOM     15  C   UNL     1      45.077  20.146  19.124  0.00  0.00    -0.194 A 
ATOM     16  C   UNL     1      44.788  20.656  20.389  0.00  0.00    +0.162 A 
ATOM     17  O   UNL     1      43.445  20.755  20.583  0.00  0.00    -0.282 OA
ATOM     18  C   UNL     1      42.765  19.907  19.642  0.00  0.00    +0.196 C 
ATOM     24  C   UNL     1      45.836  20.992  21.243  0.00  0.00    -0.044 A 
ATOM     25  C   UNL     1      43.749  19.862  18.448  0.00  0.00    +0.098 C 
ATOM     26  C   UNL     1      47.147  20.824  20.839  0.00  0.00    +0.206 A 
BRANCH  18  19
ATOM     19  C   UNL     1      41.428  20.522  19.224  0.00  0.00    +0.132 C 
ATOM     22  C   UNL     1      40.884  19.777  18.003  0.00  0.00    +0.024 C 
ATOM     23  C   UNL     1      41.634  21.997  18.871  0.00  0.00    +0.031 C 
BRANCH  19  20
ATOM     20  O   UNL     1      40.497  20.415  20.302  0.00  0.00    -0.551 OA
ATOM     21  H   UNL     1      39.759  19.815  20.126  0.00  0.00    +0.381 HD
ENDBRANCH  19  20
ENDBRANCH  18  19
BRANCH  26  27
ATOM     27  O   UNL     1      48.162  21.146  21.679  0.00  0.00    -0.476 OA
ATOM     28  H   UNL     1      47.913  21.147  22.614  0.00  0.00    +0.400 HD
ENDBRANCH  26  27
ENDBRANCH  12  13
BRANCH  12  11
ATOM     10  C   UNL     1      49.335  18.257  17.672  0.00  0.00    +0.124 C 
ATOM     11  C   UNL     1      49.367  18.813  18.904  0.00  0.00    -0.102 C 
BRANCH  10   9
ATOM      7  C   UNL     1      49.539  14.585  16.956  0.00  0.00    -0.108 A 
ATOM      8  C   UNL     1      49.023  15.846  17.155  0.00  0.00    +0.058 A 
ATOM      9  C   UNL     1      49.880  16.909  17.459  0.00  0.00    -0.087 A 
ATOM     30  C   UNL     1      51.259  16.685  17.561  0.00  0.00    +0.045 A 
ATOM     31  C   UNL     1      51.764  15.421  17.360  0.00  0.00    -0.012 A 
ATOM     32  C   UNL     1      50.909  14.366  17.063  0.00  0.00    +0.123 A 
BRANCH  32  33
ATOM     33  O   UNL     1      51.412  13.120  16.872  0.00  0.00    -0.493 OA
ATOM     34  H   UNL     1      51.697  12.683  17.686  0.00  0.00    +0.391 HD
ENDBRANCH  32  33
BRANCH   7   6
ATOM      6  C   UNL     1      48.619  13.437  16.628  0.00  0.00    +0.083 C 
BRANCH   6   5
ATOM      5  C   UNL     1      48.312  12.649  17.902  0.00  0.00    +0.053 C 
BRANCH   5   4
ATOM      1  C   UNL     1      47.648  14.156  20.192  0.00  0.00    +0.072 C 
ATOM      2  C   UNL     1      46.563  13.500  19.378  0.00  0.00    -0.129 C 
ATOM      3  C   UNL     1      45.126  13.592  19.825  0.00  0.00    +0.073 C 
ATOM      4  C   UNL     1      46.868  12.851  18.281  0.00  0.00    -0.061 C 
ENDBRANCH   5   4
ENDBRANCH   6   5
ENDBRANCH   7   6
ENDBRANCH  10   9
ENDBRANCH  12  11
TORSDOF 10
ENDMDL
MODEL 8
REMARK VINA RESULT:      -5.4      2.483      8.710
REMARK  Name = ZINC95486375
REMARK  14 active torsions:
REMARK  status: ('A' for Active; 'I' for Inactive)
REMARK    1  A    between atoms: C1_1  and  C2_2
REMARK    2  A    between atoms: C2_2  and  C26_32
REMARK    3  A    between atoms: C3_3  and  C4_4
REMARK    4  A    between atoms: C4_4  and  C5_5
REMARK    5  A    between atoms: C5_5  and  C6_6
REMARK    6  A    between atoms: C8_8  and  C12_13
REMARK    7  A    between atoms: C11_11  and  O1_12
REMARK    8  A    between atoms: C13_14  and  C14_15
REMARK    9  A    between atoms: C14_15  and  C15_17
REMARK   10  A    between atoms: C20_22  and  O3_23
REMARK   11  A    between atoms: C21_25  and  C23_28
REMARK   12  A    between atoms: C23_28  and  C24_29
REMARK   13  A    between atoms: C23_28  and  C25_30
REMARK   14  A    between atoms: C23_28  and  O5_31
REMARK                            x       y       z     vdW  Elec       q    Type
REMARK                         _______ _______ _______ _____ _____    ______ ____
ROOT
ATOM     12  C   UNL     1      45.493  17.343  21.381  0.00  0.00    +0.428 C 
ATOM     29  O   UNL     1      45.233  16.459  22.178  0.00  0.00    -0.447 OA
ENDROOT
BRANCH  12  13
ATOM     13  C   UNL     1      46.823  17.394  20.745  0.00  0.00    -0.220 A 
ATOM     14  C   UNL     1      47.572  18.576  20.773  0.00  0.00    +0.129 A 
ATOM     15  C   UNL     1      48.808  18.616  20.178  0.00  0.00    -0.194 A 
ATOM     16  C   UNL     1      49.334  17.496  19.536  0.00  0.00    +0.162 A 
ATOM     17  O   UNL     1      50.554  17.767  18.999  0.00  0.00    -0.282 OA
ATOM     18  C   UNL     1      51.102  18.936  19.631  0.00  0.00    +0.196 C 
ATOM     24  C   UNL     1      48.594  16.316  19.511  0.00  0.00    -0.044 A 
ATOM     25  C   UNL     1      49.839  19.722  20.054  0.00  0.00    +0.098 C 
ATOM     26  C   UNL     1      47.352  16.258  20.114  0.00  0.00    +0.206 A 
BRANCH  18  19
ATOM     19  C   UNL     1      51.942  19.745  18.641  0.00  0.00    +0.132 C 
ATOM     22  C   UNL     1      52.647  20.883  19.381  0.00  0.00    +0.024 C 
ATOM     23  C   UNL     1      51.031  20.329  17.558  0.00  0.00    +0.031 C 
BRANCH  19  20
ATOM     20  O   UNL     1      52.917  18.894  18.036  0.00  0.00    -0.551 OA
ATOM     21  H   UNL     1      53.434  18.377  18.669  0.00  0.00    +0.381 HD
ENDBRANCH  19  20
ENDBRANCH  18  19
BRANCH  26  27
ATOM     27  O   UNL     1      46.640  15.103  20.091  0.00  0.00    -0.476 OA
ATOM     28  H   UNL     1      46.531  14.726  19.207  0.00  0.00    +0.400 HD
ENDBRANCH  26  27
ENDBRANCH  12  13
BRANCH  12  11
ATOM     10  C   UNL     1      44.092  18.522  19.772  0.00  0.00    +0.124 C 
ATOM     11  C   UNL     1      44.487  18.350  21.054  0.00  0.00    -0.102 C 
BRANCH  10   9
ATOM      7  C   UNL     1      42.446  21.840  19.210  0.00  0.00    -0.108 A 
ATOM      8  C   UNL     1      43.398  20.895  19.519  0.00  0.00    +0.058 A 
ATOM      9  C   UNL     1      43.080  19.534  19.443  0.00  0.00    -0.087 A 
ATOM     30  C   UNL     1      41.794  19.141  19.053  0.00  0.00    +0.045 A 
ATOM     31  C   UNL     1      40.849  20.094  18.746  0.00  0.00    -0.012 A 
ATOM     32  C   UNL     1      41.168  21.445  18.828  0.00  0.00    +0.123 A 
BRANCH  32  33
ATOM     33  O   UNL     1      40.231  22.380  18.531  0.00  0.00    -0.493 OA
ATOM     34  H   UNL     1      39.595  22.539  19.242  0.00  0.00    +0.391 HD
ENDBRANCH  32  33
BRANCH   7   6
ATOM      6  C   UNL     1      42.785  23.306  19.291  0.00  0.00    +0.083 C 
BRANCH   6   5
ATOM      5  C   UNL     1      44.304  23.474  19.368  0.00  0.00    +0.053 C 
BRANCH   5   4
ATOM      1  C   UNL     1      46.566  21.895  19.953  0.00  0.00    +0.072 C 
ATOM      2  C   UNL     1      45.771  22.521  21.070  0.00  0.00    -0.129 C 
ATOM      3  C   UNL     1      46.145  22.248  22.505  0.00  0.00    +0.073 C 
ATOM      4  C   UNL     1      44.757  23.303  20.794  0.00  0.00    -0.061 C 
ENDBRANCH   5   4
ENDBRANCH   6   5
ENDBRANCH   7   6
ENDBRANCH  10   9
ENDBRANCH  12  11
TORSDOF 10
ENDMDL
MODEL 9
REMARK VINA RESULT:      -5.3      3.077      7.054
REMARK  Name = ZINC95486375
REMARK  14 active torsions:
REMARK  status: ('A' for Active; 'I' for Inactive)
REMARK    1  A    between atoms: C1_1  and  C2_2
REMARK    2  A    between atoms: C2_2  and  C26_32
REMARK    3  A    between atoms: C3_3  and  C4_4
REMARK    4  A    between atoms: C4_4  and  C5_5
REMARK    5  A    between atoms: C5_5  and  C6_6
REMARK    6  A    between atoms: C8_8  and  C12_13
REMARK    7  A    between atoms: C11_11  and  O1_12
REMARK    8  A    between atoms: C13_14  and  C14_15
REMARK    9  A    between atoms: C14_15  and  C15_17
REMARK   10  A    between atoms: C20_22  and  O3_23
REMARK   11  A    between atoms: C21_25  and  C23_28
REMARK   12  A    between atoms: C23_28  and  C24_29
REMARK   13  A    between atoms: C23_28  and  C25_30
REMARK   14  A    between atoms: C23_28  and  O5_31
REMARK                            x       y       z     vdW  Elec       q    Type
REMARK                         _______ _______ _______ _____ _____    ______ ____
ROOT
ATOM     12  C   UNL     1      45.403  19.016  18.880  0.00  0.00    +0.428 C 
ATOM     29  O   UNL     1      44.399  19.698  18.771  0.00  0.00    -0.447 OA
ENDROOT
BRANCH  12  13
ATOM     13  C   UNL     1      46.612  19.580  19.508  0.00  0.00    -0.220 A 
ATOM     14  C   UNL     1      47.759  19.816  18.742  0.00  0.00    +0.129 A 
ATOM     15  C   UNL     1      48.881  20.339  19.333  0.00  0.00    -0.194 A 
ATOM     16  C   UNL     1      48.903  20.637  20.695  0.00  0.00    +0.162 A 
ATOM     17  O   UNL     1      50.118  21.121  21.071  0.00  0.00    -0.282 OA
ATOM     18  C   UNL     1      50.823  21.589  19.909  0.00  0.00    +0.196 C 
ATOM     24  C   UNL     1      47.762  20.409  21.460  0.00  0.00    -0.044 A 
ATOM     25  C   UNL     1      50.243  20.709  18.777  0.00  0.00    +0.098 C 
ATOM     26  C   UNL     1      46.622  19.891  20.876  0.00  0.00    +0.206 A 
BRANCH  18  19
ATOM     19  C   UNL     1      52.328  21.362  20.060  0.00  0.00    +0.132 C 
ATOM     22  C   UNL     1      52.848  20.576  18.854  0.00  0.00    +0.024 C 
ATOM     23  C   UNL     1      52.599  20.569  21.341  0.00  0.00    +0.031 C 
BRANCH  19  20
ATOM     20  O   UNL     1      52.996  22.624  20.131  0.00  0.00    -0.551 OA
ATOM     21  H   UNL     1      53.949  22.573  19.974  0.00  0.00    +0.381 HD
ENDBRANCH  19  20
ENDBRANCH  18  19
BRANCH  26  27
ATOM     27  O   UNL     1      45.511  19.678  21.627  0.00  0.00    -0.476 OA
ATOM     28  H   UNL     1      45.697  19.359  22.521  0.00  0.00    +0.400 HD
ENDBRANCH  26  27
ENDBRANCH  12  13
BRANCH  12  11
ATOM     10  C   UNL     1      46.068  16.679  19.076  0.00  0.00    +0.124 C 
ATOM     11  C   UNL     1      45.408  17.639  18.391  0.00  0.00    -0.102 C 
BRANCH  10   9
ATOM      7  C   UNL     1      46.827  13.655  16.999  0.00  0.00    -0.108 A 
ATOM      8  C   UNL     1      46.827  14.953  17.456  0.00  0.00    +0.058 A 
ATOM      9  C   UNL     1      46.072  15.295  18.584  0.00  0.00    -0.087 A 
ATOM     30  C   UNL     1      45.321  14.313  19.242  0.00  0.00    +0.045 A 
ATOM     31  C   UNL     1      45.328  13.018  18.777  0.00  0.00    -0.012 A 
ATOM     32  C   UNL     1      46.074  12.684  17.653  0.00  0.00    +0.123 A 
BRANCH  32  33
ATOM     33  O   UNL     1      46.073  11.406  17.195  0.00  0.00    -0.493 OA
ATOM     34  H   UNL     1      46.727  11.236  16.504  0.00  0.00    +0.391 HD
ENDBRANCH  32  33
BRANCH   7   6
ATOM      6  C   UNL     1      47.638  13.283  15.784  0.00  0.00    +0.083 C 
BRANCH   6   5
ATOM      5  C   UNL     1      49.016  12.785  16.225  0.00  0.00    +0.053 C 
BRANCH   5   4
ATOM      1  C   UNL     1      50.243  13.894  18.510  0.00  0.00    +0.072 C 
ATOM      2  C   UNL     1      50.547  14.451  17.143  0.00  0.00    -0.129 C 
ATOM      3  C   UNL     1      51.455  15.646  17.001  0.00  0.00    +0.073 C 
ATOM      4  C   UNL     1      50.023  13.897  16.077  0.00  0.00    -0.061 C 
ENDBRANCH   5   4
ENDBRANCH   6   5
ENDBRANCH   7   6
ENDBRANCH  10   9
ENDBRANCH  12  11
TORSDOF 10
ENDMDL
