MODEL 1
REMARK VINA RESULT:      -7.5      0.000      0.000
REMARK  Name = ZINC05849017
REMARK  10 active torsions:
REMARK  status: ('A' for Active; 'I' for Inactive)
REMARK    1  A    between atoms: C1_1  and  C2_2
REMARK    2  A    between atoms: C5_5  and  C13_15
REMARK    3  A    between atoms: C8_8  and  O2_14
REMARK    4  A    between atoms: C10_10  and  O1_12
REMARK    5  A    between atoms: O1_12  and  C12_13
REMARK    6  A    between atoms: C14_16  and  O4_30
REMARK    7  A    between atoms: C18_20  and  O3_21
REMARK    8  A    between atoms: O3_21  and  C19_22
REMARK    9  A    between atoms: C20_23  and  C24_29
REMARK   10  A    between atoms: C21_25  and  C23_28
REMARK                            x       y       z     vdW  Elec       q    Type
REMARK                         _______ _______ _______ _____ _____    ______ ____
ROOT
ATOM      6  C   UNL     1      43.590  18.167  20.598  0.00  0.00    -0.099 A 
ATOM      7  C   UNL     1      43.124  17.763  21.855  0.00  0.00    +0.156 A 
ATOM     10  C   UNL     1      43.603  16.597  22.437  0.00  0.00    -0.010 A 
ATOM     11  C   UNL     1      44.541  15.832  21.783  0.00  0.00    -0.032 A 
ATOM     12  C   UNL     1      45.018  16.222  20.524  0.00  0.00    -0.143 A 
ATOM     13  C   UNL     1      46.018  15.376  19.856  0.00  0.00    +0.220 C 
ATOM     14  C   UNL     1      46.243  15.499  18.371  0.00  0.00    +0.139 C 
ATOM     15  N   UNL     1      46.706  14.526  20.547  0.00  0.00    -0.513 NA
ATOM     16  C   UNL     1      46.537  14.380  21.989  0.00  0.00    +0.149 C 
ATOM     17  C   UNL     1      47.001  12.984  22.409  0.00  0.00    +0.055 C 
ATOM     18  C   UNL     1      45.076  14.563  22.396  0.00  0.00    +0.074 C 
ATOM     19  C   UNL     1      44.539  17.391  19.925  0.00  0.00    +0.168 A 
ENDROOT
BRANCH   6   5
ATOM      1  C   UNL     1      46.812  21.955  21.958  0.00  0.00    +0.093 C 
ATOM      2  C   UNL     1      45.559  21.896  21.122  0.00  0.00    -0.030 A 
ATOM      3  C   UNL     1      44.924  20.703  20.950  0.00  0.00    -0.031 A 
ATOM      4  C   UNL     1      43.757  20.636  20.174  0.00  0.00    +0.024 A 
ATOM      5  C   UNL     1      43.077  19.410  19.981  0.00  0.00    -0.045 A 
ATOM     22  C   UNL     1      41.928  19.381  19.209  0.00  0.00    +0.064 A 
ATOM     23  C   UNL     1      41.435  20.542  18.623  0.00  0.00    -0.026 A 
ATOM     24  C   UNL     1      42.077  21.747  18.795  0.00  0.00    +0.150 A 
ATOM     27  C   UNL     1      43.249  21.814  19.575  0.00  0.00    -0.102 A 
ATOM     28  C   UNL     1      43.926  23.035  19.769  0.00  0.00    +0.161 A 
ATOM     31  C   UNL     1      45.066  23.061  20.542  0.00  0.00    -0.098 A 
BRANCH  24  25
ATOM     25  O   UNL     1      41.583  22.872  18.214  0.00  0.00    -0.481 OA
ATOM     26  H   UNL     1      41.817  23.688  18.676  0.00  0.00    +0.392 HD
ENDBRANCH  24  25
BRANCH  28  29
ATOM     29  O   UNL     1      43.457  24.176  19.202  0.00  0.00    -0.295 OA
ATOM     30  C   UNL     1      44.425  25.084  18.674  0.00  0.00    +0.240 C 
ENDBRANCH  28  29
ENDBRANCH   6   5
BRANCH   7   8
ATOM      8  O   UNL     1      42.200  18.514  22.505  0.00  0.00    -0.486 OA
ATOM      9  H   UNL     1      42.062  18.255  23.427  0.00  0.00    +0.395 HD
ENDBRANCH   7   8
BRANCH  19  20
ATOM     20  O   UNL     1      44.994  17.771  18.705  0.00  0.00    -0.322 OA
ATOM     21  C   UNL     1      46.173  18.576  18.675  0.00  0.00    +0.232 C 
ENDBRANCH  19  20
TORSDOF 5
ENDMDL
MODEL 2
REMARK VINA RESULT:      -6.2      1.483      1.939
REMARK  Name = ZINC05849017
REMARK  10 active torsions:
REMARK  status: ('A' for Active; 'I' for Inactive)
REMARK    1  A    between atoms: C1_1  and  C2_2
REMARK    2  A    between atoms: C5_5  and  C13_15
REMARK    3  A    between atoms: C8_8  and  O2_14
REMARK    4  A    between atoms: C10_10  and  O1_12
REMARK    5  A    between atoms: O1_12  and  C12_13
REMARK    6  A    between atoms: C14_16  and  O4_30
REMARK    7  A    between atoms: C18_20  and  O3_21
REMARK    8  A    between atoms: O3_21  and  C19_22
REMARK    9  A    between atoms: C20_23  and  C24_29
REMARK   10  A    between atoms: C21_25  and  C23_28
REMARK                            x       y       z     vdW  Elec       q    Type
REMARK                         _______ _______ _______ _____ _____    ______ ____
ROOT
ATOM      6  C   UNL     1      44.712  17.909  20.026  0.00  0.00    -0.099 A 
ATOM      7  C   UNL     1      44.380  17.122  21.134  0.00  0.00    +0.156 A 
ATOM     10  C   UNL     1      44.780  15.793  21.193  0.00  0.00    -0.010 A 
ATOM     11  C   UNL     1      45.508  15.243  20.164  0.00  0.00    -0.032 A 
ATOM     12  C   UNL     1      45.849  16.018  19.047  0.00  0.00    -0.143 A 
ATOM     13  C   UNL     1      46.626  15.393  17.966  0.00  0.00    +0.220 C 
ATOM     14  C   UNL     1      46.652  16.018  16.594  0.00  0.00    +0.139 C 
ATOM     15  N   UNL     1      47.287  14.306  18.195  0.00  0.00    -0.513 NA
ATOM     16  C   UNL     1      47.306  13.670  19.509  0.00  0.00    +0.149 C 
ATOM     17  C   UNL     1      47.639  12.187  19.343  0.00  0.00    +0.055 C 
ATOM     18  C   UNL     1      45.954  13.804  20.207  0.00  0.00    +0.074 C 
ATOM     19  C   UNL     1      45.448  17.355  18.973  0.00  0.00    +0.168 A 
ENDROOT
BRANCH   6   5
ATOM      1  C   UNL     1      48.402  20.689  22.315  0.00  0.00    +0.093 C 
ATOM      2  C   UNL     1      47.089  21.031  21.658  0.00  0.00    -0.030 A 
ATOM      3  C   UNL     1      46.323  20.034  21.132  0.00  0.00    -0.031 A 
ATOM      4  C   UNL     1      45.099  20.341  20.519  0.00  0.00    +0.024 A 
ATOM      5  C   UNL     1      44.284  19.325  19.966  0.00  0.00    -0.045 A 
ATOM     22  C   UNL     1      43.082  19.663  19.368  0.00  0.00    +0.064 A 
ATOM     23  C   UNL     1      42.668  20.989  19.305  0.00  0.00    -0.026 A 
ATOM     24  C   UNL     1      43.442  21.997  19.835  0.00  0.00    +0.150 A 
ATOM     27  C   UNL     1      44.671  21.689  20.452  0.00  0.00    -0.102 A 
ATOM     28  C   UNL     1      45.483  22.700  21.003  0.00  0.00    +0.161 A 
ATOM     31  C   UNL     1      46.675  22.358  21.602  0.00  0.00    -0.098 A 
BRANCH  24  25
ATOM     25  O   UNL     1      43.023  23.287  19.764  0.00  0.00    -0.481 OA
ATOM     26  H   UNL     1      43.679  23.894  19.396  0.00  0.00    +0.392 HD
ENDBRANCH  24  25
BRANCH  28  29
ATOM     29  O   UNL     1      45.091  23.998  20.948  0.00  0.00    -0.295 OA
ATOM     30  C   UNL     1      46.120  24.989  20.992  0.00  0.00    +0.240 C 
ENDBRANCH  28  29
ENDBRANCH   6   5
BRANCH   7   8
ATOM      8  O   UNL     1      43.663  17.658  22.154  0.00  0.00    -0.486 OA
ATOM      9  H   UNL     1      43.188  18.467  21.917  0.00  0.00    +0.395 HD
ENDBRANCH   7   8
BRANCH  19  20
ATOM     20  O   UNL     1      45.771  18.109  17.893  0.00  0.00    -0.322 OA
ATOM     21  C   UNL     1      46.980  18.866  17.969  0.00  0.00    +0.232 C 
ENDBRANCH  19  20
TORSDOF 5
ENDMDL
MODEL 3
REMARK VINA RESULT:      -6.0      3.264      6.918
REMARK  Name = ZINC05849017
REMARK  10 active torsions:
REMARK  status: ('A' for Active; 'I' for Inactive)
REMARK    1  A    between atoms: C1_1  and  C2_2
REMARK    2  A    between atoms: C5_5  and  C13_15
REMARK    3  A    between atoms: C8_8  and  O2_14
REMARK    4  A    between atoms: C10_10  and  O1_12
REMARK    5  A    between atoms: O1_12  and  C12_13
REMARK    6  A    between atoms: C14_16  and  O4_30
REMARK    7  A    between atoms: C18_20  and  O3_21
REMARK    8  A    between atoms: O3_21  and  C19_22
REMARK    9  A    between atoms: C20_23  and  C24_29
REMARK   10  A    between atoms: C21_25  and  C23_28
REMARK                            x       y       z     vdW  Elec       q    Type
REMARK                         _______ _______ _______ _____ _____    ______ ____
ROOT
ATOM      6  C   UNL     1      44.944  19.248  20.673  0.00  0.00    -0.099 A 
ATOM      7  C   UNL     1      43.980  18.264  20.920  0.00  0.00    +0.156 A 
ATOM     10  C   UNL     1      42.639  18.517  20.661  0.00  0.00    -0.010 A 
ATOM     11  C   UNL     1      42.250  19.736  20.157  0.00  0.00    -0.032 A 
ATOM     12  C   UNL     1      43.203  20.732  19.904  0.00  0.00    -0.143 A 
ATOM     13  C   UNL     1      42.747  22.024  19.367  0.00  0.00    +0.220 C 
ATOM     14  C   UNL     1      43.627  23.242  19.477  0.00  0.00    +0.139 C 
ATOM     15  N   UNL     1      41.587  22.111  18.800  0.00  0.00    -0.513 NA
ATOM     16  C   UNL     1      40.705  20.958  18.656  0.00  0.00    +0.149 C 
ATOM     17  C   UNL     1      39.262  21.446  18.512  0.00  0.00    +0.055 C 
ATOM     18  C   UNL     1      40.801  20.033  19.867  0.00  0.00    +0.074 C 
ATOM     19  C   UNL     1      44.555  20.492  20.165  0.00  0.00    +0.168 A 
ENDROOT
BRANCH   6   5
ATOM      1  C   UNL     1      46.791  16.660  16.614  0.00  0.00    +0.093 C 
ATOM      2  C   UNL     1      47.391  17.142  17.910  0.00  0.00    -0.030 A 
ATOM      3  C   UNL     1      46.611  17.819  18.800  0.00  0.00    -0.031 A 
ATOM      4  C   UNL     1      47.160  18.271  20.009  0.00  0.00    +0.024 A 
ATOM      5  C   UNL     1      46.372  18.975  20.951  0.00  0.00    -0.045 A 
ATOM     22  C   UNL     1      46.945  19.407  22.134  0.00  0.00    +0.064 A 
ATOM     23  C   UNL     1      48.285  19.158  22.407  0.00  0.00    -0.026 A 
ATOM     24  C   UNL     1      49.075  18.476  21.508  0.00  0.00    +0.150 A 
ATOM     27  C   UNL     1      48.523  18.020  20.294  0.00  0.00    -0.102 A 
ATOM     28  C   UNL     1      49.307  17.318  19.356  0.00  0.00    +0.161 A 
ATOM     31  C   UNL     1      48.731  16.885  18.183  0.00  0.00    -0.098 A 
BRANCH  24  25
ATOM     25  O   UNL     1      50.382  18.241  21.791  0.00  0.00    -0.481 OA
ATOM     26  H   UNL     1      50.548  17.995  22.711  0.00  0.00    +0.392 HD
ENDBRANCH  24  25
BRANCH  28  29
ATOM     29  O   UNL     1      50.617  17.068  19.610  0.00  0.00    -0.295 OA
ATOM     30  C   UNL     1      51.545  17.336  18.557  0.00  0.00    +0.240 C 
ENDBRANCH  28  29
ENDBRANCH   6   5
BRANCH   7   8
ATOM      8  O   UNL     1      44.357  17.059  21.417  0.00  0.00    -0.486 OA
ATOM      9  H   UNL     1      44.079  16.906  22.330  0.00  0.00    +0.395 HD
ENDBRANCH   7   8
BRANCH  19  20
ATOM     20  O   UNL     1      45.480  21.454  19.926  0.00  0.00    -0.322 OA
ATOM     21  C   UNL     1      46.171  21.394  18.677  0.00  0.00    +0.232 C 
ENDBRANCH  19  20
TORSDOF 5
ENDMDL
MODEL 4
REMARK VINA RESULT:      -5.9      1.744      3.234
REMARK  Name = ZINC05849017
REMARK  10 active torsions:
REMARK  status: ('A' for Active; 'I' for Inactive)
REMARK    1  A    between atoms: C1_1  and  C2_2
REMARK    2  A    between atoms: C5_5  and  C13_15
REMARK    3  A    between atoms: C8_8  and  O2_14
REMARK    4  A    between atoms: C10_10  and  O1_12
REMARK    5  A    between atoms: O1_12  and  C12_13
REMARK    6  A    between atoms: C14_16  and  O4_30
REMARK    7  A    between atoms: C18_20  and  O3_21
REMARK    8  A    between atoms: O3_21  and  C19_22
REMARK    9  A    between atoms: C20_23  and  C24_29
REMARK   10  A    between atoms: C21_25  and  C23_28
REMARK                            x       y       z     vdW  Elec       q    Type
REMARK                         _______ _______ _______ _____ _____    ______ ____
ROOT
ATOM      6  C   UNL     1      45.341  18.071  18.888  0.00  0.00    -0.099 A 
ATOM      7  C   UNL     1      46.117  17.940  17.731  0.00  0.00    +0.156 A 
ATOM     10  C   UNL     1      46.643  16.704  17.377  0.00  0.00    -0.010 A 
ATOM     11  C   UNL     1      46.401  15.600  18.160  0.00  0.00    -0.032 A 
ATOM     12  C   UNL     1      45.625  15.714  19.322  0.00  0.00    -0.143 A 
ATOM     13  C   UNL     1      45.391  14.510  20.134  0.00  0.00    +0.220 C 
ATOM     14  C   UNL     1      44.950  14.640  21.570  0.00  0.00    +0.139 C 
ATOM     15  N   UNL     1      45.566  13.339  19.614  0.00  0.00    -0.513 NA
ATOM     16  C   UNL     1      45.978  13.160  18.226  0.00  0.00    +0.149 C 
ATOM     17  C   UNL     1      46.648  11.793  18.074  0.00  0.00    +0.055 C 
ATOM     18  C   UNL     1      46.959  14.248  17.795  0.00  0.00    +0.074 C 
ATOM     19  C   UNL     1      45.095  16.953  19.692  0.00  0.00    +0.168 A 
ENDROOT
BRANCH   6   5
ATOM      1  C   UNL     1      49.107  20.670  21.262  0.00  0.00    +0.093 C 
ATOM      2  C   UNL     1      47.675  20.987  20.915  0.00  0.00    -0.030 A 
ATOM      3  C   UNL     1      46.922  20.056  20.264  0.00  0.00    -0.031 A 
ATOM      4  C   UNL     1      45.587  20.340  19.936  0.00  0.00    +0.024 A 
ATOM      5  C   UNL     1      44.783  19.390  19.262  0.00  0.00    -0.045 A 
ATOM     22  C   UNL     1      43.470  19.703  18.954  0.00  0.00    +0.064 A 
ATOM     23  C   UNL     1      42.934  20.939  19.299  0.00  0.00    -0.026 A 
ATOM     24  C   UNL     1      43.695  21.881  19.955  0.00  0.00    +0.150 A 
ATOM     27  C   UNL     1      45.035  21.595  20.285  0.00  0.00    -0.102 A 
ATOM     28  C   UNL     1      45.837  22.539  20.957  0.00  0.00    +0.161 A 
ATOM     31  C   UNL     1      47.140  22.222  21.267  0.00  0.00    -0.098 A 
BRANCH  24  25
ATOM     25  O   UNL     1      43.156  23.083  20.284  0.00  0.00    -0.481 OA
ATOM     26  H   UNL     1      42.195  23.068  20.387  0.00  0.00    +0.392 HD
ENDBRANCH  24  25
BRANCH  28  29
ATOM     29  O   UNL     1      45.326  23.750  21.300  0.00  0.00    -0.295 OA
ATOM     30  C   UNL     1      46.109  24.900  20.975  0.00  0.00    +0.240 C 
ENDBRANCH  28  29
ENDBRANCH   6   5
BRANCH   7   8
ATOM      8  O   UNL     1      46.359  19.025  16.953  0.00  0.00    -0.486 OA
ATOM      9  H   UNL     1      45.563  19.513  16.700  0.00  0.00    +0.395 HD
ENDBRANCH   7   8
BRANCH  19  20
ATOM     20  O   UNL     1      44.348  17.070  20.818  0.00  0.00    -0.322 OA
ATOM     21  C   UNL     1      44.994  17.608  21.972  0.00  0.00    +0.232 C 
ENDBRANCH  19  20
TORSDOF 5
ENDMDL
MODEL 5
REMARK VINA RESULT:      -5.8      3.544      5.639
REMARK  Name = ZINC05849017
REMARK  10 active torsions:
REMARK  status: ('A' for Active; 'I' for Inactive)
REMARK    1  A    between atoms: C1_1  and  C2_2
REMARK    2  A    between atoms: C5_5  and  C13_15
REMARK    3  A    between atoms: C8_8  and  O2_14
REMARK    4  A    between atoms: C10_10  and  O1_12
REMARK    5  A    between atoms: O1_12  and  C12_13
REMARK    6  A    between atoms: C14_16  and  O4_30
REMARK    7  A    between atoms: C18_20  and  O3_21
REMARK    8  A    between atoms: O3_21  and  C19_22
REMARK    9  A    between atoms: C20_23  and  C24_29
REMARK   10  A    between atoms: C21_25  and  C23_28
REMARK                            x       y       z     vdW  Elec       q    Type
REMARK                         _______ _______ _______ _____ _____    ______ ____
ROOT
ATOM      6  C   UNL     1      47.858  18.937  18.942  0.00  0.00    -0.099 A 
ATOM      7  C   UNL     1      47.955  18.003  17.904  0.00  0.00    +0.156 A 
ATOM     10  C   UNL     1      49.163  17.371  17.641  0.00  0.00    -0.010 A 
ATOM     11  C   UNL     1      50.273  17.658  18.401  0.00  0.00    -0.032 A 
ATOM     12  C   UNL     1      50.193  18.590  19.445  0.00  0.00    -0.143 A 
ATOM     13  C   UNL     1      51.403  18.871  20.234  0.00  0.00    +0.220 C 
ATOM     14  C   UNL     1      51.495  20.132  21.055  0.00  0.00    +0.139 C 
ATOM     15  N   UNL     1      52.388  18.033  20.221  0.00  0.00    -0.513 NA
ATOM     16  C   UNL     1      52.341  16.792  19.454  0.00  0.00    +0.149 C 
ATOM     17  C   UNL     1      53.770  16.333  19.158  0.00  0.00    +0.055 C 
ATOM     18  C   UNL     1      51.595  16.984  18.136  0.00  0.00    +0.074 C 
ATOM     19  C   UNL     1      48.983  19.237  19.716  0.00  0.00    +0.168 A 
ENDROOT
BRANCH   6   5
ATOM      1  C   UNL     1      45.019  15.643  21.713  0.00  0.00    +0.093 C 
ATOM      2  C   UNL     1      44.790  17.036  21.186  0.00  0.00    -0.030 A 
ATOM      3  C   UNL     1      45.770  17.651  20.466  0.00  0.00    -0.031 A 
ATOM      4  C   UNL     1      45.567  18.948  19.971  0.00  0.00    +0.024 A 
ATOM      5  C   UNL     1      46.568  19.608  19.219  0.00  0.00    -0.045 A 
ATOM     22  C   UNL     1      46.334  20.887  18.745  0.00  0.00    +0.064 A 
ATOM     23  C   UNL     1      45.127  21.529  18.998  0.00  0.00    -0.026 A 
ATOM     24  C   UNL     1      44.136  20.910  19.727  0.00  0.00    +0.150 A 
ATOM     27  C   UNL     1      44.340  19.607  20.224  0.00  0.00    -0.102 A 
ATOM     28  C   UNL     1      43.344  18.948  20.971  0.00  0.00    +0.161 A 
ATOM     31  C   UNL     1      43.578  17.673  21.436  0.00  0.00    -0.098 A 
BRANCH  24  25
ATOM     25  O   UNL     1      42.963  21.552  19.965  0.00  0.00    -0.481 OA
ATOM     26  H   UNL     1      42.860  21.856  20.877  0.00  0.00    +0.392 HD
ENDBRANCH  24  25
BRANCH  28  29
ATOM     29  O   UNL     1      42.160  19.563  21.226  0.00  0.00    -0.295 OA
ATOM     30  C   UNL     1      40.974  18.784  21.057  0.00  0.00    +0.240 C 
ENDBRANCH  28  29
ENDBRANCH   6   5
BRANCH   7   8
ATOM      8  O   UNL     1      46.863  17.715  17.151  0.00  0.00    -0.486 OA
ATOM      9  H   UNL     1      46.112  17.379  17.659  0.00  0.00    +0.395 HD
ENDBRANCH   7   8
BRANCH  19  20
ATOM     20  O   UNL     1      48.902  20.143  20.722  0.00  0.00    -0.322 OA
ATOM     21  C   UNL     1      48.424  19.672  21.983  0.00  0.00    +0.232 C 
ENDBRANCH  19  20
TORSDOF 5
ENDMDL
MODEL 6
REMARK VINA RESULT:      -5.7      1.976      3.548
REMARK  Name = ZINC05849017
REMARK  10 active torsions:
REMARK  status: ('A' for Active; 'I' for Inactive)
REMARK    1  A    between atoms: C1_1  and  C2_2
REMARK    2  A    between atoms: C5_5  and  C13_15
REMARK    3  A    between atoms: C8_8  and  O2_14
REMARK    4  A    between atoms: C10_10  and  O1_12
REMARK    5  A    between atoms: O1_12  and  C12_13
REMARK    6  A    between atoms: C14_16  and  O4_30
REMARK    7  A    between atoms: C18_20  and  O3_21
REMARK    8  A    between atoms: O3_21  and  C19_22
REMARK    9  A    between atoms: C20_23  and  C24_29
REMARK   10  A    between atoms: C21_25  and  C23_28
REMARK                            x       y       z     vdW  Elec       q    Type
REMARK                         _______ _______ _______ _____ _____    ______ ____
ROOT
ATOM      6  C   UNL     1      45.999  17.658  20.189  0.00  0.00    -0.099 A 
ATOM      7  C   UNL     1      45.405  16.779  21.102  0.00  0.00    +0.156 A 
ATOM     10  C   UNL     1      45.188  15.451  20.757  0.00  0.00    -0.010 A 
ATOM     11  C   UNL     1      45.558  14.990  19.515  0.00  0.00    -0.032 A 
ATOM     12  C   UNL     1      46.155  15.857  18.589  0.00  0.00    -0.143 A 
ATOM     13  C   UNL     1      46.535  15.326  17.271  0.00  0.00    +0.220 C 
ATOM     14  C   UNL     1      46.772  16.267  16.117  0.00  0.00    +0.139 C 
ATOM     15  N   UNL     1      46.666  14.050  17.104  0.00  0.00    -0.513 NA
ATOM     16  C   UNL     1      46.462  13.101  18.193  0.00  0.00    +0.149 C 
ATOM     17  C   UNL     1      46.108  11.733  17.606  0.00  0.00    +0.055 C 
ATOM     18  C   UNL     1      45.335  13.553  19.119  0.00  0.00    +0.074 C 
ATOM     19  C   UNL     1      46.374  17.197  18.923  0.00  0.00    +0.168 A 
ENDROOT
BRANCH   6   5
ATOM      1  C   UNL     1      41.948  20.335  18.456  0.00  0.00    +0.093 C 
ATOM      2  C   UNL     1      43.204  20.703  19.203  0.00  0.00    -0.030 A 
ATOM      3  C   UNL     1      44.104  19.730  19.522  0.00  0.00    -0.031 A 
ATOM      4  C   UNL     1      45.276  20.062  20.218  0.00  0.00    +0.024 A 
ATOM      5  C   UNL     1      46.228  19.072  20.560  0.00  0.00    -0.045 A 
ATOM     22  C   UNL     1      47.374  19.434  21.247  0.00  0.00    +0.064 A 
ATOM     23  C   UNL     1      47.601  20.759  21.602  0.00  0.00    -0.026 A 
ATOM     24  C   UNL     1      46.691  21.742  21.281  0.00  0.00    +0.150 A 
ATOM     27  C   UNL     1      45.514  21.409  20.582  0.00  0.00    -0.102 A 
ATOM     28  C   UNL     1      44.567  22.395  20.239  0.00  0.00    +0.161 A 
ATOM     31  C   UNL     1      43.430  22.031  19.551  0.00  0.00    -0.098 A 
BRANCH  24  25
ATOM     25  O   UNL     1      46.928  23.032  21.636  0.00  0.00    -0.481 OA
ATOM     26  H   UNL     1      46.317  23.375  22.302  0.00  0.00    +0.392 HD
ENDBRANCH  24  25
BRANCH  28  29
ATOM     29  O   UNL     1      44.775  23.692  20.580  0.00  0.00    -0.295 OA
ATOM     30  C   UNL     1      44.806  24.646  19.516  0.00  0.00    +0.240 C 
ENDBRANCH  28  29
ENDBRANCH   6   5
BRANCH   7   8
ATOM      8  O   UNL     1      45.037  17.228  22.329  0.00  0.00    -0.486 OA
ATOM      9  H   UNL     1      45.608  16.921  23.047  0.00  0.00    +0.395 HD
ENDBRANCH   7   8
BRANCH  19  20
ATOM     20  O   UNL     1      46.946  18.041  18.028  0.00  0.00    -0.322 OA
ATOM     21  C   UNL     1      48.357  18.240  18.136  0.00  0.00    +0.232 C 
ENDBRANCH  19  20
TORSDOF 5
ENDMDL
MODEL 7
REMARK VINA RESULT:      -5.6      4.383      8.791
REMARK  Name = ZINC05849017
REMARK  10 active torsions:
REMARK  status: ('A' for Active; 'I' for Inactive)
REMARK    1  A    between atoms: C1_1  and  C2_2
REMARK    2  A    between atoms: C5_5  and  C13_15
REMARK    3  A    between atoms: C8_8  and  O2_14
REMARK    4  A    between atoms: C10_10  and  O1_12
REMARK    5  A    between atoms: O1_12  and  C12_13
REMARK    6  A    between atoms: C14_16  and  O4_30
REMARK    7  A    between atoms: C18_20  and  O3_21
REMARK    8  A    between atoms: O3_21  and  C19_22
REMARK    9  A    between atoms: C20_23  and  C24_29
REMARK   10  A    between atoms: C21_25  and  C23_28
REMARK                            x       y       z     vdW  Elec       q    Type
REMARK                         _______ _______ _______ _____ _____    ______ ____
ROOT
ATOM      6  C   UNL     1      46.651  14.746  17.632  0.00  0.00    -0.099 A 
ATOM      7  C   UNL     1      46.375  16.016  17.115  0.00  0.00    +0.156 A 
ATOM     10  C   UNL     1      45.808  16.994  17.923  0.00  0.00    -0.010 A 
ATOM     11  C   UNL     1      45.518  16.719  19.239  0.00  0.00    -0.032 A 
ATOM     12  C   UNL     1      45.789  15.451  19.773  0.00  0.00    -0.143 A 
ATOM     13  C   UNL     1      45.462  15.196  21.184  0.00  0.00    +0.220 C 
ATOM     14  C   UNL     1      45.328  13.781  21.686  0.00  0.00    +0.139 C 
ATOM     15  N   UNL     1      45.289  16.190  21.994  0.00  0.00    -0.513 NA
ATOM     16  C   UNL     1      45.422  17.577  21.561  0.00  0.00    +0.149 C 
ATOM     17  C   UNL     1      44.623  18.476  22.506  0.00  0.00    +0.055 C 
ATOM     18  C   UNL     1      44.905  17.764  20.136  0.00  0.00    +0.074 C 
ATOM     19  C   UNL     1      46.354  14.458  18.968  0.00  0.00    +0.168 A 
ENDROOT
BRANCH   6   5
ATOM      1  C   UNL     1      51.668  15.864  17.223  0.00  0.00    +0.093 C 
ATOM      2  C   UNL     1      50.791  14.770  16.670  0.00  0.00    -0.030 A 
ATOM      3  C   UNL     1      49.463  14.757  16.976  0.00  0.00    -0.031 A 
ATOM      4  C   UNL     1      48.637  13.744  16.466  0.00  0.00    +0.024 A 
ATOM      5  C   UNL     1      47.254  13.707  16.766  0.00  0.00    -0.045 A 
ATOM     22  C   UNL     1      46.469  12.693  16.246  0.00  0.00    +0.064 A 
ATOM     23  C   UNL     1      47.023  11.711  15.433  0.00  0.00    -0.026 A 
ATOM     24  C   UNL     1      48.365  11.723  15.125  0.00  0.00    +0.150 A 
ATOM     27  C   UNL     1      49.194  12.741  15.636  0.00  0.00    -0.102 A 
ATOM     28  C   UNL     1      50.570  12.779  15.337  0.00  0.00    +0.161 A 
ATOM     31  C   UNL     1      51.348  13.793  15.851  0.00  0.00    -0.098 A 
BRANCH  24  25
ATOM     25  O   UNL     1      48.890  10.755  14.329  0.00  0.00    -0.481 OA
ATOM     26  H   UNL     1      48.380   9.934  14.320  0.00  0.00    +0.392 HD
ENDBRANCH  24  25
BRANCH  28  29
ATOM     29  O   UNL     1      51.125  11.827  14.544  0.00  0.00    -0.295 OA
ATOM     30  C   UNL     1      52.358  11.253  14.983  0.00  0.00    +0.240 C 
ENDBRANCH  28  29
ENDBRANCH   6   5
BRANCH   7   8
ATOM      8  O   UNL     1      46.659  16.294  15.817  0.00  0.00    -0.486 OA
ATOM      9  H   UNL     1      46.026  16.891  15.395  0.00  0.00    +0.395 HD
ENDBRANCH   7   8
BRANCH  19  20
ATOM     20  O   UNL     1      46.614  13.229  19.478  0.00  0.00    -0.322 OA
ATOM     21  C   UNL     1      47.950  12.978  19.918  0.00  0.00    +0.232 C 
ENDBRANCH  19  20
TORSDOF 5
ENDMDL
MODEL 8
REMARK VINA RESULT:      -5.5      4.755      6.514
REMARK  Name = ZINC05849017
REMARK  10 active torsions:
REMARK  status: ('A' for Active; 'I' for Inactive)
REMARK    1  A    between atoms: C1_1  and  C2_2
REMARK    2  A    between atoms: C5_5  and  C13_15
REMARK    3  A    between atoms: C8_8  and  O2_14
REMARK    4  A    between atoms: C10_10  and  O1_12
REMARK    5  A    between atoms: O1_12  and  C12_13
REMARK    6  A    between atoms: C14_16  and  O4_30
REMARK    7  A    between atoms: C18_20  and  O3_21
REMARK    8  A    between atoms: O3_21  and  C19_22
REMARK    9  A    between atoms: C20_23  and  C24_29
REMARK   10  A    between atoms: C21_25  and  C23_28
REMARK                            x       y       z     vdW  Elec       q    Type
REMARK                         _______ _______ _______ _____ _____    ______ ____
ROOT
ATOM      6  C   UNL     1      47.922  16.403  18.294  0.00  0.00    -0.099 A 
ATOM      7  C   UNL     1      46.975  16.422  17.265  0.00  0.00    +0.156 A 
ATOM     10  C   UNL     1      46.608  15.243  16.629  0.00  0.00    -0.010 A 
ATOM     11  C   UNL     1      47.173  14.048  17.008  0.00  0.00    -0.032 A 
ATOM     12  C   UNL     1      48.124  14.011  18.037  0.00  0.00    -0.143 A 
ATOM     13  C   UNL     1      48.706  12.714  18.412  0.00  0.00    +0.220 C 
ATOM     14  C   UNL     1      50.002  12.660  19.181  0.00  0.00    +0.139 C 
ATOM     15  N   UNL     1      48.104  11.618  18.080  0.00  0.00    -0.513 NA
ATOM     16  C   UNL     1      46.842  11.617  17.349  0.00  0.00    +0.149 C 
ATOM     17  C   UNL     1      46.689  10.284  16.615  0.00  0.00    +0.055 C 
ATOM     18  C   UNL     1      46.790  12.756  16.333  0.00  0.00    +0.074 C 
ATOM     19  C   UNL     1      48.505  15.191  18.682  0.00  0.00    +0.168 A 
ENDROOT
BRANCH   6   5
ATOM      1  C   UNL     1      51.967  18.297  15.720  0.00  0.00    +0.093 C 
ATOM      2  C   UNL     1      51.185  18.755  16.924  0.00  0.00    -0.030 A 
ATOM      3  C   UNL     1      50.137  18.005  17.367  0.00  0.00    -0.031 A 
ATOM      4  C   UNL     1      49.402  18.422  18.488  0.00  0.00    +0.024 A 
ATOM      5  C   UNL     1      48.311  17.661  18.970  0.00  0.00    -0.045 A 
ATOM     22  C   UNL     1      47.607  18.102  20.078  0.00  0.00    +0.064 A 
ATOM     23  C   UNL     1      47.962  19.282  20.721  0.00  0.00    -0.026 A 
ATOM     24  C   UNL     1      49.019  20.042  20.272  0.00  0.00    +0.150 A 
ATOM     27  C   UNL     1      49.758  19.622  19.148  0.00  0.00    -0.102 A 
ATOM     28  C   UNL     1      50.845  20.379  18.668  0.00  0.00    +0.161 A 
ATOM     31  C   UNL     1      51.546  19.934  17.569  0.00  0.00    -0.098 A 
BRANCH  24  25
ATOM     25  O   UNL     1      49.351  21.193  20.913  0.00  0.00    -0.481 OA
ATOM     26  H   UNL     1      50.001  21.731  20.442  0.00  0.00    +0.392 HD
ENDBRANCH  24  25
BRANCH  28  29
ATOM     29  O   UNL     1      51.202  21.534  19.286  0.00  0.00    -0.295 OA
ATOM     30  C   UNL     1      52.534  21.612  19.796  0.00  0.00    +0.240 C 
ENDBRANCH  28  29
ENDBRANCH   6   5
BRANCH   7   8
ATOM      8  O   UNL     1      46.413  17.598  16.886  0.00  0.00    -0.486 OA
ATOM      9  H   UNL     1      46.982  18.368  17.023  0.00  0.00    +0.395 HD
ENDBRANCH   7   8
BRANCH  19  20
ATOM     20  O   UNL     1      49.428  15.162  19.675  0.00  0.00    -0.322 OA
ATOM     21  C   UNL     1      48.936  15.092  21.015  0.00  0.00    +0.232 C 
ENDBRANCH  19  20
TORSDOF 5
ENDMDL
MODEL 9
REMARK VINA RESULT:      -5.4      3.188      7.927
REMARK  Name = ZINC05849017
REMARK  10 active torsions:
REMARK  status: ('A' for Active; 'I' for Inactive)
REMARK    1  A    between atoms: C1_1  and  C2_2
REMARK    2  A    between atoms: C5_5  and  C13_15
REMARK    3  A    between atoms: C8_8  and  O2_14
REMARK    4  A    between atoms: C10_10  and  O1_12
REMARK    5  A    between atoms: O1_12  and  C12_13
REMARK    6  A    between atoms: C14_16  and  O4_30
REMARK    7  A    between atoms: C18_20  and  O3_21
REMARK    8  A    between atoms: O3_21  and  C19_22
REMARK    9  A    between atoms: C20_23  and  C24_29
REMARK   10  A    between atoms: C21_25  and  C23_28
REMARK                            x       y       z     vdW  Elec       q    Type
REMARK                         _______ _______ _______ _____ _____    ______ ____
ROOT
ATOM      6  C   UNL     1      45.688  16.565  20.728  0.00  0.00    -0.099 A 
ATOM      7  C   UNL     1      44.670  16.227  21.625  0.00  0.00    +0.156 A 
ATOM     10  C   UNL     1      43.510  16.989  21.688  0.00  0.00    -0.010 A 
ATOM     11  C   UNL     1      43.354  18.080  20.866  0.00  0.00    -0.032 A 
ATOM     12  C   UNL     1      44.365  18.433  19.961  0.00  0.00    -0.143 A 
ATOM     13  C   UNL     1      44.162  19.608  19.100  0.00  0.00    +0.220 C 
ATOM     14  C   UNL     1      45.341  20.275  18.440  0.00  0.00    +0.139 C 
ATOM     15  N   UNL     1      42.968  20.068  18.912  0.00  0.00    -0.513 NA
ATOM     16  C   UNL     1      41.793  19.450  19.517  0.00  0.00    +0.149 C 
ATOM     17  C   UNL     1      40.674  20.488  19.613  0.00  0.00    +0.055 C 
ATOM     18  C   UNL     1      42.104  18.921  20.915  0.00  0.00    +0.074 C 
ATOM     19  C   UNL     1      45.539  17.677  19.892  0.00  0.00    +0.168 A 
ENDROOT
BRANCH   6   5
ATOM      1  C   UNL     1      44.689  12.569  17.627  0.00  0.00    +0.093 C 
ATOM      2  C   UNL     1      45.901  13.012  18.406  0.00  0.00    -0.030 A 
ATOM      3  C   UNL     1      45.839  14.151  19.152  0.00  0.00    -0.031 A 
ATOM      4  C   UNL     1      46.961  14.573  19.881  0.00  0.00    +0.024 A 
ATOM      5  C   UNL     1      46.923  15.751  20.664  0.00  0.00    -0.045 A 
ATOM     22  C   UNL     1      48.048  16.138  21.371  0.00  0.00    +0.064 A 
ATOM     23  C   UNL     1      49.214  15.382  21.320  0.00  0.00    -0.026 A 
ATOM     24  C   UNL     1      49.279  14.232  20.565  0.00  0.00    +0.150 A 
ATOM     27  C   UNL     1      48.151  13.808  19.834  0.00  0.00    -0.102 A 
ATOM     28  C   UNL     1      48.188  12.635  19.054  0.00  0.00    +0.161 A 
ATOM     31  C   UNL     1      47.064  12.250  18.357  0.00  0.00    -0.098 A 
BRANCH  24  25
ATOM     25  O   UNL     1      50.426  13.507  20.525  0.00  0.00    -0.481 OA
ATOM     26  H   UNL     1      51.203  14.013  20.251  0.00  0.00    +0.392 HD
ENDBRANCH  24  25
BRANCH  28  29
ATOM     29  O   UNL     1      49.320  11.888  18.994  0.00  0.00    -0.295 OA
ATOM     30  C   UNL     1      49.744  11.454  17.701  0.00  0.00    +0.240 C 
ENDBRANCH  28  29
ENDBRANCH   6   5
BRANCH   7   8
ATOM      8  O   UNL     1      44.817  15.150  22.439  0.00  0.00    -0.486 OA
ATOM      9  H   UNL     1      44.667  14.302  21.999  0.00  0.00    +0.395 HD
ENDBRANCH   7   8
BRANCH  19  20
ATOM     20  O   UNL     1      46.522  18.017  19.021  0.00  0.00    -0.322 OA
ATOM     21  C   UNL     1      46.494  17.393  17.737  0.00  0.00    +0.232 C 
ENDBRANCH  19  20
TORSDOF 5
ENDMDL
