MODEL 1
REMARK VINA RESULT:      -7.5      0.000      0.000
REMARK  Name = ZINC13485435
REMARK  10 active torsions:
REMARK  status: ('A' for Active; 'I' for Inactive)
REMARK    1  A    between atoms: C1_1  and  C2_2
REMARK    2  A    between atoms: C2_2  and  C25_31
REMARK    3  A    between atoms: C3_3  and  C4_4
REMARK    4  A    between atoms: C4_4  and  C5_5
REMARK    5  A    between atoms: C10_10  and  O1_11
REMARK    6  A    between atoms: C18_23  and  O4_30
REMARK    7  A    between atoms: C19_24  and  C20_25
REMARK    8  A    between atoms: C20_25  and  C21_26
REMARK    9  A    between atoms: C22_27  and  C23_28
REMARK   10  A    between atoms: C22_27  and  C24_29
REMARK                            x       y       z     vdW  Elec       q    Type
REMARK                         _______ _______ _______ _____ _____    ______ ____
ROOT
ATOM      6  C   UNL     1      50.331  16.899  17.414  0.00  0.00    -0.123 A 
ATOM      7  C   UNL     1      49.284  17.762  17.715  0.00  0.00    +0.096 A 
ATOM      8  C   UNL     1      48.248  17.261  18.472  0.00  0.00    -0.159 A 
ATOM      9  C   UNL     1      48.233  15.921  18.917  0.00  0.00    +0.110 A 
ATOM     10  O   UNL     1      47.098  15.655  19.624  0.00  0.00    -0.278 OA
ATOM     11  C   UNL     1      46.119  16.572  19.154  0.00  0.00    +0.225 C 
ATOM     12  C   UNL     1      45.031  17.013  20.074  0.00  0.00    -0.166 A 
ATOM     13  C   UNL     1      44.586  16.286  21.147  0.00  0.00    +0.086 A 
ATOM     14  C   UNL     1      43.578  16.791  21.951  0.00  0.00    -0.034 A 
ATOM     15  C   UNL     1      43.029  18.034  21.667  0.00  0.00    +0.147 A 
ATOM     18  C   UNL     1      43.475  18.767  20.580  0.00  0.00    -0.127 A 
ATOM     24  C   UNL     1      44.476  18.264  19.764  0.00  0.00    +0.163 A 
ATOM     25  O   UNL     1      44.885  18.952  18.671  0.00  0.00    -0.313 OA
ATOM     26  C   UNL     1      46.206  18.816  18.134  0.00  0.00    +0.273 C 
ATOM     27  C   UNL     1      49.287  15.069  18.615  0.00  0.00    -0.007 A 
ATOM     28  C   UNL     1      46.998  17.862  18.994  0.00  0.00    -0.016 C 
ATOM     29  C   UNL     1      50.333  15.587  17.855  0.00  0.00    +0.145 A 
ENDROOT
BRANCH  15  16
ATOM     16  O   UNL     1      42.045  18.534  22.461  0.00  0.00    -0.491 OA
ATOM     17  H   UNL     1      42.199  19.444  22.750  0.00  0.00    +0.394 HD
ENDBRANCH  15  16
BRANCH  29  30
ATOM     30  O   UNL     1      51.382  14.784  17.538  0.00  0.00    -0.490 OA
ATOM     31  H   UNL     1      52.247  15.186  17.698  0.00  0.00    +0.393 HD
ENDBRANCH  29  30
BRANCH   6   5
ATOM      5  C   UNL     1      51.488  17.402  16.588  0.00  0.00    +0.115 C 
BRANCH   5   4
ATOM      1  C   UNL     1      52.630  19.576  17.973  0.00  0.00    +0.072 C 
ATOM      2  C   UNL     1      51.789  19.819  16.747  0.00  0.00    -0.135 C 
ATOM      3  C   UNL     1      51.616  21.219  16.216  0.00  0.00    +0.073 C 
ATOM      4  C   UNL     1      51.208  18.813  16.141  0.00  0.00    -0.043 C 
ENDBRANCH   5   4
ENDBRANCH   6   5
BRANCH  18  19
ATOM     19  C   UNL     1      42.872  20.115  20.284  0.00  0.00    +0.126 C 
BRANCH  19  20
ATOM     20  C   UNL     1      41.542  19.930  19.598  0.00  0.00    -0.059 C 
ATOM     21  C   UNL     1      41.031  20.904  18.887  0.00  0.00    -0.122 C 
ATOM     22  C   UNL     1      39.772  20.675  18.090  0.00  0.00    +0.071 C 
ATOM     23  C   UNL     1      41.702  22.254  18.864  0.00  0.00    +0.074 C 
ENDBRANCH  19  20
ENDBRANCH  18  19
TORSDOF 6
ENDMDL
MODEL 2
REMARK VINA RESULT:      -6.8      2.161      7.849
REMARK  Name = ZINC13485435
REMARK  10 active torsions:
REMARK  status: ('A' for Active; 'I' for Inactive)
REMARK    1  A    between atoms: C1_1  and  C2_2
REMARK    2  A    between atoms: C2_2  and  C25_31
REMARK    3  A    between atoms: C3_3  and  C4_4
REMARK    4  A    between atoms: C4_4  and  C5_5
REMARK    5  A    between atoms: C10_10  and  O1_11
REMARK    6  A    between atoms: C18_23  and  O4_30
REMARK    7  A    between atoms: C19_24  and  C20_25
REMARK    8  A    between atoms: C20_25  and  C21_26
REMARK    9  A    between atoms: C22_27  and  C23_28
REMARK   10  A    between atoms: C22_27  and  C24_29
REMARK                            x       y       z     vdW  Elec       q    Type
REMARK                         _______ _______ _______ _____ _____    ______ ____
ROOT
ATOM      6  C   UNL     1      44.103  21.025  19.607  0.00  0.00    -0.123 A 
ATOM      7  C   UNL     1      45.408  20.780  19.199  0.00  0.00    +0.096 A 
ATOM      8  C   UNL     1      45.776  19.467  19.009  0.00  0.00    -0.159 A 
ATOM      9  C   UNL     1      44.876  18.402  19.232  0.00  0.00    +0.110 A 
ATOM     10  O   UNL     1      45.476  17.199  19.002  0.00  0.00    -0.278 OA
ATOM     11  C   UNL     1      46.865  17.407  19.219  0.00  0.00    +0.225 C 
ATOM     12  C   UNL     1      47.852  16.571  18.476  0.00  0.00    -0.166 A 
ATOM     13  C   UNL     1      47.587  15.322  17.980  0.00  0.00    +0.086 A 
ATOM     14  C   UNL     1      48.569  14.631  17.290  0.00  0.00    -0.034 A 
ATOM     15  C   UNL     1      49.815  15.212  17.101  0.00  0.00    +0.147 A 
ATOM     18  C   UNL     1      50.086  16.473  17.607  0.00  0.00    -0.127 A 
ATOM     24  C   UNL     1      49.111  17.167  18.308  0.00  0.00    +0.163 A 
ATOM     25  O   UNL     1      49.383  18.380  18.847  0.00  0.00    -0.313 OA
ATOM     26  C   UNL     1      48.363  19.361  19.069  0.00  0.00    +0.273 C 
ATOM     27  C   UNL     1      43.572  18.659  19.634  0.00  0.00    -0.007 A 
ATOM     28  C   UNL     1      47.041  18.827  18.575  0.00  0.00    -0.016 C 
ATOM     29  C   UNL     1      43.207  19.990  19.817  0.00  0.00    +0.145 A 
ENDROOT
BRANCH  15  16
ATOM     16  O   UNL     1      50.777  14.539  16.416  0.00  0.00    -0.491 OA
ATOM     17  H   UNL     1      50.515  13.649  16.143  0.00  0.00    +0.394 HD
ENDBRANCH  15  16
BRANCH  29  30
ATOM     30  O   UNL     1      41.940  20.282  20.211  0.00  0.00    -0.490 OA
ATOM     31  H   UNL     1      41.623  19.740  20.947  0.00  0.00    +0.393 HD
ENDBRANCH  29  30
BRANCH   6   5
ATOM      5  C   UNL     1      43.652  22.446  19.828  0.00  0.00    +0.115 C 
BRANCH   5   4
ATOM      1  C   UNL     1      44.576  24.908  18.809  0.00  0.00    +0.072 C 
ATOM      2  C   UNL     1      45.115  24.380  20.113  0.00  0.00    -0.135 C 
ATOM      3  C   UNL     1      46.096  25.200  20.911  0.00  0.00    +0.073 C 
ATOM      4  C   UNL     1      44.731  23.207  20.554  0.00  0.00    -0.043 C 
ENDBRANCH   5   4
ENDBRANCH   6   5
BRANCH  18  19
ATOM     19  C   UNL     1      51.442  17.094  17.394  0.00  0.00    +0.126 C 
BRANCH  19  20
ATOM     20  C   UNL     1      51.322  18.240  16.422  0.00  0.00    -0.059 C 
ATOM     21  C   UNL     1      51.908  19.383  16.681  0.00  0.00    -0.122 C 
ATOM     22  C   UNL     1      51.903  20.482  15.650  0.00  0.00    +0.071 C 
ATOM     23  C   UNL     1      52.586  19.597  18.009  0.00  0.00    +0.074 C 
ENDBRANCH  19  20
ENDBRANCH  18  19
TORSDOF 6
ENDMDL
MODEL 3
REMARK VINA RESULT:      -6.4      2.782      4.967
REMARK  Name = ZINC13485435
REMARK  10 active torsions:
REMARK  status: ('A' for Active; 'I' for Inactive)
REMARK    1  A    between atoms: C1_1  and  C2_2
REMARK    2  A    between atoms: C2_2  and  C25_31
REMARK    3  A    between atoms: C3_3  and  C4_4
REMARK    4  A    between atoms: C4_4  and  C5_5
REMARK    5  A    between atoms: C10_10  and  O1_11
REMARK    6  A    between atoms: C18_23  and  O4_30
REMARK    7  A    between atoms: C19_24  and  C20_25
REMARK    8  A    between atoms: C20_25  and  C21_26
REMARK    9  A    between atoms: C22_27  and  C23_28
REMARK   10  A    between atoms: C22_27  and  C24_29
REMARK                            x       y       z     vdW  Elec       q    Type
REMARK                         _______ _______ _______ _____ _____    ______ ____
ROOT
ATOM      6  C   UNL     1      47.598  13.312  18.022  0.00  0.00    -0.123 A 
ATOM      7  C   UNL     1      46.548  14.133  18.418  0.00  0.00    +0.096 A 
ATOM      8  C   UNL     1      46.790  15.487  18.474  0.00  0.00    -0.159 A 
ATOM      9  C   UNL     1      48.055  16.031  18.159  0.00  0.00    +0.110 A 
ATOM     10  O   UNL     1      48.055  17.386  18.312  0.00  0.00    -0.278 OA
ATOM     11  C   UNL     1      47.046  17.673  19.270  0.00  0.00    +0.225 C 
ATOM     12  C   UNL     1      46.338  18.984  19.212  0.00  0.00    -0.166 A 
ATOM     13  C   UNL     1      46.864  20.122  18.660  0.00  0.00    +0.086 A 
ATOM     14  C   UNL     1      46.120  21.289  18.644  0.00  0.00    -0.034 A 
ATOM     15  C   UNL     1      44.840  21.297  19.183  0.00  0.00    +0.147 A 
ATOM     18  C   UNL     1      44.309  20.148  19.746  0.00  0.00    -0.127 A 
ATOM     24  C   UNL     1      45.053  18.978  19.776  0.00  0.00    +0.163 A 
ATOM     25  O   UNL     1      44.560  17.864  20.368  0.00  0.00    -0.313 OA
ATOM     26  C   UNL     1      44.966  16.548  19.975  0.00  0.00    +0.273 C 
ATOM     27  C   UNL     1      49.095  15.201  17.760  0.00  0.00    -0.007 A 
ATOM     28  C   UNL     1      45.941  16.650  18.827  0.00  0.00    -0.016 C 
ATOM     29  C   UNL     1      48.839  13.835  17.699  0.00  0.00    +0.145 A 
ENDROOT
BRANCH  15  16
ATOM     16  O   UNL     1      44.105  22.439  19.159  0.00  0.00    -0.491 OA
ATOM     17  H   UNL     1      43.492  22.528  19.902  0.00  0.00    +0.394 HD
ENDBRANCH  15  16
BRANCH  29  30
ATOM     30  O   UNL     1      49.832  12.991  17.313  0.00  0.00    -0.490 OA
ATOM     31  H   UNL     1      49.625  12.479  16.519  0.00  0.00    +0.393 HD
ENDBRANCH  29  30
BRANCH   6   5
ATOM      5  C   UNL     1      47.381  11.823  17.944  0.00  0.00    +0.115 C 
BRANCH   5   4
ATOM      1  C   UNL     1      47.809  10.675  15.405  0.00  0.00    +0.072 C 
ATOM      2  C   UNL     1      46.407  10.943  15.887  0.00  0.00    -0.135 C 
ATOM      3  C   UNL     1      45.228  10.532  15.042  0.00  0.00    +0.073 C 
ATOM      4  C   UNL     1      46.212  11.532  17.040  0.00  0.00    -0.043 C 
ENDBRANCH   5   4
ENDBRANCH   6   5
BRANCH  18  19
ATOM     19  C   UNL     1      42.919  20.169  20.327  0.00  0.00    +0.126 C 
BRANCH  19  20
ATOM     20  C   UNL     1      41.975  19.452  19.395  0.00  0.00    -0.059 C 
ATOM     21  C   UNL     1      41.118  20.136  18.678  0.00  0.00    -0.122 C 
ATOM     22  C   UNL     1      40.270  19.435  17.648  0.00  0.00    +0.071 C 
ATOM     23  C   UNL     1      40.980  21.623  18.883  0.00  0.00    +0.074 C 
ENDBRANCH  19  20
ENDBRANCH  18  19
TORSDOF 6
ENDMDL
MODEL 4
REMARK VINA RESULT:      -6.4      3.448      7.455
REMARK  Name = ZINC13485435
REMARK  10 active torsions:
REMARK  status: ('A' for Active; 'I' for Inactive)
REMARK    1  A    between atoms: C1_1  and  C2_2
REMARK    2  A    between atoms: C2_2  and  C25_31
REMARK    3  A    between atoms: C3_3  and  C4_4
REMARK    4  A    between atoms: C4_4  and  C5_5
REMARK    5  A    between atoms: C10_10  and  O1_11
REMARK    6  A    between atoms: C18_23  and  O4_30
REMARK    7  A    between atoms: C19_24  and  C20_25
REMARK    8  A    between atoms: C20_25  and  C21_26
REMARK    9  A    between atoms: C22_27  and  C23_28
REMARK   10  A    between atoms: C22_27  and  C24_29
REMARK                            x       y       z     vdW  Elec       q    Type
REMARK                         _______ _______ _______ _____ _____    ______ ____
ROOT
ATOM      6  C   UNL     1      48.842  19.357  19.166  0.00  0.00    -0.123 A 
ATOM      7  C   UNL     1      49.287  18.302  18.379  0.00  0.00    +0.096 A 
ATOM      8  C   UNL     1      48.489  17.181  18.313  0.00  0.00    -0.159 A 
ATOM      9  C   UNL     1      47.273  17.091  19.024  0.00  0.00    +0.110 A 
ATOM     10  O   UNL     1      46.677  15.881  18.821  0.00  0.00    -0.278 OA
ATOM     11  C   UNL     1      47.726  14.977  18.499  0.00  0.00    +0.225 C 
ATOM     12  C   UNL     1      47.434  13.806  17.622  0.00  0.00    -0.166 A 
ATOM     13  C   UNL     1      46.198  13.233  17.484  0.00  0.00    +0.086 A 
ATOM     14  C   UNL     1      46.028  12.155  16.632  0.00  0.00    -0.034 A 
ATOM     15  C   UNL     1      47.113  11.665  15.919  0.00  0.00    +0.147 A 
ATOM     18  C   UNL     1      48.365  12.240  16.062  0.00  0.00    -0.127 A 
ATOM     24  C   UNL     1      48.545  13.313  16.921  0.00  0.00    +0.163 A 
ATOM     25  O   UNL     1      49.776  13.850  17.103  0.00  0.00    -0.313 OA
ATOM     26  C   UNL     1      49.961  15.218  17.486  0.00  0.00    +0.273 C 
ATOM     27  C   UNL     1      46.835  18.154  19.803  0.00  0.00    -0.007 A 
ATOM     28  C   UNL     1      48.617  15.894  17.588  0.00  0.00    -0.016 C 
ATOM     29  C   UNL     1      47.645  19.285  19.857  0.00  0.00    +0.145 A 
ENDROOT
BRANCH  15  16
ATOM     16  O   UNL     1      46.946  10.612  15.075  0.00  0.00    -0.491 OA
ATOM     17  H   UNL     1      47.153  10.812  14.152  0.00  0.00    +0.394 HD
ENDBRANCH  15  16
BRANCH  29  30
ATOM     30  O   UNL     1      47.251  20.347  20.609  0.00  0.00    -0.490 OA
ATOM     31  H   UNL     1      47.980  20.823  21.029  0.00  0.00    +0.393 HD
ENDBRANCH  29  30
BRANCH   6   5
ATOM      5  C   UNL     1      49.680  20.606  19.268  0.00  0.00    +0.115 C 
BRANCH   5   4
ATOM      1  C   UNL     1      52.414  20.560  18.580  0.00  0.00    +0.072 C 
ATOM      2  C   UNL     1      51.382  20.949  17.553  0.00  0.00    -0.135 C 
ATOM      3  C   UNL     1      51.803  21.246  16.137  0.00  0.00    +0.073 C 
ATOM      4  C   UNL     1      50.119  21.030  17.891  0.00  0.00    -0.043 C 
ENDBRANCH   5   4
ENDBRANCH   6   5
BRANCH  18  19
ATOM     19  C   UNL     1      49.535  11.699  15.281  0.00  0.00    +0.126 C 
BRANCH  19  20
ATOM     20  C   UNL     1      49.508  12.264  13.883  0.00  0.00    -0.059 C 
ATOM     21  C   UNL     1      50.578  12.836  13.388  0.00  0.00    -0.122 C 
ATOM     22  C   UNL     1      50.597  13.277  11.947  0.00  0.00    +0.071 C 
ATOM     23  C   UNL     1      51.789  13.051  14.259  0.00  0.00    +0.074 C 
ENDBRANCH  19  20
ENDBRANCH  18  19
TORSDOF 6
ENDMDL
MODEL 5
REMARK VINA RESULT:      -6.2      2.660      8.287
REMARK  Name = ZINC13485435
REMARK  10 active torsions:
REMARK  status: ('A' for Active; 'I' for Inactive)
REMARK    1  A    between atoms: C1_1  and  C2_2
REMARK    2  A    between atoms: C2_2  and  C25_31
REMARK    3  A    between atoms: C3_3  and  C4_4
REMARK    4  A    between atoms: C4_4  and  C5_5
REMARK    5  A    between atoms: C10_10  and  O1_11
REMARK    6  A    between atoms: C18_23  and  O4_30
REMARK    7  A    between atoms: C19_24  and  C20_25
REMARK    8  A    between atoms: C20_25  and  C21_26
REMARK    9  A    between atoms: C22_27  and  C23_28
REMARK   10  A    between atoms: C22_27  and  C24_29
REMARK                            x       y       z     vdW  Elec       q    Type
REMARK                         _______ _______ _______ _____ _____    ______ ____
ROOT
ATOM      6  C   UNL     1      43.853  21.238  19.576  0.00  0.00    -0.123 A 
ATOM      7  C   UNL     1      44.458  20.080  19.099  0.00  0.00    +0.096 A 
ATOM      8  C   UNL     1      45.804  19.923  19.343  0.00  0.00    -0.159 A 
ATOM      9  C   UNL     1      46.553  20.899  20.036  0.00  0.00    +0.110 A 
ATOM     10  O   UNL     1      47.863  20.531  20.132  0.00  0.00    -0.278 OA
ATOM     11  C   UNL     1      48.109  19.666  19.031  0.00  0.00    +0.225 C 
ATOM     12  C   UNL     1      49.153  18.608  19.155  0.00  0.00    -0.166 A 
ATOM     13  C   UNL     1      50.222  18.674  20.008  0.00  0.00    +0.086 A 
ATOM     14  C   UNL     1      51.131  17.631  20.058  0.00  0.00    -0.034 A 
ATOM     15  C   UNL     1      50.948  16.520  19.246  0.00  0.00    +0.147 A 
ATOM     18  C   UNL     1      49.871  16.454  18.378  0.00  0.00    -0.127 A 
ATOM     24  C   UNL     1      48.962  17.500  18.315  0.00  0.00    +0.163 A 
ATOM     25  O   UNL     1      47.932  17.465  17.435  0.00  0.00    -0.313 OA
ATOM     26  C   UNL     1      46.703  18.162  17.671  0.00  0.00    +0.273 C 
ATOM     27  C   UNL     1      45.937  22.048  20.513  0.00  0.00    -0.007 A 
ATOM     28  C   UNL     1      46.770  18.847  19.014  0.00  0.00    -0.016 C 
ATOM     29  C   UNL     1      44.575  22.195  20.267  0.00  0.00    +0.145 A 
ENDROOT
BRANCH  15  16
ATOM     16  O   UNL     1      51.835  15.491  19.301  0.00  0.00    -0.491 OA
ATOM     17  H   UNL     1      51.538  14.692  18.844  0.00  0.00    +0.394 HD
ENDBRANCH  15  16
BRANCH  29  30
ATOM     30  O   UNL     1      43.937  23.308  20.717  0.00  0.00    -0.490 OA
ATOM     31  H   UNL     1      43.376  23.153  21.489  0.00  0.00    +0.393 HD
ENDBRANCH  29  30
BRANCH   6   5
ATOM      5  C   UNL     1      42.381  21.454  19.334  0.00  0.00    +0.115 C 
BRANCH   5   4
ATOM      1  C   UNL     1      39.679  21.444  18.528  0.00  0.00    +0.072 C 
ATOM      2  C   UNL     1      40.562  20.260  18.229  0.00  0.00    -0.135 C 
ATOM      3  C   UNL     1      40.022  19.099  17.435  0.00  0.00    +0.073 C 
ATOM      4  C   UNL     1      41.800  20.240  18.657  0.00  0.00    -0.043 C 
ENDBRANCH   5   4
ENDBRANCH   6   5
BRANCH  18  19
ATOM     19  C   UNL     1      49.683  15.242  17.503  0.00  0.00    +0.126 C 
BRANCH  19  20
ATOM     20  C   UNL     1      48.900  14.196  18.255  0.00  0.00    -0.059 C 
ATOM     21  C   UNL     1      47.838  13.656  17.711  0.00  0.00    -0.122 C 
ATOM     22  C   UNL     1      47.135  12.516  18.401  0.00  0.00    +0.071 C 
ATOM     23  C   UNL     1      47.319  14.175  16.395  0.00  0.00    +0.074 C 
ENDBRANCH  19  20
ENDBRANCH  18  19
TORSDOF 6
ENDMDL
MODEL 6
REMARK VINA RESULT:      -6.2      2.441      8.645
REMARK  Name = ZINC13485435
REMARK  10 active torsions:
REMARK  status: ('A' for Active; 'I' for Inactive)
REMARK    1  A    between atoms: C1_1  and  C2_2
REMARK    2  A    between atoms: C2_2  and  C25_31
REMARK    3  A    between atoms: C3_3  and  C4_4
REMARK    4  A    between atoms: C4_4  and  C5_5
REMARK    5  A    between atoms: C10_10  and  O1_11
REMARK    6  A    between atoms: C18_23  and  O4_30
REMARK    7  A    between atoms: C19_24  and  C20_25
REMARK    8  A    between atoms: C20_25  and  C21_26
REMARK    9  A    between atoms: C22_27  and  C23_28
REMARK   10  A    between atoms: C22_27  and  C24_29
REMARK                            x       y       z     vdW  Elec       q    Type
REMARK                         _______ _______ _______ _____ _____    ______ ____
ROOT
ATOM      6  C   UNL     1      44.882  19.950  18.790  0.00  0.00    -0.123 A 
ATOM      7  C   UNL     1      45.315  18.672  18.454  0.00  0.00    +0.096 A 
ATOM      8  C   UNL     1      46.672  18.438  18.474  0.00  0.00    -0.159 A 
ATOM      9  C   UNL     1      47.597  19.452  18.808  0.00  0.00    +0.110 A 
ATOM     10  O   UNL     1      48.877  18.987  18.735  0.00  0.00    -0.278 OA
ATOM     11  C   UNL     1      48.851  17.913  17.805  0.00  0.00    +0.225 C 
ATOM     12  C   UNL     1      49.839  16.804  17.945  0.00  0.00    -0.166 A 
ATOM     13  C   UNL     1      51.057  16.928  18.558  0.00  0.00    +0.086 A 
ATOM     14  C   UNL     1      51.898  15.831  18.650  0.00  0.00    -0.034 A 
ATOM     15  C   UNL     1      51.497  14.611  18.124  0.00  0.00    +0.147 A 
ATOM     18  C   UNL     1      50.267  14.486  17.499  0.00  0.00    -0.127 A 
ATOM     24  C   UNL     1      49.424  15.581  17.394  0.00  0.00    +0.163 A 
ATOM     25  O   UNL     1      48.241  15.479  16.743  0.00  0.00    -0.313 OA
ATOM     26  C   UNL     1      47.124  16.320  17.055  0.00  0.00    +0.273 C 
ATOM     27  C   UNL     1      47.152  20.722  19.149  0.00  0.00    -0.007 A 
ATOM     28  C   UNL     1      47.492  17.234  18.197  0.00  0.00    -0.016 C 
ATOM     29  C   UNL     1      45.779  20.948  19.132  0.00  0.00    +0.145 A 
ENDROOT
BRANCH  15  16
ATOM     16  O   UNL     1      52.318  13.532  18.222  0.00  0.00    -0.491 OA
ATOM     17  H   UNL     1      53.249  13.757  18.355  0.00  0.00    +0.394 HD
ENDBRANCH  15  16
BRANCH  29  30
ATOM     30  O   UNL     1      45.305  22.179  19.459  0.00  0.00    -0.490 OA
ATOM     31  H   UNL     1      44.647  22.171  20.166  0.00  0.00    +0.393 HD
ENDBRANCH  29  30
BRANCH   6   5
ATOM      5  C   UNL     1      43.406  20.254  18.783  0.00  0.00    +0.115 C 
BRANCH   5   4
ATOM      1  C   UNL     1      40.645  20.590  19.243  0.00  0.00    +0.072 C 
ATOM      2  C   UNL     1      41.454  19.680  20.131  0.00  0.00    -0.135 C 
ATOM      3  C   UNL     1      40.775  18.892  21.221  0.00  0.00    +0.073 C 
ATOM      4  C   UNL     1      42.747  19.573  19.954  0.00  0.00    -0.043 C 
ENDBRANCH   5   4
ENDBRANCH   6   5
BRANCH  18  19
ATOM     19  C   UNL     1      49.843  13.155  16.934  0.00  0.00    +0.126 C 
BRANCH  19  20
ATOM     20  C   UNL     1      50.404  12.999  15.543  0.00  0.00    -0.059 C 
ATOM     21  C   UNL     1      49.598  12.794  14.531  0.00  0.00    -0.122 C 
ATOM     22  C   UNL     1      50.143  12.775  13.127  0.00  0.00    +0.071 C 
ATOM     23  C   UNL     1      48.126  12.579  14.772  0.00  0.00    +0.074 C 
ENDBRANCH  19  20
ENDBRANCH  18  19
TORSDOF 6
ENDMDL
MODEL 7
REMARK VINA RESULT:      -6.0     21.389     23.561
REMARK  Name = ZINC13485435
REMARK  10 active torsions:
REMARK  status: ('A' for Active; 'I' for Inactive)
REMARK    1  A    between atoms: C1_1  and  C2_2
REMARK    2  A    between atoms: C2_2  and  C25_31
REMARK    3  A    between atoms: C3_3  and  C4_4
REMARK    4  A    between atoms: C4_4  and  C5_5
REMARK    5  A    between atoms: C10_10  and  O1_11
REMARK    6  A    between atoms: C18_23  and  O4_30
REMARK    7  A    between atoms: C19_24  and  C20_25
REMARK    8  A    between atoms: C20_25  and  C21_26
REMARK    9  A    between atoms: C22_27  and  C23_28
REMARK   10  A    between atoms: C22_27  and  C24_29
REMARK                            x       y       z     vdW  Elec       q    Type
REMARK                         _______ _______ _______ _____ _____    ______ ____
ROOT
ATOM      6  C   UNL     1      53.492  32.324   3.752  0.00  0.00    -0.123 A 
ATOM      7  C   UNL     1      52.210  32.826   3.558  0.00  0.00    +0.096 A 
ATOM      8  C   UNL     1      51.700  32.780   2.280  0.00  0.00    -0.159 A 
ATOM      9  C   UNL     1      52.445  32.260   1.199  0.00  0.00    +0.110 A 
ATOM     10  O   UNL     1      51.740  32.344   0.035  0.00  0.00    -0.278 OA
ATOM     11  C   UNL     1      50.830  33.423   0.205  0.00  0.00    +0.225 C 
ATOM     12  C   UNL     1      49.532  33.404  -0.529  0.00  0.00    -0.166 A 
ATOM     13  C   UNL     1      49.317  32.726  -1.700  0.00  0.00    +0.086 A 
ATOM     14  C   UNL     1      48.068  32.760  -2.297  0.00  0.00    -0.034 A 
ATOM     15  C   UNL     1      47.040  33.476  -1.702  0.00  0.00    +0.147 A 
ATOM     18  C   UNL     1      47.257  34.166  -0.521  0.00  0.00    -0.127 A 
ATOM     24  C   UNL     1      48.508  34.146   0.078  0.00  0.00    +0.163 A 
ATOM     25  O   UNL     1      48.741  34.857   1.208  0.00  0.00    -0.313 OA
ATOM     26  C   UNL     1      49.745  34.474   2.155  0.00  0.00    +0.273 C 
ATOM     27  C   UNL     1      53.722  31.756   1.406  0.00  0.00    -0.007 A 
ATOM     28  C   UNL     1      50.401  33.195   1.697  0.00  0.00    -0.016 C 
ATOM     29  C   UNL     1      54.227  31.800   2.702  0.00  0.00    +0.145 A 
ENDROOT
BRANCH  15  16
ATOM     16  O   UNL     1      45.811  33.503  -2.282  0.00  0.00    -0.491 OA
ATOM     17  H   UNL     1      45.752  34.085  -3.052  0.00  0.00    +0.394 HD
ENDBRANCH  15  16
BRANCH  29  30
ATOM     30  O   UNL     1      55.474  31.317   2.945  0.00  0.00    -0.490 OA
ATOM     31  H   UNL     1      55.747  31.382   3.870  0.00  0.00    +0.393 HD
ENDBRANCH  29  30
BRANCH   6   5
ATOM      5  C   UNL     1      54.094  32.352   5.134  0.00  0.00    +0.115 C 
BRANCH   5   4
ATOM      1  C   UNL     1      54.929  34.749   6.361  0.00  0.00    +0.072 C 
ATOM      2  C   UNL     1      53.534  34.228   6.591  0.00  0.00    -0.135 C 
ATOM      3  C   UNL     1      52.559  35.025   7.419  0.00  0.00    +0.073 C 
ATOM      4  C   UNL     1      53.167  33.084   6.070  0.00  0.00    -0.043 C 
ENDBRANCH   5   4
ENDBRANCH   6   5
BRANCH  18  19
ATOM     19  C   UNL     1      46.132  34.939   0.117  0.00  0.00    +0.126 C 
BRANCH  19  20
ATOM     20  C   UNL     1      45.179  33.980   0.785  0.00  0.00    -0.059 C 
ATOM     21  C   UNL     1      45.058  33.978   2.089  0.00  0.00    -0.122 C 
ATOM     22  C   UNL     1      44.010  33.119   2.747  0.00  0.00    +0.071 C 
ATOM     23  C   UNL     1      45.966  34.837   2.931  0.00  0.00    +0.074 C 
ENDBRANCH  19  20
ENDBRANCH  18  19
TORSDOF 6
ENDMDL
MODEL 8
REMARK VINA RESULT:      -5.9      3.238      5.783
REMARK  Name = ZINC13485435
REMARK  10 active torsions:
REMARK  status: ('A' for Active; 'I' for Inactive)
REMARK    1  A    between atoms: C1_1  and  C2_2
REMARK    2  A    between atoms: C2_2  and  C25_31
REMARK    3  A    between atoms: C3_3  and  C4_4
REMARK    4  A    between atoms: C4_4  and  C5_5
REMARK    5  A    between atoms: C10_10  and  O1_11
REMARK    6  A    between atoms: C18_23  and  O4_30
REMARK    7  A    between atoms: C19_24  and  C20_25
REMARK    8  A    between atoms: C20_25  and  C21_26
REMARK    9  A    between atoms: C22_27  and  C23_28
REMARK   10  A    between atoms: C22_27  and  C24_29
REMARK                            x       y       z     vdW  Elec       q    Type
REMARK                         _______ _______ _______ _____ _____    ______ ____
ROOT
ATOM      6  C   UNL     1      48.057  12.562  16.571  0.00  0.00    -0.123 A 
ATOM      7  C   UNL     1      48.464  13.863  16.843  0.00  0.00    +0.096 A 
ATOM      8  C   UNL     1      47.619  14.645  17.599  0.00  0.00    -0.159 A 
ATOM      9  C   UNL     1      46.381  14.159  18.073  0.00  0.00    +0.110 A 
ATOM     10  O   UNL     1      45.715  15.121  18.773  0.00  0.00    -0.278 OA
ATOM     11  C   UNL     1      46.185  16.366  18.273  0.00  0.00    +0.225 C 
ATOM     12  C   UNL     1      46.195  17.556  19.172  0.00  0.00    -0.166 A 
ATOM     13  C   UNL     1      45.371  17.713  20.255  0.00  0.00    +0.086 A 
ATOM     14  C   UNL     1      45.468  18.851  21.037  0.00  0.00    -0.034 A 
ATOM     15  C   UNL     1      46.405  19.825  20.721  0.00  0.00    +0.147 A 
ATOM     18  C   UNL     1      47.235  19.670  19.623  0.00  0.00    -0.127 A 
ATOM     24  C   UNL     1      47.137  18.538  18.828  0.00  0.00    +0.163 A 
ATOM     25  O   UNL     1      47.911  18.401  17.725  0.00  0.00    -0.313 OA
ATOM     26  C   UNL     1      48.278  17.118  17.205  0.00  0.00    +0.273 C 
ATOM     27  C   UNL     1      45.988  12.855  17.800  0.00  0.00    -0.007 A 
ATOM     28  C   UNL     1      47.709  16.039  18.094  0.00  0.00    -0.016 C 
ATOM     29  C   UNL     1      46.851  12.071  17.041  0.00  0.00    +0.145 A 
ENDROOT
BRANCH  15  16
ATOM     16  O   UNL     1      46.508  20.939  21.493  0.00  0.00    -0.491 OA
ATOM     17  H   UNL     1      47.378  21.359  21.463  0.00  0.00    +0.394 HD
ENDBRANCH  15  16
BRANCH  29  30
ATOM     30  O   UNL     1      46.501  10.789  16.753  0.00  0.00    -0.490 OA
ATOM     31  H   UNL     1      45.582  10.576  16.963  0.00  0.00    +0.393 HD
ENDBRANCH  29  30
BRANCH   6   5
ATOM      5  C   UNL     1      48.948  11.667  15.748  0.00  0.00    +0.115 C 
BRANCH   5   4
ATOM      1  C   UNL     1      51.455  12.518  14.778  0.00  0.00    +0.072 C 
ATOM      2  C   UNL     1      50.244  12.562  13.883  0.00  0.00    -0.135 C 
ATOM      3  C   UNL     1      50.384  12.994  12.446  0.00  0.00    +0.073 C 
ATOM      4  C   UNL     1      49.069  12.225  14.353  0.00  0.00    -0.043 C 
ENDBRANCH   5   4
ENDBRANCH   6   5
BRANCH  18  19
ATOM     19  C   UNL     1      48.249  20.734  19.291  0.00  0.00    +0.126 C 
BRANCH  19  20
ATOM     20  C   UNL     1      49.556  20.410  19.969  0.00  0.00    -0.059 C 
ATOM     21  C   UNL     1      50.689  20.653  19.358  0.00  0.00    -0.122 C 
ATOM     22  C   UNL     1      51.994  20.458  20.086  0.00  0.00    +0.071 C 
ATOM     23  C   UNL     1      50.687  21.128  17.928  0.00  0.00    +0.074 C 
ENDBRANCH  19  20
ENDBRANCH  18  19
TORSDOF 6
ENDMDL
MODEL 9
REMARK VINA RESULT:      -5.8      2.396      8.954
REMARK  Name = ZINC13485435
REMARK  10 active torsions:
REMARK  status: ('A' for Active; 'I' for Inactive)
REMARK    1  A    between atoms: C1_1  and  C2_2
REMARK    2  A    between atoms: C2_2  and  C25_31
REMARK    3  A    between atoms: C3_3  and  C4_4
REMARK    4  A    between atoms: C4_4  and  C5_5
REMARK    5  A    between atoms: C10_10  and  O1_11
REMARK    6  A    between atoms: C18_23  and  O4_30
REMARK    7  A    between atoms: C19_24  and  C20_25
REMARK    8  A    between atoms: C20_25  and  C21_26
REMARK    9  A    between atoms: C22_27  and  C23_28
REMARK   10  A    between atoms: C22_27  and  C24_29
REMARK                            x       y       z     vdW  Elec       q    Type
REMARK                         _______ _______ _______ _____ _____    ______ ____
ROOT
ATOM      6  C   UNL     1      44.663  20.009  18.673  0.00  0.00    -0.123 A 
ATOM      7  C   UNL     1      45.479  18.917  18.401  0.00  0.00    +0.096 A 
ATOM      8  C   UNL     1      46.837  19.089  18.554  0.00  0.00    -0.159 A 
ATOM      9  C   UNL     1      47.390  20.325  18.957  0.00  0.00    +0.110 A 
ATOM     10  O   UNL     1      48.751  20.255  19.013  0.00  0.00    -0.278 OA
ATOM     11  C   UNL     1      49.129  19.231  18.103  0.00  0.00    +0.225 C 
ATOM     12  C   UNL     1      50.378  18.456  18.356  0.00  0.00    -0.166 A 
ATOM     13  C   UNL     1      51.444  18.924  19.079  0.00  0.00    +0.086 A 
ATOM     14  C   UNL     1      52.554  18.120  19.269  0.00  0.00    -0.034 A 
ATOM     15  C   UNL     1      52.579  16.841  18.729  0.00  0.00    +0.147 A 
ATOM     18  C   UNL     1      51.505  16.370  17.992  0.00  0.00    -0.127 A 
ATOM     24  C   UNL     1      50.393  17.173  17.789  0.00  0.00    +0.163 A 
ATOM     25  O   UNL     1      49.359  16.737  17.030  0.00  0.00    -0.313 OA
ATOM     26  C   UNL     1      48.021  17.212  17.220  0.00  0.00    +0.273 C 
ATOM     27  C   UNL     1      46.564  21.406  19.232  0.00  0.00    -0.007 A 
ATOM     28  C   UNL     1      47.995  18.180  18.377  0.00  0.00    -0.016 C 
ATOM     29  C   UNL     1      45.193  21.221  19.081  0.00  0.00    +0.145 A 
ENDROOT
BRANCH  15  16
ATOM     16  O   UNL     1      53.666  16.048  18.922  0.00  0.00    -0.491 OA
ATOM     17  H   UNL     1      53.449  15.130  19.135  0.00  0.00    +0.394 HD
ENDBRANCH  15  16
BRANCH  29  30
ATOM     30  O   UNL     1      44.351  22.257  19.341  0.00  0.00    -0.490 OA
ATOM     31  H   UNL     1      44.472  23.016  18.755  0.00  0.00    +0.393 HD
ENDBRANCH  29  30
BRANCH   6   5
ATOM      5  C   UNL     1      43.170  19.869  18.521  0.00  0.00    +0.115 C 
BRANCH   5   4
ATOM      1  C   UNL     1      40.569  20.594  19.335  0.00  0.00    +0.072 C 
ATOM      2  C   UNL     1      41.357  19.585  20.131  0.00  0.00    -0.135 C 
ATOM      3  C   UNL     1      40.730  18.909  21.322  0.00  0.00    +0.073 C 
ATOM      4  C   UNL     1      42.588  19.296  19.787  0.00  0.00    -0.043 C 
ENDBRANCH   5   4
ENDBRANCH   6   5
BRANCH  18  19
ATOM     19  C   UNL     1      51.544  14.980  17.412  0.00  0.00    +0.126 C 
BRANCH  19  20
ATOM     20  C   UNL     1      50.763  14.044  18.300  0.00  0.00    -0.059 C 
ATOM     21  C   UNL     1      51.361  13.021  18.859  0.00  0.00    -0.122 C 
ATOM     22  C   UNL     1      50.619  12.166  19.853  0.00  0.00    +0.071 C 
ATOM     23  C   UNL     1      52.791  12.700  18.508  0.00  0.00    +0.074 C 
ENDBRANCH  19  20
ENDBRANCH  18  19
TORSDOF 6
ENDMDL
