MODEL 1
REMARK VINA RESULT:      -6.9      0.000      0.000
REMARK  Name = ZINC44431354
REMARK  16 active torsions:
REMARK  status: ('A' for Active; 'I' for Inactive)
REMARK    1  A    between atoms: C1_1  and  C2_2
REMARK    2  A    between atoms: C2_2  and  C3_3
REMARK    3  A    between atoms: C2_2  and  C4_4
REMARK    4  A    between atoms: C4_4  and  C5_5
REMARK    5  A    between atoms: C5_5  and  C6_6
REMARK    6  A    between atoms: C6_6  and  C7_8
REMARK    7  A    between atoms: C6_6  and  O7_41
REMARK    8  A    between atoms: C7_8  and  C8_9
REMARK    9  A    between atoms: C7_8  and  C9_10
REMARK   10  A    between atoms: C7_8  and  O6_40
REMARK   11  A    between atoms: C12_14  and  O5_39
REMARK   12  A    between atoms: C13_15  and  C27_38
REMARK   13  A    between atoms: C15_17  and  O4_37
REMARK   14  A    between atoms: C21_27  and  C26_36
REMARK   15  A    between atoms: C23_29  and  O3_35
REMARK   16  A    between atoms: C24_31  and  O2_34
REMARK                            x       y       z     vdW  Elec       q    Type
REMARK                         _______ _______ _______ _____ _____    ______ ____
ROOT
ATOM     11  C   UNL     1      44.409  19.535  20.188  0.00  0.00    +0.002 C 
ATOM     12  C   UNL     1      44.396  20.980  20.753  0.00  0.00    +0.024 C 
ATOM     13  C   UNL     1      45.881  21.438  20.814  0.00  0.00    +0.012 C 
ATOM     14  C   UNL     1      46.550  20.555  19.759  0.00  0.00    +0.151 C 
ATOM     17  C   UNL     1      48.027  20.331  19.907  0.00  0.00    -0.040 C 
ATOM     18  C   UNL     1      48.730  21.080  20.747  0.00  0.00    -0.084 C 
ATOM     19  C   UNL     1      50.176  20.872  20.884  0.00  0.00    +0.394 C 
ATOM     20  C   UNL     1      50.871  20.168  19.737  0.00  0.00    -0.010 C 
ATOM     21  C   UNL     1      50.063  18.909  19.392  0.00  0.00    -0.032 C 
ATOM     22  C   UNL     1      50.078  17.972  20.602  0.00  0.00    +0.033 C 
ATOM     23  C   UNL     1      50.725  18.179  18.219  0.00  0.00    +0.081 C 
ATOM     24  C   UNL     1      50.764  19.106  17.004  0.00  0.00    +0.142 C 
ATOM     27  C   UNL     1      51.567  20.363  17.341  0.00  0.00    +0.134 C 
ATOM     30  C   UNL     1      50.932  21.106  18.531  0.00  0.00    +0.063 C 
ATOM     31  O   UNL     1      50.784  21.244  21.866  0.00  0.00    -0.446 OA
ATOM     32  C   UNL     1      48.621  19.239  19.048  0.00  0.00    +0.056 C 
ATOM     33  C   UNL     1      47.784  17.961  19.084  0.00  0.00    +0.181 C 
ATOM     36  C   UNL     1      46.282  18.246  18.922  0.00  0.00    +0.019 C 
ATOM     37  C   UNL     1      45.881  19.179  20.042  0.00  0.00    -0.036 C 
ATOM     38  C   UNL     1      46.406  18.620  21.366  0.00  0.00    +0.050 C 
ENDROOT
BRANCH  11   8
ATOM      8  C   UNL     1      43.724  18.576  21.163  0.00  0.00    +0.111 C 
ATOM     39  C   UNL     1      44.262  17.160  20.949  0.00  0.00    +0.057 C 
BRANCH   8   9
ATOM      9  O   UNL     1      43.991  18.990  22.505  0.00  0.00    -0.542 OA
ATOM     10  H   UNL     1      43.215  19.320  22.977  0.00  0.00    +0.371 HD
ENDBRANCH   8   9
BRANCH   8   5
ATOM      5  C   UNL     1      42.214  18.590  20.917  0.00  0.00    +0.181 C 
BRANCH   5   6
ATOM      6  O   UNL     1      41.564  19.280  21.986  0.00  0.00    -0.551 OA
ATOM      7  H   UNL     1      41.366  18.723  22.751  0.00  0.00    +0.372 HD
ENDBRANCH   5   6
BRANCH   5   4
ATOM      4  C   UNL     1      41.920  19.304  19.596  0.00  0.00    -0.003 C 
BRANCH   4   3
ATOM      3  C   UNL     1      40.653  20.148  19.744  0.00  0.00    +0.015 C 
BRANCH   3   2
ATOM      1  C   UNL     1      39.065  21.573  18.443  0.00  0.00    +0.012 C 
ATOM      2  C   UNL     1      40.505  21.064  18.527  0.00  0.00    -0.030 C 
ATOM     40  C   UNL     1      41.460  22.253  18.663  0.00  0.00    +0.012 C 
ENDBRANCH   3   2
ENDBRANCH   4   3
ENDBRANCH   5   4
ENDBRANCH   8   5
ENDBRANCH  11   8
BRANCH  14  15
ATOM     15  O   UNL     1      46.244  21.026  18.445  0.00  0.00    -0.536 OA
ATOM     16  H   UNL     1      45.581  21.730  18.423  0.00  0.00    +0.378 HD
ENDBRANCH  14  15
BRANCH  24  25
ATOM     25  O   UNL     1      51.380  18.428  15.907  0.00  0.00    -0.561 OA
ATOM     26  H   UNL     1      50.770  17.893  15.382  0.00  0.00    +0.376 HD
ENDBRANCH  24  25
BRANCH  27  28
ATOM     28  O   UNL     1      52.902  19.992  17.697  0.00  0.00    -0.556 OA
ATOM     29  H   UNL     1      53.243  19.232  17.207  0.00  0.00    +0.381 HD
ENDBRANCH  27  28
BRANCH  33  34
ATOM     34  O   UNL     1      48.208  17.100  18.025  0.00  0.00    -0.557 OA
ATOM     35  H   UNL     1      49.136  17.210  17.777  0.00  0.00    +0.378 HD
ENDBRANCH  33  34
TORSDOF 11
ENDMDL
MODEL 2
REMARK VINA RESULT:      -6.8      1.816      7.869
REMARK  Name = ZINC44431354
REMARK  16 active torsions:
REMARK  status: ('A' for Active; 'I' for Inactive)
REMARK    1  A    between atoms: C1_1  and  C2_2
REMARK    2  A    between atoms: C2_2  and  C3_3
REMARK    3  A    between atoms: C2_2  and  C4_4
REMARK    4  A    between atoms: C4_4  and  C5_5
REMARK    5  A    between atoms: C5_5  and  C6_6
REMARK    6  A    between atoms: C6_6  and  C7_8
REMARK    7  A    between atoms: C6_6  and  O7_41
REMARK    8  A    between atoms: C7_8  and  C8_9
REMARK    9  A    between atoms: C7_8  and  C9_10
REMARK   10  A    between atoms: C7_8  and  O6_40
REMARK   11  A    between atoms: C12_14  and  O5_39
REMARK   12  A    between atoms: C13_15  and  C27_38
REMARK   13  A    between atoms: C15_17  and  O4_37
REMARK   14  A    between atoms: C21_27  and  C26_36
REMARK   15  A    between atoms: C23_29  and  O3_35
REMARK   16  A    between atoms: C24_31  and  O2_34
REMARK                            x       y       z     vdW  Elec       q    Type
REMARK                         _______ _______ _______ _____ _____    ______ ____
ROOT
ATOM     11  C   UNL     1      48.375  17.687  18.603  0.00  0.00    +0.002 C 
ATOM     12  C   UNL     1      47.898  16.211  18.613  0.00  0.00    +0.024 C 
ATOM     13  C   UNL     1      46.443  16.226  19.161  0.00  0.00    +0.012 C 
ATOM     14  C   UNL     1      45.978  17.649  18.844  0.00  0.00    +0.151 C 
ATOM     17  C   UNL     1      44.856  18.193  19.680  0.00  0.00    -0.040 C 
ATOM     18  C   UNL     1      44.150  17.377  20.454  0.00  0.00    -0.084 C 
ATOM     19  C   UNL     1      43.045  17.903  21.263  0.00  0.00    +0.394 C 
ATOM     20  C   UNL     1      42.453  19.226  20.822  0.00  0.00    -0.010 C 
ATOM     21  C   UNL     1      43.609  20.207  20.582  0.00  0.00    -0.032 C 
ATOM     22  C   UNL     1      44.340  20.434  21.907  0.00  0.00    +0.033 C 
ATOM     23  C   UNL     1      43.049  21.554  20.114  0.00  0.00    +0.081 C 
ATOM     24  C   UNL     1      42.275  21.355  18.810  0.00  0.00    +0.142 C 
ATOM     27  C   UNL     1      41.122  20.377  19.042  0.00  0.00    +0.134 C 
ATOM     30  C   UNL     1      41.657  19.019  19.532  0.00  0.00    +0.063 C 
ATOM     31  O   UNL     1      42.627  17.310  22.235  0.00  0.00    -0.446 OA
ATOM     32  C   UNL     1      44.600  19.677  19.562  0.00  0.00    +0.056 C 
ATOM     33  C   UNL     1      45.892  20.490  19.637  0.00  0.00    +0.181 C 
ATOM     36  C   UNL     1      47.004  19.894  18.759  0.00  0.00    +0.019 C 
ATOM     37  C   UNL     1      47.237  18.476  19.231  0.00  0.00    -0.036 C 
ATOM     38  C   UNL     1      47.395  18.480  20.753  0.00  0.00    +0.050 C 
ENDROOT
BRANCH  11   8
ATOM      8  C   UNL     1      49.650  17.840  19.434  0.00  0.00    +0.111 C 
ATOM     39  C   UNL     1      49.706  19.248  20.029  0.00  0.00    +0.057 C 
BRANCH   8   9
ATOM      9  O   UNL     1      49.649  16.876  20.489  0.00  0.00    -0.542 OA
ATOM     10  H   UNL     1      49.807  15.969  20.193  0.00  0.00    +0.371 HD
ENDBRANCH   8   9
BRANCH   8   5
ATOM      5  C   UNL     1      50.872  17.615  18.539  0.00  0.00    +0.181 C 
BRANCH   5   6
ATOM      6  O   UNL     1      51.221  16.230  18.551  0.00  0.00    -0.551 OA
ATOM      7  H   UNL     1      50.868  15.741  19.306  0.00  0.00    +0.372 HD
ENDBRANCH   5   6
BRANCH   5   4
ATOM      4  C   UNL     1      50.542  18.047  17.109  0.00  0.00    -0.003 C 
BRANCH   4   3
ATOM      3  C   UNL     1      51.643  18.973  16.590  0.00  0.00    +0.015 C 
BRANCH   3   2
ATOM      1  C   UNL     1      52.532  20.663  18.201  0.00  0.00    +0.012 C 
ATOM      2  C   UNL     1      51.443  20.376  17.165  0.00  0.00    -0.030 C 
ATOM     40  C   UNL     1      51.528  21.407  16.036  0.00  0.00    +0.012 C 
ENDBRANCH   3   2
ENDBRANCH   4   3
ENDBRANCH   5   4
ENDBRANCH   8   5
ENDBRANCH  11   8
BRANCH  14  15
ATOM     15  O   UNL     1      45.673  17.777  17.453  0.00  0.00    -0.536 OA
ATOM     16  H   UNL     1      46.379  17.473  16.866  0.00  0.00    +0.378 HD
ENDBRANCH  14  15
BRANCH  24  25
ATOM     25  O   UNL     1      41.753  22.610  18.369  0.00  0.00    -0.561 OA
ATOM     26  H   UNL     1      42.326  23.364  18.559  0.00  0.00    +0.376 HD
ENDBRANCH  24  25
BRANCH  27  28
ATOM     28  O   UNL     1      40.244  20.905  20.039  0.00  0.00    -0.556 OA
ATOM     29  H   UNL     1      40.389  21.841  20.235  0.00  0.00    +0.381 HD
ENDBRANCH  27  28
BRANCH  33  34
ATOM     34  O   UNL     1      45.625  21.824  19.203  0.00  0.00    -0.557 OA
ATOM     35  H   UNL     1      45.940  22.507  19.812  0.00  0.00    +0.378 HD
ENDBRANCH  33  34
TORSDOF 11
ENDMDL
MODEL 3
REMARK VINA RESULT:      -6.7      1.492      1.947
REMARK  Name = ZINC44431354
REMARK  16 active torsions:
REMARK  status: ('A' for Active; 'I' for Inactive)
REMARK    1  A    between atoms: C1_1  and  C2_2
REMARK    2  A    between atoms: C2_2  and  C3_3
REMARK    3  A    between atoms: C2_2  and  C4_4
REMARK    4  A    between atoms: C4_4  and  C5_5
REMARK    5  A    between atoms: C5_5  and  C6_6
REMARK    6  A    between atoms: C6_6  and  C7_8
REMARK    7  A    between atoms: C6_6  and  O7_41
REMARK    8  A    between atoms: C7_8  and  C8_9
REMARK    9  A    between atoms: C7_8  and  C9_10
REMARK   10  A    between atoms: C7_8  and  O6_40
REMARK   11  A    between atoms: C12_14  and  O5_39
REMARK   12  A    between atoms: C13_15  and  C27_38
REMARK   13  A    between atoms: C15_17  and  O4_37
REMARK   14  A    between atoms: C21_27  and  C26_36
REMARK   15  A    between atoms: C23_29  and  O3_35
REMARK   16  A    between atoms: C24_31  and  O2_34
REMARK                            x       y       z     vdW  Elec       q    Type
REMARK                         _______ _______ _______ _____ _____    ______ ____
ROOT
ATOM     11  C   UNL     1      44.298  19.283  20.032  0.00  0.00    +0.002 C 
ATOM     12  C   UNL     1      44.323  20.654  19.306  0.00  0.00    +0.024 C 
ATOM     13  C   UNL     1      45.797  20.890  18.871  0.00  0.00    +0.012 C 
ATOM     14  C   UNL     1      46.359  19.469  18.799  0.00  0.00    +0.151 C 
ATOM     17  C   UNL     1      47.847  19.326  18.938  0.00  0.00    -0.040 C 
ATOM     18  C   UNL     1      48.627  20.397  18.854  0.00  0.00    -0.084 C 
ATOM     19  C   UNL     1      50.082  20.259  18.976  0.00  0.00    +0.394 C 
ATOM     20  C   UNL     1      50.657  18.883  18.707  0.00  0.00    -0.010 C 
ATOM     21  C   UNL     1      49.837  17.861  19.506  0.00  0.00    -0.032 C 
ATOM     22  C   UNL     1      50.003  18.159  20.998  0.00  0.00    +0.033 C 
ATOM     23  C   UNL     1      50.377  16.451  19.242  0.00  0.00    +0.081 C 
ATOM     24  C   UNL     1      50.264  16.137  17.750  0.00  0.00    +0.142 C 
ATOM     27  C   UNL     1      51.079  17.154  16.948  0.00  0.00    +0.134 C 
ATOM     30  C   UNL     1      50.567  18.582  17.211  0.00  0.00    +0.063 C 
ATOM     31  O   UNL     1      50.789  21.197  19.279  0.00  0.00    -0.446 OA
ATOM     32  C   UNL     1      48.360  17.922  19.157  0.00  0.00    +0.056 C 
ATOM     33  C   UNL     1      47.555  17.176  20.220  0.00  0.00    +0.181 C 
ATOM     36  C   UNL     1      46.040  17.350  20.028  0.00  0.00    +0.019 C 
ATOM     37  C   UNL     1      45.749  18.834  20.081  0.00  0.00    -0.036 C 
ATOM     38  C   UNL     1      46.428  19.427  21.317  0.00  0.00    +0.050 C 
ENDROOT
BRANCH  11   8
ATOM      8  C   UNL     1      43.742  19.442  21.449  0.00  0.00    +0.111 C 
ATOM     39  C   UNL     1      44.665  18.734  22.442  0.00  0.00    +0.057 C 
BRANCH   8   9
ATOM      9  O   UNL     1      43.665  20.831  21.777  0.00  0.00    -0.542 OA
ATOM     10  H   UNL     1      42.811  21.103  22.140  0.00  0.00    +0.371 HD
ENDBRANCH   8   9
BRANCH   8   5
ATOM      5  C   UNL     1      42.344  18.823  21.521  0.00  0.00    +0.181 C 
BRANCH   5   6
ATOM      6  O   UNL     1      41.570  19.512  22.505  0.00  0.00    -0.551 OA
ATOM      7  H   UNL     1      40.693  19.780  22.199  0.00  0.00    +0.372 HD
ENDBRANCH   5   6
BRANCH   5   4
ATOM      4  C   UNL     1      41.662  18.946  20.157  0.00  0.00    -0.003 C 
BRANCH   4   3
ATOM      3  C   UNL     1      40.678  20.117  20.184  0.00  0.00    +0.015 C 
BRANCH   3   2
ATOM      1  C   UNL     1      40.688  19.666  17.727  0.00  0.00    +0.012 C 
ATOM      2  C   UNL     1      40.609  20.757  18.796  0.00  0.00    -0.030 C 
ATOM     40  C   UNL     1      39.290  21.520  18.650  0.00  0.00    +0.012 C 
ENDBRANCH   3   2
ENDBRANCH   4   3
ENDBRANCH   5   4
ENDBRANCH   8   5
ENDBRANCH  11   8
BRANCH  14  15
ATOM     15  O   UNL     1      45.900  18.809  17.617  0.00  0.00    -0.536 OA
ATOM     16  H   UNL     1      46.609  18.447  17.068  0.00  0.00    +0.378 HD
ENDBRANCH  14  15
BRANCH  24  25
ATOM     25  O   UNL     1      50.765  14.823  17.500  0.00  0.00    -0.561 OA
ATOM     26  H   UNL     1      50.319  14.129  18.004  0.00  0.00    +0.376 HD
ENDBRANCH  24  25
BRANCH  27  28
ATOM     28  O   UNL     1      52.450  17.082  17.345  0.00  0.00    -0.556 OA
ATOM     29  H   UNL     1      53.052  16.819  16.635  0.00  0.00    +0.381 HD
ENDBRANCH  27  28
BRANCH  33  34
ATOM     34  O   UNL     1      47.873  15.785  20.150  0.00  0.00    -0.557 OA
ATOM     35  H   UNL     1      48.782  15.602  19.873  0.00  0.00    +0.378 HD
ENDBRANCH  33  34
TORSDOF 11
ENDMDL
MODEL 4
REMARK VINA RESULT:      -6.5      1.890      8.160
REMARK  Name = ZINC44431354
REMARK  16 active torsions:
REMARK  status: ('A' for Active; 'I' for Inactive)
REMARK    1  A    between atoms: C1_1  and  C2_2
REMARK    2  A    between atoms: C2_2  and  C3_3
REMARK    3  A    between atoms: C2_2  and  C4_4
REMARK    4  A    between atoms: C4_4  and  C5_5
REMARK    5  A    between atoms: C5_5  and  C6_6
REMARK    6  A    between atoms: C6_6  and  C7_8
REMARK    7  A    between atoms: C6_6  and  O7_41
REMARK    8  A    between atoms: C7_8  and  C8_9
REMARK    9  A    between atoms: C7_8  and  C9_10
REMARK   10  A    between atoms: C7_8  and  O6_40
REMARK   11  A    between atoms: C12_14  and  O5_39
REMARK   12  A    between atoms: C13_15  and  C27_38
REMARK   13  A    between atoms: C15_17  and  O4_37
REMARK   14  A    between atoms: C21_27  and  C26_36
REMARK   15  A    between atoms: C23_29  and  O3_35
REMARK   16  A    between atoms: C24_31  and  O2_34
REMARK                            x       y       z     vdW  Elec       q    Type
REMARK                         _______ _______ _______ _____ _____    ______ ____
ROOT
ATOM     11  C   UNL     1      48.603  18.586  18.228  0.00  0.00    +0.002 C 
ATOM     12  C   UNL     1      48.367  17.061  18.387  0.00  0.00    +0.024 C 
ATOM     13  C   UNL     1      46.975  16.903  19.063  0.00  0.00    +0.012 C 
ATOM     14  C   UNL     1      46.268  18.207  18.688  0.00  0.00    +0.151 C 
ATOM     17  C   UNL     1      45.144  18.645  19.582  0.00  0.00    -0.040 C 
ATOM     18  C   UNL     1      44.639  17.800  20.474  0.00  0.00    -0.084 C 
ATOM     19  C   UNL     1      43.532  18.221  21.339  0.00  0.00    +0.394 C 
ATOM     20  C   UNL     1      42.706  19.397  20.861  0.00  0.00    -0.010 C 
ATOM     21  C   UNL     1      43.671  20.518  20.448  0.00  0.00    -0.032 C 
ATOM     22  C   UNL     1      44.459  20.964  21.681  0.00  0.00    +0.033 C 
ATOM     23  C   UNL     1      42.871  21.721  19.937  0.00  0.00    +0.081 C 
ATOM     24  C   UNL     1      42.038  21.297  18.727  0.00  0.00    +0.142 C 
ATOM     27  C   UNL     1      41.075  20.180  19.132  0.00  0.00    +0.134 C 
ATOM     30  C   UNL     1      41.854  18.965  19.667  0.00  0.00    +0.063 C 
ATOM     31  O   UNL     1      43.290  17.656  22.386  0.00  0.00    -0.446 OA
ATOM     32  C   UNL     1      44.650  20.058  19.382  0.00  0.00    +0.056 C 
ATOM     33  C   UNL     1      45.800  21.060  19.281  0.00  0.00    +0.181 C 
ATOM     36  C   UNL     1      46.919  20.566  18.351  0.00  0.00    +0.019 C 
ATOM     37  C   UNL     1      47.408  19.244  18.900  0.00  0.00    -0.036 C 
ATOM     38  C   UNL     1      47.684  19.401  20.396  0.00  0.00    +0.050 C 
ENDROOT
BRANCH  11   8
ATOM      8  C   UNL     1      49.900  18.998  18.927  0.00  0.00    +0.111 C 
ATOM     39  C   UNL     1      50.050  20.520  18.866  0.00  0.00    +0.057 C 
BRANCH   8   9
ATOM      9  O   UNL     1      49.860  18.578  20.292  0.00  0.00    -0.542 OA
ATOM     10  H   UNL     1      50.354  17.765  20.468  0.00  0.00    +0.371 HD
ENDBRANCH   8   9
BRANCH   8   5
ATOM      5  C   UNL     1      51.089  18.339  18.224  0.00  0.00    +0.181 C 
BRANCH   5   6
ATOM      6  O   UNL     1      51.917  19.349  17.643  0.00  0.00    -0.551 OA
ATOM      7  H   UNL     1      52.293  19.104  16.787  0.00  0.00    +0.372 HD
ENDBRANCH   5   6
BRANCH   5   4
ATOM      4  C   UNL     1      51.901  17.537  19.243  0.00  0.00    -0.003 C 
BRANCH   4   3
ATOM      3  C   UNL     1      52.640  16.405  18.526  0.00  0.00    +0.015 C 
BRANCH   3   2
ATOM      1  C   UNL     1      51.157  15.237  20.162  0.00  0.00    +0.012 C 
ATOM      2  C   UNL     1      52.006  15.064  18.902  0.00  0.00    -0.030 C 
ATOM     40  C   UNL     1      51.120  14.580  17.752  0.00  0.00    +0.012 C 
ENDBRANCH   3   2
ENDBRANCH   4   3
ENDBRANCH   5   4
ENDBRANCH   8   5
ENDBRANCH  11   8
BRANCH  14  15
ATOM     15  O   UNL     1      45.839  18.170  17.326  0.00  0.00    -0.536 OA
ATOM     16  H   UNL     1      45.699  17.278  16.981  0.00  0.00    +0.378 HD
ENDBRANCH  14  15
BRANCH  24  25
ATOM     25  O   UNL     1      41.291  22.417  18.247  0.00  0.00    -0.561 OA
ATOM     26  H   UNL     1      41.495  23.248  18.697  0.00  0.00    +0.376 HD
ENDBRANCH  24  25
BRANCH  27  28
ATOM     28  O   UNL     1      40.205  20.653  20.164  0.00  0.00    -0.556 OA
ATOM     29  H   UNL     1      40.618  21.286  20.766  0.00  0.00    +0.381 HD
ENDBRANCH  27  28
BRANCH  33  34
ATOM     34  O   UNL     1      45.292  22.298  18.780  0.00  0.00    -0.557 OA
ATOM     35  H   UNL     1      44.735  22.778  19.407  0.00  0.00    +0.378 HD
ENDBRANCH  33  34
TORSDOF 11
ENDMDL
MODEL 5
REMARK VINA RESULT:      -6.3      2.191      7.761
REMARK  Name = ZINC44431354
REMARK  16 active torsions:
REMARK  status: ('A' for Active; 'I' for Inactive)
REMARK    1  A    between atoms: C1_1  and  C2_2
REMARK    2  A    between atoms: C2_2  and  C3_3
REMARK    3  A    between atoms: C2_2  and  C4_4
REMARK    4  A    between atoms: C4_4  and  C5_5
REMARK    5  A    between atoms: C5_5  and  C6_6
REMARK    6  A    between atoms: C6_6  and  C7_8
REMARK    7  A    between atoms: C6_6  and  O7_41
REMARK    8  A    between atoms: C7_8  and  C8_9
REMARK    9  A    between atoms: C7_8  and  C9_10
REMARK   10  A    between atoms: C7_8  and  O6_40
REMARK   11  A    between atoms: C12_14  and  O5_39
REMARK   12  A    between atoms: C13_15  and  C27_38
REMARK   13  A    between atoms: C15_17  and  O4_37
REMARK   14  A    between atoms: C21_27  and  C26_36
REMARK   15  A    between atoms: C23_29  and  O3_35
REMARK   16  A    between atoms: C24_31  and  O2_34
REMARK                            x       y       z     vdW  Elec       q    Type
REMARK                         _______ _______ _______ _____ _____    ______ ____
ROOT
ATOM     11  C   UNL     1      48.961  16.295  17.280  0.00  0.00    +0.002 C 
ATOM     12  C   UNL     1      48.120  15.042  16.921  0.00  0.00    +0.024 C 
ATOM     13  C   UNL     1      46.893  15.051  17.876  0.00  0.00    +0.012 C 
ATOM     14  C   UNL     1      46.767  16.529  18.250  0.00  0.00    +0.151 C 
ATOM     17  C   UNL     1      46.062  16.840  19.539  0.00  0.00    -0.040 C 
ATOM     18  C   UNL     1      45.364  15.895  20.157  0.00  0.00    -0.084 C 
ATOM     19  C   UNL     1      44.663  16.200  21.409  0.00  0.00    +0.394 C 
ATOM     20  C   UNL     1      44.364  17.660  21.681  0.00  0.00    -0.010 C 
ATOM     21  C   UNL     1      45.652  18.461  21.445  0.00  0.00    -0.032 C 
ATOM     22  C   UNL     1      46.706  17.998  22.453  0.00  0.00    +0.033 C 
ATOM     23  C   UNL     1      45.383  19.949  21.690  0.00  0.00    +0.081 C 
ATOM     24  C   UNL     1      44.301  20.433  20.724  0.00  0.00    +0.142 C 
ATOM     27  C   UNL     1      43.014  19.638  20.953  0.00  0.00    +0.134 C 
ATOM     30  C   UNL     1      43.263  18.135  20.732  0.00  0.00    +0.063 C 
ATOM     31  O   UNL     1      44.340  15.328  22.188  0.00  0.00    -0.446 OA
ATOM     32  C   UNL     1      46.196  18.258  20.042  0.00  0.00    +0.056 C 
ATOM     33  C   UNL     1      47.640  18.756  19.979  0.00  0.00    +0.181 C 
ATOM     36  C   UNL     1      48.313  18.417  18.639  0.00  0.00    +0.019 C 
ATOM     37  C   UNL     1      48.257  16.914  18.478  0.00  0.00    -0.036 C 
ATOM     38  C   UNL     1      48.763  16.259  19.764  0.00  0.00    +0.050 C 
ENDROOT
BRANCH  11   8
ATOM      8  C   UNL     1      50.388  15.888  17.653  0.00  0.00    +0.111 C 
ATOM     39  C   UNL     1      50.348  14.901  18.822  0.00  0.00    +0.057 C 
BRANCH   8   9
ATOM      9  O   UNL     1      51.016  15.269  16.528  0.00  0.00    -0.542 OA
ATOM     10  H   UNL     1      51.330  15.894  15.860  0.00  0.00    +0.371 HD
ENDBRANCH   8   9
BRANCH   8   5
ATOM      5  C   UNL     1      51.182  17.131  18.061  0.00  0.00    +0.181 C 
BRANCH   5   6
ATOM      6  O   UNL     1      52.391  16.730  18.710  0.00  0.00    -0.551 OA
ATOM      7  H   UNL     1      52.309  15.917  19.226  0.00  0.00    +0.372 HD
ENDBRANCH   5   6
BRANCH   5   4
ATOM      4  C   UNL     1      51.519  17.951  16.815  0.00  0.00    -0.003 C 
BRANCH   4   3
ATOM      3  C   UNL     1      52.220  19.246  17.231  0.00  0.00    +0.015 C 
BRANCH   3   2
ATOM      1  C   UNL     1      51.279  21.090  18.630  0.00  0.00    +0.012 C 
ATOM      2  C   UNL     1      51.200  20.386  17.274  0.00  0.00    -0.030 C 
ATOM     40  C   UNL     1      51.510  21.388  16.159  0.00  0.00    +0.012 C 
ENDBRANCH   3   2
ENDBRANCH   4   3
ENDBRANCH   5   4
ENDBRANCH   8   5
ENDBRANCH  11   8
BRANCH  14  15
ATOM     15  O   UNL     1      46.193  17.271  17.173  0.00  0.00    -0.536 OA
ATOM     16  H   UNL     1      46.007  16.742  16.385  0.00  0.00    +0.378 HD
ENDBRANCH  14  15
BRANCH  24  25
ATOM     25  O   UNL     1      44.048  21.822  20.949  0.00  0.00    -0.561 OA
ATOM     26  H   UNL     1      43.223  22.140  20.559  0.00  0.00    +0.376 HD
ENDBRANCH  24  25
BRANCH  27  28
ATOM     28  O   UNL     1      42.570  19.831  22.299  0.00  0.00    -0.556 OA
ATOM     29  H   UNL     1      41.818  20.433  22.381  0.00  0.00    +0.381 HD
ENDBRANCH  27  28
BRANCH  33  34
ATOM     34  O   UNL     1      47.649  20.173  20.157  0.00  0.00    -0.557 OA
ATOM     35  H   UNL     1      47.049  20.488  20.847  0.00  0.00    +0.378 HD
ENDBRANCH  33  34
TORSDOF 11
ENDMDL
MODEL 6
REMARK VINA RESULT:      -6.3      1.925      3.750
REMARK  Name = ZINC44431354
REMARK  16 active torsions:
REMARK  status: ('A' for Active; 'I' for Inactive)
REMARK    1  A    between atoms: C1_1  and  C2_2
REMARK    2  A    between atoms: C2_2  and  C3_3
REMARK    3  A    between atoms: C2_2  and  C4_4
REMARK    4  A    between atoms: C4_4  and  C5_5
REMARK    5  A    between atoms: C5_5  and  C6_6
REMARK    6  A    between atoms: C6_6  and  C7_8
REMARK    7  A    between atoms: C6_6  and  O7_41
REMARK    8  A    between atoms: C7_8  and  C8_9
REMARK    9  A    between atoms: C7_8  and  C9_10
REMARK   10  A    between atoms: C7_8  and  O6_40
REMARK   11  A    between atoms: C12_14  and  O5_39
REMARK   12  A    between atoms: C13_15  and  C27_38
REMARK   13  A    between atoms: C15_17  and  O4_37
REMARK   14  A    between atoms: C21_27  and  C26_36
REMARK   15  A    between atoms: C23_29  and  O3_35
REMARK   16  A    between atoms: C24_31  and  O2_34
REMARK                            x       y       z     vdW  Elec       q    Type
REMARK                         _______ _______ _______ _____ _____    ______ ____
ROOT
ATOM     11  C   UNL     1      45.962  19.229  19.625  0.00  0.00    +0.002 C 
ATOM     12  C   UNL     1      45.555  18.587  18.272  0.00  0.00    +0.024 C 
ATOM     13  C   UNL     1      46.879  18.169  17.571  0.00  0.00    +0.012 C 
ATOM     14  C   UNL     1      47.847  18.011  18.746  0.00  0.00    +0.151 C 
ATOM     17  C   UNL     1      49.310  18.143  18.435  0.00  0.00    -0.040 C 
ATOM     18  C   UNL     1      49.723  18.125  17.173  0.00  0.00    -0.084 C 
ATOM     19  C   UNL     1      51.153  18.240  16.867  0.00  0.00    +0.394 C 
ATOM     20  C   UNL     1      52.116  17.889  17.982  0.00  0.00    -0.010 C 
ATOM     21  C   UNL     1      51.661  18.624  19.251  0.00  0.00    -0.032 C 
ATOM     22  C   UNL     1      51.754  20.131  19.003  0.00  0.00    +0.033 C 
ATOM     23  C   UNL     1      52.601  18.276  20.410  0.00  0.00    +0.081 C 
ATOM     24  C   UNL     1      52.563  16.767  20.656  0.00  0.00    +0.142 C 
ATOM     27  C   UNL     1      53.015  16.029  19.395  0.00  0.00    +0.134 C 
ATOM     30  C   UNL     1      52.096  16.377  18.209  0.00  0.00    +0.063 C 
ATOM     31  O   UNL     1      51.545  18.600  15.776  0.00  0.00    -0.446 OA
ATOM     32  C   UNL     1      50.231  18.277  19.624  0.00  0.00    +0.056 C 
ATOM     33  C   UNL     1      49.710  19.292  20.642  0.00  0.00    +0.181 C 
ATOM     36  C   UNL     1      48.211  19.110  20.928  0.00  0.00    +0.019 C 
ATOM     37  C   UNL     1      47.483  19.252  19.611  0.00  0.00    -0.036 C 
ATOM     38  C   UNL     1      47.969  20.522  18.910  0.00  0.00    +0.050 C 
ENDROOT
BRANCH  11   8
ATOM      8  C   UNL     1      45.409  20.652  19.725  0.00  0.00    +0.111 C 
ATOM     39  C   UNL     1      46.225  21.444  20.749  0.00  0.00    +0.057 C 
BRANCH   8   9
ATOM      9  O   UNL     1      45.499  21.289  18.449  0.00  0.00    -0.542 OA
ATOM     10  H   UNL     1      44.681  21.254  17.934  0.00  0.00    +0.371 HD
ENDBRANCH   8   9
BRANCH   8   5
ATOM      5  C   UNL     1      43.945  20.600  20.168  0.00  0.00    +0.181 C 
BRANCH   5   6
ATOM      6  O   UNL     1      43.611  21.812  20.848  0.00  0.00    -0.551 OA
ATOM      7  H   UNL     1      44.366  22.395  21.007  0.00  0.00    +0.372 HD
ENDBRANCH   5   6
BRANCH   5   4
ATOM      4  C   UNL     1      43.048  20.439  18.940  0.00  0.00    -0.003 C 
BRANCH   4   3
ATOM      3  C   UNL     1      41.865  21.404  19.045  0.00  0.00    +0.015 C 
BRANCH   3   2
ATOM      1  C   UNL     1      39.401  21.582  18.668  0.00  0.00    +0.012 C 
ATOM      2  C   UNL     1      40.556  20.618  18.946  0.00  0.00    -0.030 C 
ATOM     40  C   UNL     1      40.656  19.600  17.807  0.00  0.00    +0.012 C 
ENDBRANCH   3   2
ENDBRANCH   4   3
ENDBRANCH   5   4
ENDBRANCH   8   5
ENDBRANCH  11   8
BRANCH  14  15
ATOM     15  O   UNL     1      47.591  16.791  19.445  0.00  0.00    -0.536 OA
ATOM     16  H   UNL     1      47.747  16.843  20.398  0.00  0.00    +0.378 HD
ENDBRANCH  14  15
BRANCH  24  25
ATOM     25  O   UNL     1      53.438  16.439  21.738  0.00  0.00    -0.561 OA
ATOM     26  H   UNL     1      54.140  15.818  21.502  0.00  0.00    +0.376 HD
ENDBRANCH  24  25
BRANCH  27  28
ATOM     28  O   UNL     1      54.350  16.422  19.066  0.00  0.00    -0.556 OA
ATOM     29  H   UNL     1      54.621  17.260  19.463  0.00  0.00    +0.381 HD
ENDBRANCH  27  28
BRANCH  33  34
ATOM     34  O   UNL     1      50.437  19.138  21.862  0.00  0.00    -0.557 OA
ATOM     35  H   UNL     1      50.925  18.305  21.928  0.00  0.00    +0.378 HD
ENDBRANCH  33  34
TORSDOF 11
ENDMDL
MODEL 7
REMARK VINA RESULT:      -6.2      4.659      7.307
REMARK  Name = ZINC44431354
REMARK  16 active torsions:
REMARK  status: ('A' for Active; 'I' for Inactive)
REMARK    1  A    between atoms: C1_1  and  C2_2
REMARK    2  A    between atoms: C2_2  and  C3_3
REMARK    3  A    between atoms: C2_2  and  C4_4
REMARK    4  A    between atoms: C4_4  and  C5_5
REMARK    5  A    between atoms: C5_5  and  C6_6
REMARK    6  A    between atoms: C6_6  and  C7_8
REMARK    7  A    between atoms: C6_6  and  O7_41
REMARK    8  A    between atoms: C7_8  and  C8_9
REMARK    9  A    between atoms: C7_8  and  C9_10
REMARK   10  A    between atoms: C7_8  and  O6_40
REMARK   11  A    between atoms: C12_14  and  O5_39
REMARK   12  A    between atoms: C13_15  and  C27_38
REMARK   13  A    between atoms: C15_17  and  O4_37
REMARK   14  A    between atoms: C21_27  and  C26_36
REMARK   15  A    between atoms: C23_29  and  O3_35
REMARK   16  A    between atoms: C24_31  and  O2_34
REMARK                            x       y       z     vdW  Elec       q    Type
REMARK                         _______ _______ _______ _____ _____    ______ ____
ROOT
ATOM     11  C   UNL     1      49.839  14.861  17.982  0.00  0.00    +0.002 C 
ATOM     12  C   UNL     1      50.828  14.737  16.792  0.00  0.00    +0.024 C 
ATOM     13  C   UNL     1      51.421  16.157  16.569  0.00  0.00    +0.012 C 
ATOM     14  C   UNL     1      51.249  16.814  17.940  0.00  0.00    +0.151 C 
ATOM     17  C   UNL     1      51.206  18.315  17.966  0.00  0.00    -0.040 C 
ATOM     18  C   UNL     1      51.568  19.008  16.893  0.00  0.00    -0.084 C 
ATOM     19  C   UNL     1      51.540  20.474  16.921  0.00  0.00    +0.394 C 
ATOM     20  C   UNL     1      51.571  21.127  18.287  0.00  0.00    -0.010 C 
ATOM     21  C   UNL     1      50.517  20.440  19.166  0.00  0.00    -0.032 C 
ATOM     22  C   UNL     1      49.136  20.685  18.556  0.00  0.00    +0.033 C 
ATOM     23  C   UNL     1      50.533  21.061  20.567  0.00  0.00    +0.081 C 
ATOM     24  C   UNL     1      51.917  20.869  21.190  0.00  0.00    +0.142 C 
ATOM     27  C   UNL     1      52.972  21.551  20.317  0.00  0.00    +0.134 C 
ATOM     30  C   UNL     1      52.963  20.957  18.897  0.00  0.00    +0.063 C 
ATOM     31  O   UNL     1      51.493  21.131  15.901  0.00  0.00    -0.446 OA
ATOM     32  C   UNL     1      50.750  18.942  19.263  0.00  0.00    +0.056 C 
ATOM     33  C   UNL     1      49.496  18.267  19.817  0.00  0.00    +0.181 C 
ATOM     36  C   UNL     1      49.594  16.734  19.772  0.00  0.00    +0.019 C 
ATOM     37  C   UNL     1      49.819  16.341  18.329  0.00  0.00    -0.036 C 
ATOM     38  C   UNL     1      48.789  17.058  17.454  0.00  0.00    +0.050 C 
ENDROOT
BRANCH  11   8
ATOM      8  C   UNL     1      48.443  14.393  17.564  0.00  0.00    +0.111 C 
ATOM     39  C   UNL     1      47.484  14.530  18.748  0.00  0.00    +0.057 C 
BRANCH   8   9
ATOM      9  O   UNL     1      47.977  15.197  16.478  0.00  0.00    -0.542 OA
ATOM     10  H   UNL     1      48.394  14.992  15.630  0.00  0.00    +0.371 HD
ENDBRANCH   8   9
BRANCH   8   5
ATOM      5  C   UNL     1      48.507  12.929  17.124  0.00  0.00    +0.181 C 
BRANCH   5   6
ATOM      6  O   UNL     1      48.573  12.089  18.278  0.00  0.00    -0.551 OA
ATOM      7  H   UNL     1      48.522  12.567  19.117  0.00  0.00    +0.372 HD
ENDBRANCH   5   6
BRANCH   5   4
ATOM      4  C   UNL     1      47.255  12.586  16.315  0.00  0.00    -0.003 C 
BRANCH   4   3
ATOM      3  C   UNL     1      47.666  12.098  14.924  0.00  0.00    +0.015 C 
BRANCH   3   2
ATOM      1  C   UNL     1      49.555  10.483  14.669  0.00  0.00    +0.012 C 
ATOM      2  C   UNL     1      49.188  11.956  14.863  0.00  0.00    -0.030 C 
ATOM     40  C   UNL     1      49.731  12.776  13.690  0.00  0.00    +0.012 C 
ENDBRANCH   3   2
ENDBRANCH   4   3
ENDBRANCH   5   4
ENDBRANCH   8   5
ENDBRANCH  11   8
BRANCH  14  15
ATOM     15  O   UNL     1      52.231  16.325  18.856  0.00  0.00    -0.536 OA
ATOM     16  H   UNL     1      52.141  15.386  19.064  0.00  0.00    +0.378 HD
ENDBRANCH  14  15
BRANCH  24  25
ATOM     25  O   UNL     1      51.935  21.446  22.497  0.00  0.00    -0.561 OA
ATOM     26  H   UNL     1      51.220  21.142  23.071  0.00  0.00    +0.376 HD
ENDBRANCH  24  25
BRANCH  27  28
ATOM     28  O   UNL     1      52.682  22.949  20.227  0.00  0.00    -0.556 OA
ATOM     29  H   UNL     1      53.426  23.485  19.920  0.00  0.00    +0.381 HD
ENDBRANCH  27  28
BRANCH  33  34
ATOM     34  O   UNL     1      49.308  18.680  21.172  0.00  0.00    -0.557 OA
ATOM     35  H   UNL     1      49.298  17.951  21.807  0.00  0.00    +0.378 HD
ENDBRANCH  33  34
TORSDOF 11
ENDMDL
MODEL 8
REMARK VINA RESULT:      -6.1      2.312      4.190
REMARK  Name = ZINC44431354
REMARK  16 active torsions:
REMARK  status: ('A' for Active; 'I' for Inactive)
REMARK    1  A    between atoms: C1_1  and  C2_2
REMARK    2  A    between atoms: C2_2  and  C3_3
REMARK    3  A    between atoms: C2_2  and  C4_4
REMARK    4  A    between atoms: C4_4  and  C5_5
REMARK    5  A    between atoms: C5_5  and  C6_6
REMARK    6  A    between atoms: C6_6  and  C7_8
REMARK    7  A    between atoms: C6_6  and  O7_41
REMARK    8  A    between atoms: C7_8  and  C8_9
REMARK    9  A    between atoms: C7_8  and  C9_10
REMARK   10  A    between atoms: C7_8  and  O6_40
REMARK   11  A    between atoms: C12_14  and  O5_39
REMARK   12  A    between atoms: C13_15  and  C27_38
REMARK   13  A    between atoms: C15_17  and  O4_37
REMARK   14  A    between atoms: C21_27  and  C26_36
REMARK   15  A    between atoms: C23_29  and  O3_35
REMARK   16  A    between atoms: C24_31  and  O2_34
REMARK                            x       y       z     vdW  Elec       q    Type
REMARK                         _______ _______ _______ _____ _____    ______ ____
ROOT
ATOM     11  C   UNL     1      44.894  18.212  21.632  0.00  0.00    +0.002 C 
ATOM     12  C   UNL     1      44.158  16.871  21.889  0.00  0.00    +0.024 C 
ATOM     13  C   UNL     1      44.789  15.834  20.916  0.00  0.00    +0.012 C 
ATOM     14  C   UNL     1      46.174  16.424  20.645  0.00  0.00    +0.151 C 
ATOM     17  C   UNL     1      46.847  16.005  19.371  0.00  0.00    -0.040 C 
ATOM     18  C   UNL     1      46.370  14.978  18.676  0.00  0.00    -0.084 C 
ATOM     19  C   UNL     1      47.034  14.557  17.437  0.00  0.00    +0.394 C 
ATOM     20  C   UNL     1      48.477  14.981  17.264  0.00  0.00    -0.010 C 
ATOM     21  C   UNL     1      48.574  16.481  17.576  0.00  0.00    -0.032 C 
ATOM     22  C   UNL     1      47.730  17.248  16.555  0.00  0.00    +0.033 C 
ATOM     23  C   UNL     1      50.027  16.943  17.432  0.00  0.00    +0.081 C 
ATOM     24  C   UNL     1      50.906  16.164  18.412  0.00  0.00    +0.142 C 
ATOM     27  C   UNL     1      50.813  14.667  18.107  0.00  0.00    +0.134 C 
ATOM     30  C   UNL     1      49.358  14.182  18.226  0.00  0.00    +0.063 C 
ATOM     31  O   UNL     1      46.456  13.905  16.594  0.00  0.00    -0.446 OA
ATOM     32  C   UNL     1      48.065  16.803  18.970  0.00  0.00    +0.056 C 
ATOM     33  C   UNL     1      47.830  18.308  19.091  0.00  0.00    +0.181 C 
ATOM     36  C   UNL     1      47.145  18.684  20.415  0.00  0.00    +0.019 C 
ATOM     37  C   UNL     1      45.834  17.932  20.470  0.00  0.00    -0.036 C 
ATOM     38  C   UNL     1      45.090  18.137  19.149  0.00  0.00    +0.050 C 
ENDROOT
BRANCH  11   8
ATOM      8  C   UNL     1      43.892  19.304  21.255  0.00  0.00    +0.111 C 
ATOM     39  C   UNL     1      44.022  20.475  22.231  0.00  0.00    +0.057 C 
BRANCH   8   9
ATOM      9  O   UNL     1      44.160  19.759  19.926  0.00  0.00    -0.542 OA
ATOM     10  H   UNL     1      44.245  20.719  19.849  0.00  0.00    +0.371 HD
ENDBRANCH   8   9
BRANCH   8   5
ATOM      5  C   UNL     1      42.471  18.739  21.323  0.00  0.00    +0.181 C 
BRANCH   5   6
ATOM      6  O   UNL     1      41.741  19.411  22.351  0.00  0.00    -0.551 OA
ATOM      7  H   UNL     1      40.995  18.904  22.700  0.00  0.00    +0.372 HD
ENDBRANCH   5   6
BRANCH   5   4
ATOM      4  C   UNL     1      41.773  18.952  19.978  0.00  0.00    -0.003 C 
BRANCH   4   3
ATOM      3  C   UNL     1      40.738  20.071  20.114  0.00  0.00    +0.015 C 
BRANCH   3   2
ATOM      1  C   UNL     1      39.289  21.448  18.615  0.00  0.00    +0.012 C 
ATOM      2  C   UNL     1      40.698  20.887  18.820  0.00  0.00    -0.030 C 
ATOM     40  C   UNL     1      41.698  22.041  18.914  0.00  0.00    +0.012 C 
ENDBRANCH   3   2
ENDBRANCH   4   3
ENDBRANCH   5   4
ENDBRANCH   8   5
ENDBRANCH  11   8
BRANCH  14  15
ATOM     15  O   UNL     1      47.037  16.208  21.763  0.00  0.00    -0.536 OA
ATOM     16  H   UNL     1      46.615  15.754  22.505  0.00  0.00    +0.378 HD
ENDBRANCH  14  15
BRANCH  24  25
ATOM     25  O   UNL     1      52.262  16.593  18.281  0.00  0.00    -0.561 OA
ATOM     26  H   UNL     1      52.444  17.453  18.684  0.00  0.00    +0.376 HD
ENDBRANCH  24  25
BRANCH  27  28
ATOM     28  O   UNL     1      51.264  14.426  16.771  0.00  0.00    -0.556 OA
ATOM     29  H   UNL     1      51.680  15.192  16.353  0.00  0.00    +0.381 HD
ENDBRANCH  27  28
BRANCH  33  34
ATOM     34  O   UNL     1      49.089  18.980  19.014  0.00  0.00    -0.557 OA
ATOM     35  H   UNL     1      49.838  18.395  18.838  0.00  0.00    +0.378 HD
ENDBRANCH  33  34
TORSDOF 11
ENDMDL
MODEL 9
REMARK VINA RESULT:      -6.0      3.618      6.728
REMARK  Name = ZINC44431354
REMARK  16 active torsions:
REMARK  status: ('A' for Active; 'I' for Inactive)
REMARK    1  A    between atoms: C1_1  and  C2_2
REMARK    2  A    between atoms: C2_2  and  C3_3
REMARK    3  A    between atoms: C2_2  and  C4_4
REMARK    4  A    between atoms: C4_4  and  C5_5
REMARK    5  A    between atoms: C5_5  and  C6_6
REMARK    6  A    between atoms: C6_6  and  C7_8
REMARK    7  A    between atoms: C6_6  and  O7_41
REMARK    8  A    between atoms: C7_8  and  C8_9
REMARK    9  A    between atoms: C7_8  and  C9_10
REMARK   10  A    between atoms: C7_8  and  O6_40
REMARK   11  A    between atoms: C12_14  and  O5_39
REMARK   12  A    between atoms: C13_15  and  C27_38
REMARK   13  A    between atoms: C15_17  and  O4_37
REMARK   14  A    between atoms: C21_27  and  C26_36
REMARK   15  A    between atoms: C23_29  and  O3_35
REMARK   16  A    between atoms: C24_31  and  O2_34
REMARK                            x       y       z     vdW  Elec       q    Type
REMARK                         _______ _______ _______ _____ _____    ______ ____
ROOT
ATOM     11  C   UNL     1      45.818  15.323  20.146  0.00  0.00    +0.002 C 
ATOM     12  C   UNL     1      46.461  15.037  21.528  0.00  0.00    +0.024 C 
ATOM     13  C   UNL     1      46.890  16.417  22.104  0.00  0.00    +0.012 C 
ATOM     14  C   UNL     1      45.959  17.389  21.377  0.00  0.00    +0.151 C 
ATOM     17  C   UNL     1      46.426  18.812  21.266  0.00  0.00    -0.040 C 
ATOM     18  C   UNL     1      47.453  19.231  21.996  0.00  0.00    -0.084 C 
ATOM     19  C   UNL     1      47.903  20.624  21.900  0.00  0.00    +0.394 C 
ATOM     20  C   UNL     1      46.901  21.625  21.361  0.00  0.00    -0.010 C 
ATOM     21  C   UNL     1      46.297  21.046  20.073  0.00  0.00    -0.032 C 
ATOM     22  C   UNL     1      47.413  20.889  19.038  0.00  0.00    +0.033 C 
ATOM     23  C   UNL     1      45.261  22.022  19.508  0.00  0.00    +0.081 C 
ATOM     24  C   UNL     1      44.151  22.234  20.539  0.00  0.00    +0.142 C 
ATOM     27  C   UNL     1      44.746  22.810  21.824  0.00  0.00    +0.134 C 
ATOM     30  C   UNL     1      45.806  21.855  22.403  0.00  0.00    +0.063 C 
ATOM     31  O   UNL     1      49.020  20.959  22.234  0.00  0.00    -0.446 OA
ATOM     32  C   UNL     1      45.655  19.690  20.309  0.00  0.00    +0.056 C 
ATOM     33  C   UNL     1      45.413  19.001  18.966  0.00  0.00    +0.181 C 
ATOM     36  C   UNL     1      44.932  17.551  19.136  0.00  0.00    +0.019 C 
ATOM     37  C   UNL     1      45.990  16.818  19.930  0.00  0.00    -0.036 C 
ATOM     38  C   UNL     1      47.358  17.092  19.303  0.00  0.00    +0.050 C 
ENDROOT
BRANCH  11   8
ATOM      8  C   UNL     1      46.545  14.541  19.050  0.00  0.00    +0.111 C 
ATOM     39  C   UNL     1      46.476  15.321  17.735  0.00  0.00    +0.057 C 
BRANCH   8   9
ATOM      9  O   UNL     1      47.912  14.356  19.423  0.00  0.00    -0.542 OA
ATOM     10  H   UNL     1      48.063  14.362  20.378  0.00  0.00    +0.371 HD
ENDBRANCH   8   9
BRANCH   8   5
ATOM      5  C   UNL     1      45.876  13.176  18.868  0.00  0.00    +0.181 C 
BRANCH   5   6
ATOM      6  O   UNL     1      44.490  13.278  19.201  0.00  0.00    -0.551 OA
ATOM      7  H   UNL     1      44.310  13.839  19.968  0.00  0.00    +0.372 HD
ENDBRANCH   5   6
BRANCH   5   4
ATOM      4  C   UNL     1      46.020  12.728  17.413  0.00  0.00    -0.003 C 
BRANCH   4   3
ATOM      3  C   UNL     1      46.734  11.375  17.365  0.00  0.00    +0.015 C 
BRANCH   3   2
ATOM      1  C   UNL     1      45.659  10.534  15.272  0.00  0.00    +0.012 C 
ATOM      2  C   UNL     1      46.978  10.979  15.907  0.00  0.00    -0.030 C 
ATOM     40  C   UNL     1      47.535  12.179  15.139  0.00  0.00    +0.012 C 
ENDBRANCH   3   2
ENDBRANCH   4   3
ENDBRANCH   5   4
ENDBRANCH   8   5
ENDBRANCH  11   8
BRANCH  14  15
ATOM     15  O   UNL     1      44.645  17.335  21.934  0.00  0.00    -0.536 OA
ATOM     16  H   UNL     1      44.064  16.689  21.511  0.00  0.00    +0.378 HD
ENDBRANCH  14  15
BRANCH  24  25
ATOM     25  O   UNL     1      43.181  23.144  20.014  0.00  0.00    -0.561 OA
ATOM     26  H   UNL     1      43.563  23.914  19.572  0.00  0.00    +0.376 HD
ENDBRANCH  24  25
BRANCH  27  28
ATOM     28  O   UNL     1      45.373  24.064  21.538  0.00  0.00    -0.556 OA
ATOM     29  H   UNL     1      45.561  24.203  20.600  0.00  0.00    +0.381 HD
ENDBRANCH  27  28
BRANCH  33  34
ATOM     34  O   UNL     1      44.424  19.735  18.241  0.00  0.00    -0.557 OA
ATOM     35  H   UNL     1      44.790  20.357  17.596  0.00  0.00    +0.378 HD
ENDBRANCH  33  34
TORSDOF 11
ENDMDL
