MODEL 1
REMARK VINA RESULT:      -6.2      0.000      0.000
REMARK  Name = ZINC95486294
REMARK  8 active torsions:
REMARK  status: ('A' for Active; 'I' for Inactive)
REMARK    1  A    between atoms: C1_1  and  O1_2
REMARK    2  A    between atoms: O1_2  and  C2_3
REMARK    3  A    between atoms: C4_5  and  O7_24
REMARK    4  A    between atoms: C9_11  and  O6_22
REMARK    5  A    between atoms: C10_12  and  O4_14
REMARK    6  A    between atoms: O4_14  and  C11_15
REMARK    7  A    between atoms: C14_18  and  O5_21
REMARK    8  A    between atoms: O6_22  and  C17_23
REMARK                            x       y       z     vdW  Elec       q    Type
REMARK                         _______ _______ _______ _____ _____    ______ ____
ROOT
ATOM      3  C   UNL     1      44.210  21.231  19.492  0.00  0.00    +0.240 A 
ATOM      4  C   UNL     1      43.977  22.384  20.220  0.00  0.00    -0.120 A 
ATOM      5  C   UNL     1      45.016  22.992  20.915  0.00  0.00    +0.220 A 
ATOM      8  C   UNL     1      46.294  22.456  20.887  0.00  0.00    -0.056 A 
ATOM      9  C   UNL     1      46.547  21.301  20.162  0.00  0.00    +0.216 A 
ATOM     10  O   UNL     1      47.785  20.766  20.124  0.00  0.00    -0.231 OA
ATOM     11  C   UNL     1      48.059  19.642  19.447  0.00  0.00    +0.220 A 
ATOM     21  C   UNL     1      47.117  18.970  18.735  0.00  0.00    -0.073 A 
ATOM     24  C   UNL     1      45.788  19.452  18.706  0.00  0.00    +0.443 A 
ATOM     25  O   UNL     1      44.916  18.874  18.076  0.00  0.00    -0.424 OA
ATOM     26  C   UNL     1      45.497  20.681  19.464  0.00  0.00    -0.262 A 
ENDROOT
BRANCH   3   2
ATOM      1  C   UNL     1      41.878  21.133  19.047  0.00  0.00    +0.253 C 
ATOM      2  O   UNL     1      43.197  20.635  18.813  0.00  0.00    -0.277 OA
ENDBRANCH   3   2
BRANCH   5   6
ATOM      6  O   UNL     1      44.777  24.124  21.627  0.00  0.00    -0.488 OA
ATOM      7  H   UNL     1      43.891  24.165  22.014  0.00  0.00    +0.405 HD
ENDBRANCH   5   6
BRANCH  21  22
ATOM     22  O   UNL     1      47.450  17.837  18.053  0.00  0.00    -0.285 OA
ATOM     23  C   UNL     1      47.324  16.598  18.755  0.00  0.00    +0.258 C 
ENDBRANCH  21  22
BRANCH  11  12
ATOM     12  O   UNL     1      49.324  19.166  19.462  0.00  0.00    -0.207 OA
BRANCH  12  13
ATOM     13  C   UNL     1      50.157  19.533  18.453  0.00  0.00    +0.041 A 
ATOM     14  C   UNL     1      50.444  20.875  18.244  0.00  0.00    +0.040 A 
ATOM     15  C   UNL     1      51.291  21.249  17.219  0.00  0.00    +0.007 A 
ATOM     16  C   UNL     1      51.853  20.283  16.397  0.00  0.00    +0.122 A 
ATOM     19  C   UNL     1      51.566  18.942  16.606  0.00  0.00    +0.008 A 
ATOM     20  C   UNL     1      50.725  18.568  17.635  0.00  0.00    +0.048 A 
BRANCH  16  17
ATOM     17  O   UNL     1      52.687  20.651  15.388  0.00  0.00    -0.497 OA
ATOM     18  H   UNL     1      53.353  19.986  15.165  0.00  0.00    +0.397 HD
ENDBRANCH  16  17
ENDBRANCH  12  13
ENDBRANCH  11  12
TORSDOF 6
ENDMDL
MODEL 2
REMARK VINA RESULT:      -6.1      3.657      4.855
REMARK  Name = ZINC95486294
REMARK  8 active torsions:
REMARK  status: ('A' for Active; 'I' for Inactive)
REMARK    1  A    between atoms: C1_1  and  O1_2
REMARK    2  A    between atoms: O1_2  and  C2_3
REMARK    3  A    between atoms: C4_5  and  O7_24
REMARK    4  A    between atoms: C9_11  and  O6_22
REMARK    5  A    between atoms: C10_12  and  O4_14
REMARK    6  A    between atoms: O4_14  and  C11_15
REMARK    7  A    between atoms: C14_18  and  O5_21
REMARK    8  A    between atoms: O6_22  and  C17_23
REMARK                            x       y       z     vdW  Elec       q    Type
REMARK                         _______ _______ _______ _____ _____    ______ ____
ROOT
ATOM      3  C   UNL     1      43.450  22.579  19.498  0.00  0.00    +0.240 A 
ATOM      4  C   UNL     1      42.177  22.798  19.004  0.00  0.00    -0.120 A 
ATOM      5  C   UNL     1      41.351  21.720  18.703  0.00  0.00    +0.220 A 
ATOM      8  C   UNL     1      41.789  20.420  18.895  0.00  0.00    -0.056 A 
ATOM      9  C   UNL     1      43.062  20.181  19.390  0.00  0.00    +0.216 A 
ATOM     10  O   UNL     1      43.504  18.920  19.583  0.00  0.00    -0.231 OA
ATOM     11  C   UNL     1      44.735  18.656  20.045  0.00  0.00    +0.220 A 
ATOM     21  C   UNL     1      45.619  19.634  20.369  0.00  0.00    -0.073 A 
ATOM     24  C   UNL     1      45.251  20.990  20.208  0.00  0.00    +0.443 A 
ATOM     25  O   UNL     1      46.020  21.896  20.491  0.00  0.00    -0.424 OA
ATOM     26  C   UNL     1      43.901  21.268  19.689  0.00  0.00    -0.262 A 
ENDROOT
BRANCH   3   2
ATOM      1  C   UNL     1      44.418  24.628  18.782  0.00  0.00    +0.253 C 
ATOM      2  O   UNL     1      44.258  23.629  19.792  0.00  0.00    -0.277 OA
ENDBRANCH   3   2
BRANCH   5   6
ATOM      6  O   UNL     1      40.103  21.945  18.217  0.00  0.00    -0.488 OA
ATOM      7  H   UNL     1      40.086  22.227  17.292  0.00  0.00    +0.405 HD
ENDBRANCH   5   6
BRANCH  21  22
ATOM     22  O   UNL     1      46.855  19.312  20.846  0.00  0.00    -0.285 OA
ATOM     23  C   UNL     1      46.990  19.184  22.263  0.00  0.00    +0.258 C 
ENDBRANCH  21  22
BRANCH  11  12
ATOM     12  O   UNL     1      45.105  17.366  20.205  0.00  0.00    -0.207 OA
BRANCH  12  13
ATOM     13  C   UNL     1      45.587  16.700  19.122  0.00  0.00    +0.041 A 
ATOM     14  C   UNL     1      45.934  17.401  17.975  0.00  0.00    +0.040 A 
ATOM     15  C   UNL     1      46.424  16.725  16.875  0.00  0.00    +0.007 A 
ATOM     16  C   UNL     1      46.567  15.346  16.915  0.00  0.00    +0.122 A 
ATOM     19  C   UNL     1      46.219  14.646  18.061  0.00  0.00    +0.008 A 
ATOM     20  C   UNL     1      45.736  15.322  19.163  0.00  0.00    +0.048 A 
BRANCH  16  17
ATOM     17  O   UNL     1      47.049  14.680  15.832  0.00  0.00    -0.497 OA
ATOM     18  H   UNL     1      46.488  14.745  15.047  0.00  0.00    +0.397 HD
ENDBRANCH  16  17
ENDBRANCH  12  13
ENDBRANCH  11  12
TORSDOF 6
ENDMDL
MODEL 3
REMARK VINA RESULT:      -6.1      3.544      7.631
REMARK  Name = ZINC95486294
REMARK  8 active torsions:
REMARK  status: ('A' for Active; 'I' for Inactive)
REMARK    1  A    between atoms: C1_1  and  O1_2
REMARK    2  A    between atoms: O1_2  and  C2_3
REMARK    3  A    between atoms: C4_5  and  O7_24
REMARK    4  A    between atoms: C9_11  and  O6_22
REMARK    5  A    between atoms: C10_12  and  O4_14
REMARK    6  A    between atoms: O4_14  and  C11_15
REMARK    7  A    between atoms: C14_18  and  O5_21
REMARK    8  A    between atoms: O6_22  and  C17_23
REMARK                            x       y       z     vdW  Elec       q    Type
REMARK                         _______ _______ _______ _____ _____    ______ ____
ROOT
ATOM      3  C   UNL     1      45.887  15.002  19.528  0.00  0.00    +0.240 A 
ATOM      4  C   UNL     1      45.648  13.995  20.446  0.00  0.00    -0.120 A 
ATOM      5  C   UNL     1      44.936  14.266  21.608  0.00  0.00    +0.220 A 
ATOM      8  C   UNL     1      44.456  15.541  21.862  0.00  0.00    -0.056 A 
ATOM      9  C   UNL     1      44.685  16.564  20.953  0.00  0.00    +0.216 A 
ATOM     10  O   UNL     1      44.225  17.811  21.185  0.00  0.00    -0.231 OA
ATOM     11  C   UNL     1      44.444  18.824  20.335  0.00  0.00    +0.220 A 
ATOM     21  C   UNL     1      45.127  18.667  19.171  0.00  0.00    -0.073 A 
ATOM     24  C   UNL     1      45.646  17.395  18.832  0.00  0.00    +0.443 A 
ATOM     25  O   UNL     1      46.264  17.218  17.795  0.00  0.00    -0.424 OA
ATOM     26  C   UNL     1      45.410  16.293  19.780  0.00  0.00    -0.262 A 
ENDROOT
BRANCH   3   2
ATOM      1  C   UNL     1      46.153  13.621  17.613  0.00  0.00    +0.253 C 
ATOM      2  O   UNL     1      46.582  14.740  18.392  0.00  0.00    -0.277 OA
ENDBRANCH   3   2
BRANCH   5   6
ATOM      6  O   UNL     1      44.707  13.271  22.504  0.00  0.00    -0.488 OA
ATOM      7  H   UNL     1      44.596  12.398  22.102  0.00  0.00    +0.405 HD
ENDBRANCH   5   6
BRANCH  21  22
ATOM     22  O   UNL     1      45.312  19.728  18.335  0.00  0.00    -0.285 OA
ATOM     23  C   UNL     1      46.388  20.616  18.644  0.00  0.00    +0.258 C 
ENDBRANCH  21  22
BRANCH  11  12
ATOM     12  O   UNL     1      43.955  20.046  20.642  0.00  0.00    -0.207 OA
BRANCH  12  13
ATOM     13  C   UNL     1      42.846  20.474  19.982  0.00  0.00    +0.041 A 
ATOM     14  C   UNL     1      41.734  19.648  19.885  0.00  0.00    +0.040 A 
ATOM     15  C   UNL     1      40.607  20.083  19.216  0.00  0.00    +0.007 A 
ATOM     16  C   UNL     1      40.587  21.345  18.639  0.00  0.00    +0.122 A 
ATOM     19  C   UNL     1      41.698  22.170  18.736  0.00  0.00    +0.008 A 
ATOM     20  C   UNL     1      42.822  21.738  19.411  0.00  0.00    +0.048 A 
BRANCH  16  17
ATOM     17  O   UNL     1      39.477  21.772  17.980  0.00  0.00    -0.497 OA
ATOM     18  H   UNL     1      38.646  21.543  18.418  0.00  0.00    +0.397 HD
ENDBRANCH  16  17
ENDBRANCH  12  13
ENDBRANCH  11  12
TORSDOF 6
ENDMDL
MODEL 4
REMARK VINA RESULT:      -6.0      1.946      6.691
REMARK  Name = ZINC95486294
REMARK  8 active torsions:
REMARK  status: ('A' for Active; 'I' for Inactive)
REMARK    1  A    between atoms: C1_1  and  O1_2
REMARK    2  A    between atoms: O1_2  and  C2_3
REMARK    3  A    between atoms: C4_5  and  O7_24
REMARK    4  A    between atoms: C9_11  and  O6_22
REMARK    5  A    between atoms: C10_12  and  O4_14
REMARK    6  A    between atoms: O4_14  and  C11_15
REMARK    7  A    between atoms: C14_18  and  O5_21
REMARK    8  A    between atoms: O6_22  and  C17_23
REMARK                            x       y       z     vdW  Elec       q    Type
REMARK                         _______ _______ _______ _____ _____    ______ ____
ROOT
ATOM      3  C   UNL     1      51.329  18.490  17.663  0.00  0.00    +0.240 A 
ATOM      4  C   UNL     1      51.981  19.281  16.735  0.00  0.00    -0.120 A 
ATOM      5  C   UNL     1      51.788  20.658  16.735  0.00  0.00    +0.220 A 
ATOM      8  C   UNL     1      50.946  21.254  17.661  0.00  0.00    -0.056 A 
ATOM      9  C   UNL     1      50.284  20.476  18.600  0.00  0.00    +0.216 A 
ATOM     10  O   UNL     1      49.461  21.040  19.508  0.00  0.00    -0.231 OA
ATOM     11  C   UNL     1      48.795  20.315  20.418  0.00  0.00    +0.220 A 
ATOM     21  C   UNL     1      48.912  18.965  20.504  0.00  0.00    -0.073 A 
ATOM     24  C   UNL     1      49.756  18.278  19.600  0.00  0.00    +0.443 A 
ATOM     25  O   UNL     1      49.886  17.065  19.650  0.00  0.00    -0.424 OA
ATOM     26  C   UNL     1      50.473  19.084  18.598  0.00  0.00    -0.262 A 
ENDROOT
BRANCH   3   2
ATOM      1  C   UNL     1      51.759  16.522  16.403  0.00  0.00    +0.253 C 
ATOM      2  O   UNL     1      51.516  17.145  17.666  0.00  0.00    -0.277 OA
ENDBRANCH   3   2
BRANCH   5   6
ATOM      6  O   UNL     1      52.432  21.427  15.819  0.00  0.00    -0.488 OA
ATOM      7  H   UNL     1      53.060  22.054  16.204  0.00  0.00    +0.405 HD
ENDBRANCH   5   6
BRANCH  21  22
ATOM     22  O   UNL     1      48.222  18.275  21.456  0.00  0.00    -0.285 OA
ATOM     23  C   UNL     1      46.943  17.758  21.081  0.00  0.00    +0.258 C 
ENDBRANCH  21  22
BRANCH  11  12
ATOM     12  O   UNL     1      47.984  20.954  21.290  0.00  0.00    -0.207 OA
BRANCH  12  13
ATOM     13  C   UNL     1      46.916  21.632  20.791  0.00  0.00    +0.041 A 
ATOM     14  C   UNL     1      46.218  21.124  19.705  0.00  0.00    +0.040 A 
ATOM     15  C   UNL     1      45.134  21.812  19.197  0.00  0.00    +0.007 A 
ATOM     16  C   UNL     1      44.743  23.012  19.774  0.00  0.00    +0.122 A 
ATOM     19  C   UNL     1      45.441  23.520  20.860  0.00  0.00    +0.008 A 
ATOM     20  C   UNL     1      46.521  22.829  21.371  0.00  0.00    +0.048 A 
BRANCH  16  17
ATOM     17  O   UNL     1      43.674  23.689  19.275  0.00  0.00    -0.497 OA
ATOM     18  H   UNL     1      43.090  23.152  18.723  0.00  0.00    +0.397 HD
ENDBRANCH  16  17
ENDBRANCH  12  13
ENDBRANCH  11  12
TORSDOF 6
ENDMDL
MODEL 5
REMARK VINA RESULT:      -5.8      1.873      6.512
REMARK  Name = ZINC95486294
REMARK  8 active torsions:
REMARK  status: ('A' for Active; 'I' for Inactive)
REMARK    1  A    between atoms: C1_1  and  O1_2
REMARK    2  A    between atoms: O1_2  and  C2_3
REMARK    3  A    between atoms: C4_5  and  O7_24
REMARK    4  A    between atoms: C9_11  and  O6_22
REMARK    5  A    between atoms: C10_12  and  O4_14
REMARK    6  A    between atoms: O4_14  and  C11_15
REMARK    7  A    between atoms: C14_18  and  O5_21
REMARK    8  A    between atoms: O6_22  and  C17_23
REMARK                            x       y       z     vdW  Elec       q    Type
REMARK                         _______ _______ _______ _____ _____    ______ ____
ROOT
ATOM      3  C   UNL     1      51.804  19.677  18.040  0.00  0.00    +0.240 A 
ATOM      4  C   UNL     1      52.637  20.665  18.534  0.00  0.00    -0.120 A 
ATOM      5  C   UNL     1      52.236  21.438  19.619  0.00  0.00    +0.220 A 
ATOM      8  C   UNL     1      51.004  21.228  20.218  0.00  0.00    -0.056 A 
ATOM      9  C   UNL     1      50.156  20.242  19.737  0.00  0.00    +0.216 A 
ATOM     10  O   UNL     1      48.953  20.025  20.309  0.00  0.00    -0.231 OA
ATOM     11  C   UNL     1      48.103  19.091  19.858  0.00  0.00    +0.220 A 
ATOM     21  C   UNL     1      48.397  18.283  18.806  0.00  0.00    -0.073 A 
ATOM     24  C   UNL     1      49.637  18.426  18.140  0.00  0.00    +0.443 A 
ATOM     25  O   UNL     1      49.935  17.717  17.192  0.00  0.00    -0.424 OA
ATOM     26  C   UNL     1      50.557  19.464  18.638  0.00  0.00    -0.262 A 
ENDROOT
BRANCH   3   2
ATOM      1  C   UNL     1      52.290  19.579  15.717  0.00  0.00    +0.253 C 
ATOM      2  O   UNL     1      52.194  18.922  16.982  0.00  0.00    -0.277 OA
ENDBRANCH   3   2
BRANCH   5   6
ATOM      6  O   UNL     1      53.060  22.406  20.096  0.00  0.00    -0.488 OA
ATOM      7  H   UNL     1      52.806  22.744  20.966  0.00  0.00    +0.405 HD
ENDBRANCH   5   6
BRANCH  21  22
ATOM     22  O   UNL     1      47.504  17.340  18.394  0.00  0.00    -0.285 OA
ATOM     23  C   UNL     1      46.622  17.704  17.329  0.00  0.00    +0.258 C 
ENDBRANCH  21  22
BRANCH  11  12
ATOM     12  O   UNL     1      46.914  18.939  20.482  0.00  0.00    -0.207 OA
BRANCH  12  13
ATOM     13  C   UNL     1      46.079  20.010  20.534  0.00  0.00    +0.041 A 
ATOM     14  C   UNL     1      45.647  20.494  21.760  0.00  0.00    +0.040 A 
ATOM     15  C   UNL     1      44.799  21.583  21.813  0.00  0.00    +0.007 A 
ATOM     16  C   UNL     1      44.377  22.191  20.640  0.00  0.00    +0.122 A 
ATOM     19  C   UNL     1      44.809  21.707  19.414  0.00  0.00    +0.008 A 
ATOM     20  C   UNL     1      45.662  20.623  19.361  0.00  0.00    +0.048 A 
BRANCH  16  17
ATOM     17  O   UNL     1      43.542  23.263  20.693  0.00  0.00    -0.497 OA
ATOM     18  H   UNL     1      42.638  23.046  20.956  0.00  0.00    +0.397 HD
ENDBRANCH  16  17
ENDBRANCH  12  13
ENDBRANCH  11  12
TORSDOF 6
ENDMDL
MODEL 6
REMARK VINA RESULT:      -5.7      2.106      7.366
REMARK  Name = ZINC95486294
REMARK  8 active torsions:
REMARK  status: ('A' for Active; 'I' for Inactive)
REMARK    1  A    between atoms: C1_1  and  O1_2
REMARK    2  A    between atoms: O1_2  and  C2_3
REMARK    3  A    between atoms: C4_5  and  O7_24
REMARK    4  A    between atoms: C9_11  and  O6_22
REMARK    5  A    between atoms: C10_12  and  O4_14
REMARK    6  A    between atoms: O4_14  and  C11_15
REMARK    7  A    between atoms: C14_18  and  O5_21
REMARK    8  A    between atoms: O6_22  and  C17_23
REMARK                            x       y       z     vdW  Elec       q    Type
REMARK                         _______ _______ _______ _____ _____    ______ ____
ROOT
ATOM      3  C   UNL     1      48.466  18.237  17.951  0.00  0.00    +0.240 A 
ATOM      4  C   UNL     1      48.338  17.148  17.109  0.00  0.00    -0.120 A 
ATOM      5  C   UNL     1      47.117  16.493  16.995  0.00  0.00    +0.220 A 
ATOM      8  C   UNL     1      46.016  16.921  17.719  0.00  0.00    -0.056 A 
ATOM      9  C   UNL     1      46.124  18.012  18.569  0.00  0.00    +0.216 A 
ATOM     10  O   UNL     1      45.062  18.441  19.281  0.00  0.00    -0.231 OA
ATOM     11  C   UNL     1      45.137  19.482  20.123  0.00  0.00    +0.220 A 
ATOM     21  C   UNL     1      46.282  20.191  20.307  0.00  0.00    -0.073 A 
ATOM     24  C   UNL     1      47.452  19.824  19.602  0.00  0.00    +0.443 A 
ATOM     25  O   UNL     1      48.497  20.439  19.742  0.00  0.00    -0.424 OA
ATOM     26  C   UNL     1      47.359  18.672  18.689  0.00  0.00    -0.262 A 
ENDROOT
BRANCH   3   2
ATOM      1  C   UNL     1      50.827  18.063  18.147  0.00  0.00    +0.253 C 
ATOM      2  O   UNL     1      49.656  18.879  18.063  0.00  0.00    -0.277 OA
ENDBRANCH   3   2
BRANCH   5   6
ATOM      6  O   UNL     1      47.003  15.423  16.166  0.00  0.00    -0.488 OA
ATOM      7  H   UNL     1      47.850  15.045  15.893  0.00  0.00    +0.405 HD
ENDBRANCH   5   6
BRANCH  21  22
ATOM     22  O   UNL     1      46.303  21.249  21.166  0.00  0.00    -0.285 OA
ATOM     23  C   UNL     1      46.775  20.998  22.492  0.00  0.00    +0.258 C 
ENDBRANCH  21  22
BRANCH  11  12
ATOM     12  O   UNL     1      44.030  19.848  20.805  0.00  0.00    -0.207 OA
BRANCH  12  13
ATOM     13  C   UNL     1      42.993  20.378  20.103  0.00  0.00    +0.041 A 
ATOM     14  C   UNL     1      43.083  21.668  19.601  0.00  0.00    +0.040 A 
ATOM     15  C   UNL     1      42.030  22.207  18.887  0.00  0.00    +0.007 A 
ATOM     16  C   UNL     1      40.882  21.457  18.674  0.00  0.00    +0.122 A 
ATOM     19  C   UNL     1      40.793  20.168  19.176  0.00  0.00    +0.008 A 
ATOM     20  C   UNL     1      41.847  19.627  19.884  0.00  0.00    +0.048 A 
BRANCH  16  17
ATOM     17  O   UNL     1      39.846  21.987  17.971  0.00  0.00    -0.497 OA
ATOM     18  H   UNL     1      39.674  21.545  17.128  0.00  0.00    +0.397 HD
ENDBRANCH  16  17
ENDBRANCH  12  13
ENDBRANCH  11  12
TORSDOF 6
ENDMDL
MODEL 7
REMARK VINA RESULT:      -5.4      5.541      7.485
REMARK  Name = ZINC95486294
REMARK  8 active torsions:
REMARK  status: ('A' for Active; 'I' for Inactive)
REMARK    1  A    between atoms: C1_1  and  O1_2
REMARK    2  A    between atoms: O1_2  and  C2_3
REMARK    3  A    between atoms: C4_5  and  O7_24
REMARK    4  A    between atoms: C9_11  and  O6_22
REMARK    5  A    between atoms: C10_12  and  O4_14
REMARK    6  A    between atoms: O4_14  and  C11_15
REMARK    7  A    between atoms: C14_18  and  O5_21
REMARK    8  A    between atoms: O6_22  and  C17_23
REMARK                            x       y       z     vdW  Elec       q    Type
REMARK                         _______ _______ _______ _____ _____    ______ ____
ROOT
ATOM      3  C   UNL     1      52.208  19.974  18.777  0.00  0.00    +0.240 A 
ATOM      4  C   UNL     1      52.099  21.043  17.905  0.00  0.00    -0.120 A 
ATOM      5  C   UNL     1      51.827  20.821  16.560  0.00  0.00    +0.220 A 
ATOM      8  C   UNL     1      51.661  19.533  16.076  0.00  0.00    -0.056 A 
ATOM      9  C   UNL     1      51.766  18.449  16.935  0.00  0.00    +0.216 A 
ATOM     10  O   UNL     1      51.607  17.189  16.480  0.00  0.00    -0.231 OA
ATOM     11  C   UNL     1      51.719  16.119  17.280  0.00  0.00    +0.220 A 
ATOM     21  C   UNL     1      51.981  16.225  18.609  0.00  0.00    -0.073 A 
ATOM     24  C   UNL     1      52.160  17.504  19.186  0.00  0.00    +0.443 A 
ATOM     25  O   UNL     1      52.396  17.637  20.376  0.00  0.00    -0.424 OA
ATOM     26  C   UNL     1      52.047  18.671  18.294  0.00  0.00    -0.262 A 
ENDROOT
BRANCH   3   2
ATOM      1  C   UNL     1      52.513  21.548  20.531  0.00  0.00    +0.253 C 
ATOM      2  O   UNL     1      52.473  20.188  20.090  0.00  0.00    -0.277 OA
ENDBRANCH   3   2
BRANCH   5   6
ATOM      6  O   UNL     1      51.723  21.877  15.712  0.00  0.00    -0.488 OA
ATOM      7  H   UNL     1      51.199  22.611  16.062  0.00  0.00    +0.405 HD
ENDBRANCH   5   6
BRANCH  21  22
ATOM     22  O   UNL     1      52.073  15.106  19.382  0.00  0.00    -0.285 OA
ATOM     23  C   UNL     1      53.370  14.524  19.528  0.00  0.00    +0.258 C 
ENDBRANCH  21  22
BRANCH  11  12
ATOM     12  O   UNL     1      51.551  14.888  16.747  0.00  0.00    -0.207 OA
BRANCH  12  13
ATOM     13  C   UNL     1      50.281  14.451  16.536  0.00  0.00    +0.041 A 
ATOM     14  C   UNL     1      50.053  13.351  15.722  0.00  0.00    +0.040 A 
ATOM     15  C   UNL     1      48.763  12.906  15.508  0.00  0.00    +0.007 A 
ATOM     16  C   UNL     1      47.696  13.562  16.105  0.00  0.00    +0.122 A 
ATOM     19  C   UNL     1      47.924  14.661  16.918  0.00  0.00    +0.008 A 
ATOM     20  C   UNL     1      49.214  15.102  17.138  0.00  0.00    +0.048 A 
BRANCH  16  17
ATOM     17  O   UNL     1      46.425  13.124  15.894  0.00  0.00    -0.497 OA
ATOM     18  H   UNL     1      46.031  13.440  15.070  0.00  0.00    +0.397 HD
ENDBRANCH  16  17
ENDBRANCH  12  13
ENDBRANCH  11  12
TORSDOF 6
ENDMDL
MODEL 8
REMARK VINA RESULT:      -5.4      3.659      5.338
REMARK  Name = ZINC95486294
REMARK  8 active torsions:
REMARK  status: ('A' for Active; 'I' for Inactive)
REMARK    1  A    between atoms: C1_1  and  O1_2
REMARK    2  A    between atoms: O1_2  and  C2_3
REMARK    3  A    between atoms: C4_5  and  O7_24
REMARK    4  A    between atoms: C9_11  and  O6_22
REMARK    5  A    between atoms: C10_12  and  O4_14
REMARK    6  A    between atoms: O4_14  and  C11_15
REMARK    7  A    between atoms: C14_18  and  O5_21
REMARK    8  A    between atoms: O6_22  and  C17_23
REMARK                            x       y       z     vdW  Elec       q    Type
REMARK                         _______ _______ _______ _____ _____    ______ ____
ROOT
ATOM      3  C   UNL     1      46.960  14.539  18.640  0.00  0.00    +0.240 A 
ATOM      4  C   UNL     1      45.785  15.176  18.996  0.00  0.00    -0.120 A 
ATOM      5  C   UNL     1      45.799  16.523  19.343  0.00  0.00    +0.220 A 
ATOM      8  C   UNL     1      46.984  17.242  19.337  0.00  0.00    -0.056 A 
ATOM      9  C   UNL     1      48.172  16.620  18.982  0.00  0.00    +0.216 A 
ATOM     10  O   UNL     1      49.334  17.306  18.971  0.00  0.00    -0.231 OA
ATOM     11  C   UNL     1      50.502  16.730  18.649  0.00  0.00    +0.220 A 
ATOM     21  C   UNL     1      50.599  15.423  18.294  0.00  0.00    -0.073 A 
ATOM     24  C   UNL     1      49.435  14.618  18.269  0.00  0.00    +0.443 A 
ATOM     25  O   UNL     1      49.485  13.439  17.954  0.00  0.00    -0.424 OA
ATOM     26  C   UNL     1      48.161  15.258  18.636  0.00  0.00    -0.262 A 
ENDROOT
BRANCH   3   2
ATOM      1  C   UNL     1      45.934  12.800  17.388  0.00  0.00    +0.253 C 
ATOM      2  O   UNL     1      46.949  13.225  18.300  0.00  0.00    -0.277 OA
ENDBRANCH   3   2
BRANCH   5   6
ATOM      6  O   UNL     1      44.640  17.139  19.691  0.00  0.00    -0.488 OA
ATOM      7  H   UNL     1      44.024  17.262  18.956  0.00  0.00    +0.405 HD
ENDBRANCH   5   6
BRANCH  21  22
ATOM     22  O   UNL     1      51.808  14.888  17.964  0.00  0.00    -0.285 OA
ATOM     23  C   UNL     1      52.552  14.270  19.016  0.00  0.00    +0.258 C 
ENDBRANCH  21  22
BRANCH  11  12
ATOM     12  O   UNL     1      51.624  17.484  18.667  0.00  0.00    -0.207 OA
BRANCH  12  13
ATOM     13  C   UNL     1      51.645  18.615  17.913  0.00  0.00    +0.041 A 
ATOM     14  C   UNL     1      51.574  19.858  18.526  0.00  0.00    +0.040 A 
ATOM     15  C   UNL     1      51.596  21.008  17.761  0.00  0.00    +0.007 A 
ATOM     16  C   UNL     1      51.688  20.919  16.379  0.00  0.00    +0.122 A 
ATOM     19  C   UNL     1      51.760  19.677  15.767  0.00  0.00    +0.008 A 
ATOM     20  C   UNL     1      51.744  18.528  16.532  0.00  0.00    +0.048 A 
BRANCH  16  17
ATOM     17  O   UNL     1      51.711  22.051  15.626  0.00  0.00    -0.497 OA
ATOM     18  H   UNL     1      52.034  21.918  14.725  0.00  0.00    +0.397 HD
ENDBRANCH  16  17
ENDBRANCH  12  13
ENDBRANCH  11  12
TORSDOF 6
ENDMDL
MODEL 9
REMARK VINA RESULT:      -5.3      2.577      5.365
REMARK  Name = ZINC95486294
REMARK  8 active torsions:
REMARK  status: ('A' for Active; 'I' for Inactive)
REMARK    1  A    between atoms: C1_1  and  O1_2
REMARK    2  A    between atoms: O1_2  and  C2_3
REMARK    3  A    between atoms: C4_5  and  O7_24
REMARK    4  A    between atoms: C9_11  and  O6_22
REMARK    5  A    between atoms: C10_12  and  O4_14
REMARK    6  A    between atoms: O4_14  and  C11_15
REMARK    7  A    between atoms: C14_18  and  O5_21
REMARK    8  A    between atoms: O6_22  and  C17_23
REMARK                            x       y       z     vdW  Elec       q    Type
REMARK                         _______ _______ _______ _____ _____    ______ ____
ROOT
ATOM      3  C   UNL     1      44.440  20.996  19.358  0.00  0.00    +0.240 A 
ATOM      4  C   UNL     1      43.070  21.101  19.511  0.00  0.00    -0.120 A 
ATOM      5  C   UNL     1      42.316  19.979  19.835  0.00  0.00    +0.220 A 
ATOM      8  C   UNL     1      42.924  18.746  20.009  0.00  0.00    -0.056 A 
ATOM      9  C   UNL     1      44.298  18.621  19.860  0.00  0.00    +0.216 A 
ATOM     10  O   UNL     1      44.906  17.427  20.026  0.00  0.00    -0.231 OA
ATOM     11  C   UNL     1      46.228  17.270  19.874  0.00  0.00    +0.220 A 
ATOM     21  C   UNL     1      47.055  18.301  19.559  0.00  0.00    -0.073 A 
ATOM     24  C   UNL     1      46.516  19.596  19.369  0.00  0.00    +0.443 A 
ATOM     25  O   UNL     1      47.230  20.545  19.086  0.00  0.00    -0.424 OA
ATOM     26  C   UNL     1      45.061  19.753  19.528  0.00  0.00    -0.262 A 
ENDROOT
BRANCH   3   2
ATOM      1  C   UNL     1      44.751  23.341  19.587  0.00  0.00    +0.253 C 
ATOM      2  O   UNL     1      45.178  22.091  19.042  0.00  0.00    -0.277 OA
ENDBRANCH   3   2
BRANCH   5   6
ATOM      6  O   UNL     1      40.971  20.092  19.983  0.00  0.00    -0.488 OA
ATOM      7  H   UNL     1      40.500  20.288  19.161  0.00  0.00    +0.405 HD
ENDBRANCH   5   6
BRANCH  21  22
ATOM     22  O   UNL     1      48.396  18.091  19.426  0.00  0.00    -0.285 OA
ATOM     23  C   UNL     1      48.906  17.988  18.096  0.00  0.00    +0.258 C 
ENDBRANCH  21  22
BRANCH  11  12
ATOM     12  O   UNL     1      46.762  16.041  20.052  0.00  0.00    -0.207 OA
BRANCH  12  13
ATOM     13  C   UNL     1      46.393  15.055  19.192  0.00  0.00    +0.041 A 
ATOM     14  C   UNL     1      45.500  14.075  19.603  0.00  0.00    +0.040 A 
ATOM     15  C   UNL     1      45.125  13.073  18.730  0.00  0.00    +0.007 A 
ATOM     16  C   UNL     1      45.642  13.045  17.442  0.00  0.00    +0.122 A 
ATOM     19  C   UNL     1      46.534  14.025  17.032  0.00  0.00    +0.008 A 
ATOM     20  C   UNL     1      46.904  15.030  17.903  0.00  0.00    +0.048 A 
BRANCH  16  17
ATOM     17  O   UNL     1      45.272  12.059  16.582  0.00  0.00    -0.497 OA
ATOM     18  H   UNL     1      45.993  11.467  16.327  0.00  0.00    +0.397 HD
ENDBRANCH  16  17
ENDBRANCH  12  13
ENDBRANCH  11  12
TORSDOF 6
ENDMDL
