MODEL 1
REMARK VINA RESULT:      -5.4      0.000      0.000
REMARK  Name = ZINC13838499
REMARK  14 active torsions:
REMARK  status: ('A' for Active; 'I' for Inactive)
REMARK    1  A    between atoms: C1_1  and  C2_2
REMARK    2  A    between atoms: C2_2  and  C3_3
REMARK    3  A    between atoms: C2_2  and  C4_4
REMARK    4  A    between atoms: C4_4  and  N1_5
REMARK    5  A    between atoms: C5_6  and  C6_8
REMARK    6  A    between atoms: C7_9  and  C8_10
REMARK    7  A    between atoms: C9_11  and  C10_12
REMARK    8  A    between atoms: C10_12  and  C11_13
REMARK    9  A    between atoms: C11_13  and  C12_14
REMARK   10  A    between atoms: C12_14  and  C13_15
REMARK   11  A    between atoms: C13_15  and  C14_16
REMARK   12  A    between atoms: C14_16  and  C15_17
REMARK   13  A    between atoms: C15_17  and  C16_18
REMARK   14  A    between atoms: C17_19  and  C18_20
REMARK                            x       y       z     vdW  Elec       q    Type
REMARK                         _______ _______ _______ _____ _____    ______ ____
ROOT
ATOM     13  C   UNL     1      50.960  21.127  17.570  0.00  0.00    +0.004 C 
ENDROOT
BRANCH  13  12
ATOM     12  C   UNL     1      51.509  21.234  18.995  0.00  0.00    +0.012 C 
BRANCH  12  11
ATOM     11  C   UNL     1      50.715  20.308  19.917  0.00  0.00    +0.051 C 
BRANCH  11  10
ATOM      9  C   UNL     1      48.448  20.231  20.875  0.00  0.00    -0.039 C 
ATOM     10  C   UNL     1      49.285  20.779  19.992  0.00  0.00    +0.009 C 
BRANCH   9   8
ATOM      7  C   UNL     1      46.461  21.206  19.852  0.00  0.00    -0.095 C 
ATOM      8  C   UNL     1      47.059  20.688  20.947  0.00  0.00    +0.106 C 
BRANCH   7   6
ATOM      4  N   UNL     1      44.159  21.180  19.060  0.00  0.00    -0.727 N 
ATOM      5  H   UNL     1      44.420  20.529  18.391  0.00  0.00    +0.401 HD
ATOM      6  C   UNL     1      45.072  21.663  19.925  0.00  0.00    +0.545 C 
ATOM     28  O   UNL     1      44.744  22.480  20.765  0.00  0.00    -0.548 OA
BRANCH   4   3
ATOM      3  C   UNL     1      42.768  21.637  19.133  0.00  0.00    +0.259 C 
BRANCH   3   2
ATOM      1  C   UNL     1      42.177  19.316  19.844  0.00  0.00    +0.032 C 
ATOM      2  C   UNL     1      41.829  20.456  18.884  0.00  0.00    -0.032 C 
ATOM     29  C   UNL     1      40.383  20.896  19.117  0.00  0.00    +0.021 C 
ENDBRANCH   3   2
ENDBRANCH   4   3
ENDBRANCH   7   6
ENDBRANCH   9   8
ENDBRANCH  11  10
ENDBRANCH  12  11
ENDBRANCH  13  12
BRANCH  13  14
ATOM     14  C   UNL     1      51.943  20.337  16.703  0.00  0.00    +0.004 C 
BRANCH  14  15
ATOM     15  C   UNL     1      51.248  19.093  16.148  0.00  0.00    +0.012 C 
BRANCH  15  16
ATOM     16  C   UNL     1      51.557  17.893  17.046  0.00  0.00    +0.051 C 
BRANCH  16  17
ATOM     17  C   UNL     1      50.308  17.481  17.783  0.00  0.00    -0.019 C 
ATOM     18  C   UNL     1      49.149  18.055  17.492  0.00  0.00    -0.002 C 
BRANCH  18  19
ATOM     19  C   UNL     1      47.924  17.652  18.215  0.00  0.00    -0.042 A 
ATOM     20  C   UNL     1      46.686  18.177  17.841  0.00  0.00    +0.033 A 
ATOM     21  C   UNL     1      45.545  17.799  18.516  0.00  0.00    +0.041 A 
ATOM     22  C   UNL     1      45.621  16.897  19.567  0.00  0.00    +0.029 A 
ATOM     23  C   UNL     1      46.855  16.369  19.946  0.00  0.00    +0.035 A 
ATOM     24  O   UNL     1      46.661  15.517  20.994  0.00  0.00    -0.309 OA
ATOM     25  C   UNL     1      45.254  15.214  20.989  0.00  0.00    +0.432 C 
ATOM     26  O   UNL     1      44.657  16.375  20.380  0.00  0.00    -0.309 OA
ATOM     27  C   UNL     1      48.002  16.741  19.270  0.00  0.00    +0.044 A 
ENDBRANCH  18  19
ENDBRANCH  16  17
ENDBRANCH  15  16
ENDBRANCH  14  15
ENDBRANCH  13  14
TORSDOF 12
ENDMDL
MODEL 2
REMARK VINA RESULT:      -5.2      2.215      5.211
REMARK  Name = ZINC13838499
REMARK  14 active torsions:
REMARK  status: ('A' for Active; 'I' for Inactive)
REMARK    1  A    between atoms: C1_1  and  C2_2
REMARK    2  A    between atoms: C2_2  and  C3_3
REMARK    3  A    between atoms: C2_2  and  C4_4
REMARK    4  A    between atoms: C4_4  and  N1_5
REMARK    5  A    between atoms: C5_6  and  C6_8
REMARK    6  A    between atoms: C7_9  and  C8_10
REMARK    7  A    between atoms: C9_11  and  C10_12
REMARK    8  A    between atoms: C10_12  and  C11_13
REMARK    9  A    between atoms: C11_13  and  C12_14
REMARK   10  A    between atoms: C12_14  and  C13_15
REMARK   11  A    between atoms: C13_15  and  C14_16
REMARK   12  A    between atoms: C14_16  and  C15_17
REMARK   13  A    between atoms: C15_17  and  C16_18
REMARK   14  A    between atoms: C17_19  and  C18_20
REMARK                            x       y       z     vdW  Elec       q    Type
REMARK                         _______ _______ _______ _____ _____    ______ ____
ROOT
ATOM     13  C   UNL     1      51.524  21.125  17.025  0.00  0.00    +0.004 C 
ENDROOT
BRANCH  13  12
ATOM     12  C   UNL     1      52.457  19.917  16.919  0.00  0.00    +0.012 C 
BRANCH  12  11
ATOM     11  C   UNL     1      51.966  18.991  15.803  0.00  0.00    +0.051 C 
BRANCH  11  10
ATOM      9  C   UNL     1      50.675  17.677  17.436  0.00  0.00    -0.039 C 
ATOM     10  C   UNL     1      50.711  18.287  16.250  0.00  0.00    +0.009 C 
BRANCH   9   8
ATOM      7  C   UNL     1      48.246  17.506  17.558  0.00  0.00    -0.095 C 
ATOM      8  C   UNL     1      49.456  16.993  17.870  0.00  0.00    +0.106 C 
BRANCH   7   6
ATOM      4  N   UNL     1      47.083  15.914  18.987  0.00  0.00    -0.727 N 
ATOM      5  H   UNL     1      47.929  15.715  19.416  0.00  0.00    +0.401 HD
ATOM      6  C   UNL     1      47.027  16.821  17.992  0.00  0.00    +0.545 C 
ATOM     28  O   UNL     1      45.965  17.071  17.454  0.00  0.00    -0.548 OA
BRANCH   4   3
ATOM      3  C   UNL     1      45.863  15.229  19.422  0.00  0.00    +0.259 C 
BRANCH   3   2
ATOM      1  C   UNL     1      47.073  13.204  18.599  0.00  0.00    +0.032 C 
ATOM      2  C   UNL     1      45.717  13.911  18.658  0.00  0.00    -0.032 C 
ATOM     29  C   UNL     1      44.705  13.015  19.374  0.00  0.00    +0.021 C 
ENDBRANCH   3   2
ENDBRANCH   4   3
ENDBRANCH   7   6
ENDBRANCH   9   8
ENDBRANCH  11  10
ENDBRANCH  12  11
ENDBRANCH  13  12
BRANCH  13  14
ATOM     14  C   UNL     1      51.123  21.333  18.487  0.00  0.00    +0.004 C 
BRANCH  14  15
ATOM     15  C   UNL     1      49.679  20.875  18.690  0.00  0.00    +0.012 C 
BRANCH  15  16
ATOM     16  C   UNL     1      49.442  20.574  20.172  0.00  0.00    +0.051 C 
BRANCH  16  17
ATOM     17  C   UNL     1      48.011  20.150  20.376  0.00  0.00    -0.019 C 
ATOM     18  C   UNL     1      47.115  20.362  19.422  0.00  0.00    -0.002 C 
BRANCH  18  19
ATOM     19  C   UNL     1      45.710  19.946  19.623  0.00  0.00    -0.042 A 
ATOM     20  C   UNL     1      45.395  18.992  20.591  0.00  0.00    +0.033 A 
ATOM     21  C   UNL     1      44.084  18.606  20.778  0.00  0.00    +0.041 A 
ATOM     22  C   UNL     1      43.075  19.163  20.005  0.00  0.00    +0.029 A 
ATOM     23  C   UNL     1      43.384  20.116  19.035  0.00  0.00    +0.035 A 
ATOM     24  O   UNL     1      42.229  20.502  18.420  0.00  0.00    -0.309 OA
ATOM     25  C   UNL     1      41.167  20.081  19.297  0.00  0.00    +0.432 C 
ATOM     26  O   UNL     1      41.727  18.953  19.994  0.00  0.00    -0.309 OA
ATOM     27  C   UNL     1      44.696  20.510  18.848  0.00  0.00    +0.044 A 
ENDBRANCH  18  19
ENDBRANCH  16  17
ENDBRANCH  15  16
ENDBRANCH  14  15
ENDBRANCH  13  14
TORSDOF 12
ENDMDL
MODEL 3
REMARK VINA RESULT:      -5.2      2.256      6.831
REMARK  Name = ZINC13838499
REMARK  14 active torsions:
REMARK  status: ('A' for Active; 'I' for Inactive)
REMARK    1  A    between atoms: C1_1  and  C2_2
REMARK    2  A    between atoms: C2_2  and  C3_3
REMARK    3  A    between atoms: C2_2  and  C4_4
REMARK    4  A    between atoms: C4_4  and  N1_5
REMARK    5  A    between atoms: C5_6  and  C6_8
REMARK    6  A    between atoms: C7_9  and  C8_10
REMARK    7  A    between atoms: C9_11  and  C10_12
REMARK    8  A    between atoms: C10_12  and  C11_13
REMARK    9  A    between atoms: C11_13  and  C12_14
REMARK   10  A    between atoms: C12_14  and  C13_15
REMARK   11  A    between atoms: C13_15  and  C14_16
REMARK   12  A    between atoms: C14_16  and  C15_17
REMARK   13  A    between atoms: C15_17  and  C16_18
REMARK   14  A    between atoms: C17_19  and  C18_20
REMARK                            x       y       z     vdW  Elec       q    Type
REMARK                         _______ _______ _______ _____ _____    ______ ____
ROOT
ATOM     13  C   UNL     1      41.205  20.172  19.517  0.00  0.00    +0.004 C 
ENDROOT
BRANCH  13  12
ATOM     12  C   UNL     1      42.531  20.594  18.881  0.00  0.00    +0.012 C 
BRANCH  12  11
ATOM     11  C   UNL     1      43.120  21.770  19.663  0.00  0.00    +0.051 C 
BRANCH  11  10
ATOM      9  C   UNL     1      45.221  20.816  18.804  0.00  0.00    -0.039 C 
ATOM     10  C   UNL     1      44.623  21.743  19.555  0.00  0.00    +0.009 C 
BRANCH   9   8
ATOM      7  C   UNL     1      47.422  20.312  19.723  0.00  0.00    -0.095 C 
ATOM      8  C   UNL     1      46.680  20.789  18.700  0.00  0.00    +0.106 C 
BRANCH   7   6
ATOM      4  N   UNL     1      49.507  21.071  18.720  0.00  0.00    -0.727 N 
ATOM      5  H   UNL     1      48.991  21.655  18.144  0.00  0.00    +0.401 HD
ATOM      6  C   UNL     1      48.881  20.285  19.619  0.00  0.00    +0.545 C 
ATOM     28  O   UNL     1      49.529  19.552  20.343  0.00  0.00    -0.548 OA
BRANCH   4   3
ATOM      3  C   UNL     1      50.968  21.044  18.615  0.00  0.00    +0.259 C 
BRANCH   3   2
ATOM      1  C   UNL     1      51.841  21.020  16.275  0.00  0.00    +0.032 C 
ATOM      2  C   UNL     1      51.379  20.149  17.445  0.00  0.00    -0.032 C 
ATOM     29  C   UNL     1      52.523  19.232  17.882  0.00  0.00    +0.021 C 
ENDBRANCH   3   2
ENDBRANCH   4   3
ENDBRANCH   7   6
ENDBRANCH   9   8
ENDBRANCH  11  10
ENDBRANCH  12  11
ENDBRANCH  13  12
BRANCH  13  14
ATOM     14  C   UNL     1      41.377  18.817  20.207  0.00  0.00    +0.004 C 
BRANCH  14  15
ATOM     15  C   UNL     1      41.530  19.028  21.714  0.00  0.00    +0.012 C 
BRANCH  15  16
ATOM     16  C   UNL     1      42.976  18.744  22.126  0.00  0.00    +0.051 C 
BRANCH  16  17
ATOM     17  C   UNL     1      43.547  17.664  21.244  0.00  0.00    -0.019 C 
ATOM     18  C   UNL     1      44.660  17.888  20.559  0.00  0.00    -0.002 C 
BRANCH  18  19
ATOM     19  C   UNL     1      45.220  16.829  19.693  0.00  0.00    -0.042 A 
ATOM     20  C   UNL     1      45.852  17.166  18.495  0.00  0.00    +0.033 A 
ATOM     21  C   UNL     1      46.375  16.177  17.689  0.00  0.00    +0.041 A 
ATOM     22  C   UNL     1      46.275  14.844  18.065  0.00  0.00    +0.029 A 
ATOM     23  C   UNL     1      45.644  14.501  19.260  0.00  0.00    +0.035 A 
ATOM     24  O   UNL     1      45.676  13.143  19.395  0.00  0.00    -0.309 OA
ATOM     25  C   UNL     1      46.689  12.690  18.479  0.00  0.00    +0.432 C 
ATOM     26  O   UNL     1      46.701  13.701  17.453  0.00  0.00    -0.309 OA
ATOM     27  C   UNL     1      45.123  15.489  20.074  0.00  0.00    +0.044 A 
ENDBRANCH  18  19
ENDBRANCH  16  17
ENDBRANCH  15  16
ENDBRANCH  14  15
ENDBRANCH  13  14
TORSDOF 12
ENDMDL
MODEL 4
REMARK VINA RESULT:      -5.1      3.337      7.030
REMARK  Name = ZINC13838499
REMARK  14 active torsions:
REMARK  status: ('A' for Active; 'I' for Inactive)
REMARK    1  A    between atoms: C1_1  and  C2_2
REMARK    2  A    between atoms: C2_2  and  C3_3
REMARK    3  A    between atoms: C2_2  and  C4_4
REMARK    4  A    between atoms: C4_4  and  N1_5
REMARK    5  A    between atoms: C5_6  and  C6_8
REMARK    6  A    between atoms: C7_9  and  C8_10
REMARK    7  A    between atoms: C9_11  and  C10_12
REMARK    8  A    between atoms: C10_12  and  C11_13
REMARK    9  A    between atoms: C11_13  and  C12_14
REMARK   10  A    between atoms: C12_14  and  C13_15
REMARK   11  A    between atoms: C13_15  and  C14_16
REMARK   12  A    between atoms: C14_16  and  C15_17
REMARK   13  A    between atoms: C15_17  and  C16_18
REMARK   14  A    between atoms: C17_19  and  C18_20
REMARK                            x       y       z     vdW  Elec       q    Type
REMARK                         _______ _______ _______ _____ _____    ______ ____
ROOT
ATOM     13  C   UNL     1      44.998  23.020  19.992  0.00  0.00    +0.004 C 
ENDROOT
BRANCH  13  12
ATOM     12  C   UNL     1      45.213  21.841  19.040  0.00  0.00    +0.012 C 
BRANCH  12  11
ATOM     11  C   UNL     1      44.081  20.828  19.219  0.00  0.00    +0.051 C 
BRANCH  11  10
ATOM      9  C   UNL     1      45.648  19.206  18.232  0.00  0.00    -0.039 C 
ATOM     10  C   UNL     1      44.626  19.432  19.059  0.00  0.00    +0.009 C 
BRANCH   9   8
ATOM      7  C   UNL     1      47.050  17.577  17.081  0.00  0.00    -0.095 C 
ATOM      8  C   UNL     1      46.177  17.851  18.076  0.00  0.00    +0.106 C 
BRANCH   7   6
ATOM      4  N   UNL     1      46.783  15.237  16.463  0.00  0.00    -0.727 N 
ATOM      5  H   UNL     1      45.861  15.426  16.232  0.00  0.00    +0.401 HD
ATOM      6  C   UNL     1      47.579  16.221  16.925  0.00  0.00    +0.545 C 
ATOM     28  O   UNL     1      48.737  15.984  17.214  0.00  0.00    -0.548 OA
BRANCH   4   3
ATOM      3  C   UNL     1      47.313  13.880  16.306  0.00  0.00    +0.259 C 
BRANCH   3   2
ATOM      1  C   UNL     1      45.512  12.664  17.539  0.00  0.00    +0.032 C 
ATOM      2  C   UNL     1      46.990  13.059  17.556  0.00  0.00    -0.032 C 
ATOM     29  C   UNL     1      47.855  11.797  17.575  0.00  0.00    +0.021 C 
ENDBRANCH   3   2
ENDBRANCH   4   3
ENDBRANCH   7   6
ENDBRANCH   9   8
ENDBRANCH  11  10
ENDBRANCH  12  11
ENDBRANCH  13  12
BRANCH  13  14
ATOM     14  C   UNL     1      45.120  22.537  21.439  0.00  0.00    +0.004 C 
BRANCH  14  15
ATOM     15  C   UNL     1      46.587  22.242  21.755  0.00  0.00    +0.012 C 
BRANCH  15  16
ATOM     16  C   UNL     1      46.749  20.758  22.093  0.00  0.00    +0.051 C 
BRANCH  16  17
ATOM     17  C   UNL     1      47.759  20.138  21.163  0.00  0.00    -0.019 C 
ATOM     18  C   UNL     1      48.414  20.897  20.295  0.00  0.00    -0.002 C 
BRANCH  18  19
ATOM     19  C   UNL     1      49.404  20.289  19.383  0.00  0.00    -0.042 A 
ATOM     20  C   UNL     1      49.679  18.922  19.459  0.00  0.00    +0.033 A 
ATOM     21  C   UNL     1      50.603  18.356  18.606  0.00  0.00    +0.041 A 
ATOM     22  C   UNL     1      51.263  19.141  17.671  0.00  0.00    +0.029 A 
ATOM     23  C   UNL     1      50.993  20.506  17.590  0.00  0.00    +0.035 A 
ATOM     24  O   UNL     1      51.765  21.045  16.601  0.00  0.00    -0.309 OA
ATOM     25  C   UNL     1      52.205  19.929  15.806  0.00  0.00    +0.432 C 
ATOM     26  O   UNL     1      52.203  18.827  16.732  0.00  0.00    -0.309 OA
ATOM     27  C   UNL     1      50.064  21.078  18.439  0.00  0.00    +0.044 A 
ENDBRANCH  18  19
ENDBRANCH  16  17
ENDBRANCH  15  16
ENDBRANCH  14  15
ENDBRANCH  13  14
TORSDOF 12
ENDMDL
MODEL 5
REMARK VINA RESULT:      -5.0      2.908      6.813
REMARK  Name = ZINC13838499
REMARK  14 active torsions:
REMARK  status: ('A' for Active; 'I' for Inactive)
REMARK    1  A    between atoms: C1_1  and  C2_2
REMARK    2  A    between atoms: C2_2  and  C3_3
REMARK    3  A    between atoms: C2_2  and  C4_4
REMARK    4  A    between atoms: C4_4  and  N1_5
REMARK    5  A    between atoms: C5_6  and  C6_8
REMARK    6  A    between atoms: C7_9  and  C8_10
REMARK    7  A    between atoms: C9_11  and  C10_12
REMARK    8  A    between atoms: C10_12  and  C11_13
REMARK    9  A    between atoms: C11_13  and  C12_14
REMARK   10  A    between atoms: C12_14  and  C13_15
REMARK   11  A    between atoms: C13_15  and  C14_16
REMARK   12  A    between atoms: C14_16  and  C15_17
REMARK   13  A    between atoms: C15_17  and  C16_18
REMARK   14  A    between atoms: C17_19  and  C18_20
REMARK                            x       y       z     vdW  Elec       q    Type
REMARK                         _______ _______ _______ _____ _____    ______ ____
ROOT
ATOM     13  C   UNL     1      44.837  23.033  20.125  0.00  0.00    +0.004 C 
ENDROOT
BRANCH  13  12
ATOM     12  C   UNL     1      44.985  21.907  19.100  0.00  0.00    +0.012 C 
BRANCH  12  11
ATOM     11  C   UNL     1      43.885  20.867  19.323  0.00  0.00    +0.051 C 
BRANCH  11  10
ATOM      9  C   UNL     1      45.540  19.363  18.293  0.00  0.00    -0.039 C 
ATOM     10  C   UNL     1      44.419  19.494  19.004  0.00  0.00    +0.009 C 
BRANCH   9   8
ATOM      7  C   UNL     1      45.994  17.048  18.908  0.00  0.00    -0.095 C 
ATOM      8  C   UNL     1      46.059  18.031  17.983  0.00  0.00    +0.106 C 
BRANCH   7   6
ATOM      4  N   UNL     1      47.805  15.560  18.251  0.00  0.00    -0.727 N 
ATOM      5  H   UNL     1      48.392  16.330  18.208  0.00  0.00    +0.401 HD
ATOM      6  C   UNL     1      46.512  15.716  18.598  0.00  0.00    +0.545 C 
ATOM     28  O   UNL     1      45.775  14.748  18.653  0.00  0.00    -0.548 OA
BRANCH   4   3
ATOM      3  C   UNL     1      48.324  14.225  17.940  0.00  0.00    +0.259 C 
BRANCH   3   2
ATOM      1  C   UNL     1      49.987  13.460  16.240  0.00  0.00    +0.032 C 
ATOM      2  C   UNL     1      48.627  14.131  16.444  0.00  0.00    -0.032 C 
ATOM     29  C   UNL     1      47.541  13.304  15.754  0.00  0.00    +0.021 C 
ENDBRANCH   3   2
ENDBRANCH   4   3
ENDBRANCH   7   6
ENDBRANCH   9   8
ENDBRANCH  11  10
ENDBRANCH  12  11
ENDBRANCH  13  12
BRANCH  13  14
ATOM     14  C   UNL     1      45.335  22.551  21.489  0.00  0.00    +0.004 C 
BRANCH  14  15
ATOM     15  C   UNL     1      46.843  22.301  21.422  0.00  0.00    +0.012 C 
BRANCH  15  16
ATOM     16  C   UNL     1      47.142  20.866  21.859  0.00  0.00    +0.051 C 
BRANCH  16  17
ATOM     17  C   UNL     1      48.069  20.220  20.862  0.00  0.00    -0.019 C 
ATOM     18  C   UNL     1      48.568  20.934  19.863  0.00  0.00    -0.002 C 
BRANCH  18  19
ATOM     19  C   UNL     1      49.477  20.301  18.884  0.00  0.00    -0.042 A 
ATOM     20  C   UNL     1      50.436  21.069  18.221  0.00  0.00    +0.033 A 
ATOM     21  C   UNL     1      51.284  20.476  17.309  0.00  0.00    +0.041 A 
ATOM     22  C   UNL     1      51.188  19.116  17.048  0.00  0.00    +0.029 A 
ATOM     23  C   UNL     1      50.232  18.344  17.707  0.00  0.00    +0.035 A 
ATOM     24  O   UNL     1      50.343  17.053  17.277  0.00  0.00    -0.309 OA
ATOM     25  C   UNL     1      51.639  16.964  16.656  0.00  0.00    +0.432 C 
ATOM     26  O   UNL     1      51.895  18.308  16.205  0.00  0.00    -0.309 OA
ATOM     27  C   UNL     1      49.383  18.932  18.625  0.00  0.00    +0.044 A 
ENDBRANCH  18  19
ENDBRANCH  16  17
ENDBRANCH  15  16
ENDBRANCH  14  15
ENDBRANCH  13  14
TORSDOF 12
ENDMDL
MODEL 6
REMARK VINA RESULT:      -4.7      2.973      3.227
REMARK  Name = ZINC13838499
REMARK  14 active torsions:
REMARK  status: ('A' for Active; 'I' for Inactive)
REMARK    1  A    between atoms: C1_1  and  C2_2
REMARK    2  A    between atoms: C2_2  and  C3_3
REMARK    3  A    between atoms: C2_2  and  C4_4
REMARK    4  A    between atoms: C4_4  and  N1_5
REMARK    5  A    between atoms: C5_6  and  C6_8
REMARK    6  A    between atoms: C7_9  and  C8_10
REMARK    7  A    between atoms: C9_11  and  C10_12
REMARK    8  A    between atoms: C10_12  and  C11_13
REMARK    9  A    between atoms: C11_13  and  C12_14
REMARK   10  A    between atoms: C12_14  and  C13_15
REMARK   11  A    between atoms: C13_15  and  C14_16
REMARK   12  A    between atoms: C14_16  and  C15_17
REMARK   13  A    between atoms: C15_17  and  C16_18
REMARK   14  A    between atoms: C17_19  and  C18_20
REMARK                            x       y       z     vdW  Elec       q    Type
REMARK                         _______ _______ _______ _____ _____    ______ ____
ROOT
ATOM     13  C   UNL     1      51.569  20.005  16.763  0.00  0.00    +0.004 C 
ENDROOT
BRANCH  13  12
ATOM     12  C   UNL     1      51.086  21.147  17.658  0.00  0.00    +0.012 C 
BRANCH  12  11
ATOM     11  C   UNL     1      51.209  20.732  19.126  0.00  0.00    +0.051 C 
BRANCH  11  10
ATOM      9  C   UNL     1      48.749  20.780  19.029  0.00  0.00    -0.039 C 
ATOM     10  C   UNL     1      49.852  20.790  19.780  0.00  0.00    +0.009 C 
BRANCH   9   8
ATOM      7  C   UNL     1      46.329  21.050  18.912  0.00  0.00    -0.095 C 
ATOM      8  C   UNL     1      47.431  20.837  19.663  0.00  0.00    +0.106 C 
BRANCH   7   6
ATOM      4  N   UNL     1      43.947  21.555  18.850  0.00  0.00    -0.727 N 
ATOM      5  H   UNL     1      44.054  21.839  17.930  0.00  0.00    +0.401 HD
ATOM      6  C   UNL     1      45.011  21.107  19.546  0.00  0.00    +0.545 C 
ATOM     28  O   UNL     1      44.877  20.750  20.702  0.00  0.00    -0.548 OA
BRANCH   4   3
ATOM      3  C   UNL     1      42.628  21.612  19.485  0.00  0.00    +0.259 C 
BRANCH   3   2
ATOM      1  C   UNL     1      41.495  19.386  19.538  0.00  0.00    +0.032 C 
ATOM      2  C   UNL     1      41.665  20.683  18.744  0.00  0.00    -0.032 C 
ATOM     29  C   UNL     1      40.307  21.371  18.595  0.00  0.00    +0.021 C 
ENDBRANCH   3   2
ENDBRANCH   4   3
ENDBRANCH   7   6
ENDBRANCH   9   8
ENDBRANCH  11  10
ENDBRANCH  12  11
ENDBRANCH  13  12
BRANCH  13  14
ATOM     14  C   UNL     1      52.093  18.860  17.634  0.00  0.00    +0.004 C 
BRANCH  14  15
ATOM     15  C   UNL     1      51.373  17.564  17.259  0.00  0.00    +0.012 C 
BRANCH  15  16
ATOM     16  C   UNL     1      49.862  17.805  17.242  0.00  0.00    +0.051 C 
BRANCH  16  17
ATOM     17  C   UNL     1      49.149  16.509  16.952  0.00  0.00    -0.019 C 
ATOM     18  C   UNL     1      48.259  16.037  17.814  0.00  0.00    -0.002 C 
BRANCH  18  19
ATOM     19  C   UNL     1      47.560  14.766  17.531  0.00  0.00    -0.042 A 
ATOM     20  C   UNL     1      46.447  14.396  18.288  0.00  0.00    +0.033 A 
ATOM     21  C   UNL     1      45.796  13.210  18.022  0.00  0.00    +0.041 A 
ATOM     22  C   UNL     1      46.243  12.381  17.003  0.00  0.00    +0.029 A 
ATOM     23  C   UNL     1      47.354  12.745  16.243  0.00  0.00    +0.035 A 
ATOM     24  O   UNL     1      47.587  11.770  15.316  0.00  0.00    -0.309 OA
ATOM     25  C   UNL     1      46.368  11.008  15.246  0.00  0.00    +0.432 C 
ATOM     26  O   UNL     1      45.782  11.178  16.550  0.00  0.00    -0.309 OA
ATOM     27  C   UNL     1      48.008  13.935  16.503  0.00  0.00    +0.044 A 
ENDBRANCH  18  19
ENDBRANCH  16  17
ENDBRANCH  15  16
ENDBRANCH  14  15
ENDBRANCH  13  14
TORSDOF 12
ENDMDL
MODEL 7
REMARK VINA RESULT:      -4.6      1.955      2.398
REMARK  Name = ZINC13838499
REMARK  14 active torsions:
REMARK  status: ('A' for Active; 'I' for Inactive)
REMARK    1  A    between atoms: C1_1  and  C2_2
REMARK    2  A    between atoms: C2_2  and  C3_3
REMARK    3  A    between atoms: C2_2  and  C4_4
REMARK    4  A    between atoms: C4_4  and  N1_5
REMARK    5  A    between atoms: C5_6  and  C6_8
REMARK    6  A    between atoms: C7_9  and  C8_10
REMARK    7  A    between atoms: C9_11  and  C10_12
REMARK    8  A    between atoms: C10_12  and  C11_13
REMARK    9  A    between atoms: C11_13  and  C12_14
REMARK   10  A    between atoms: C12_14  and  C13_15
REMARK   11  A    between atoms: C13_15  and  C14_16
REMARK   12  A    between atoms: C14_16  and  C15_17
REMARK   13  A    between atoms: C15_17  and  C16_18
REMARK   14  A    between atoms: C17_19  and  C18_20
REMARK                            x       y       z     vdW  Elec       q    Type
REMARK                         _______ _______ _______ _____ _____    ______ ____
ROOT
ATOM     13  C   UNL     1      51.800  19.905  16.849  0.00  0.00    +0.004 C 
ENDROOT
BRANCH  13  12
ATOM     12  C   UNL     1      51.081  21.106  17.467  0.00  0.00    +0.012 C 
BRANCH  12  11
ATOM     11  C   UNL     1      51.162  21.018  18.993  0.00  0.00    +0.051 C 
BRANCH  11  10
ATOM      9  C   UNL     1      48.733  20.655  18.819  0.00  0.00    -0.039 C 
ATOM     10  C   UNL     1      49.770  21.027  19.571  0.00  0.00    +0.009 C 
BRANCH   9   8
ATOM      7  C   UNL     1      46.339  21.075  18.623  0.00  0.00    -0.095 C 
ATOM      8  C   UNL     1      47.381  20.664  19.379  0.00  0.00    +0.106 C 
BRANCH   7   6
ATOM      4  N   UNL     1      44.056  20.234  18.709  0.00  0.00    -0.727 N 
ATOM      5  H   UNL     1      44.280  19.616  17.997  0.00  0.00    +0.401 HD
ATOM      6  C   UNL     1      44.988  21.084  19.184  0.00  0.00    +0.545 C 
ATOM     28  O   UNL     1      44.706  21.860  20.079  0.00  0.00    -0.548 OA
BRANCH   4   3
ATOM      3  C   UNL     1      42.702  20.244  19.270  0.00  0.00    +0.259 C 
BRANCH   3   2
ATOM      1  C   UNL     1      41.248  18.981  20.861  0.00  0.00    +0.032 C 
ATOM      2  C   UNL     1      42.681  19.427  20.564  0.00  0.00    -0.032 C 
ATOM     29  C   UNL     1      43.577  18.197  20.406  0.00  0.00    +0.021 C 
ENDBRANCH   3   2
ENDBRANCH   4   3
ENDBRANCH   7   6
ENDBRANCH   9   8
ENDBRANCH  11  10
ENDBRANCH  12  11
ENDBRANCH  13  12
BRANCH  13  14
ATOM     14  C   UNL     1      52.637  19.203  17.921  0.00  0.00    +0.004 C 
BRANCH  14  15
ATOM     15  C   UNL     1      52.227  17.733  18.006  0.00  0.00    +0.012 C 
BRANCH  15  16
ATOM     16  C   UNL     1      51.514  17.478  19.336  0.00  0.00    +0.051 C 
BRANCH  16  17
ATOM     17  C   UNL     1      50.419  16.462  19.133  0.00  0.00    -0.019 C 
ATOM     18  C   UNL     1      49.475  16.679  18.227  0.00  0.00    -0.002 C 
BRANCH  18  19
ATOM     19  C   UNL     1      48.401  15.683  18.028  0.00  0.00    -0.042 A 
ATOM     20  C   UNL     1      48.412  14.858  16.902  0.00  0.00    +0.033 A 
ATOM     21  C   UNL     1      47.409  13.929  16.719  0.00  0.00    +0.041 A 
ATOM     22  C   UNL     1      46.387  13.812  17.650  0.00  0.00    +0.029 A 
ATOM     23  C   UNL     1      46.370  14.634  18.776  0.00  0.00    +0.035 A 
ATOM     24  O   UNL     1      45.272  14.324  19.525  0.00  0.00    -0.309 OA
ATOM     25  C   UNL     1      44.842  13.031  19.061  0.00  0.00    +0.432 C 
ATOM     26  O   UNL     1      45.299  12.988  17.696  0.00  0.00    -0.309 OA
ATOM     27  C   UNL     1      47.375  15.563  18.967  0.00  0.00    +0.044 A 
ENDBRANCH  18  19
ENDBRANCH  16  17
ENDBRANCH  15  16
ENDBRANCH  14  15
ENDBRANCH  13  14
TORSDOF 12
ENDMDL
MODEL 8
REMARK VINA RESULT:      -4.6      3.592      7.669
REMARK  Name = ZINC13838499
REMARK  14 active torsions:
REMARK  status: ('A' for Active; 'I' for Inactive)
REMARK    1  A    between atoms: C1_1  and  C2_2
REMARK    2  A    between atoms: C2_2  and  C3_3
REMARK    3  A    between atoms: C2_2  and  C4_4
REMARK    4  A    between atoms: C4_4  and  N1_5
REMARK    5  A    between atoms: C5_6  and  C6_8
REMARK    6  A    between atoms: C7_9  and  C8_10
REMARK    7  A    between atoms: C9_11  and  C10_12
REMARK    8  A    between atoms: C10_12  and  C11_13
REMARK    9  A    between atoms: C11_13  and  C12_14
REMARK   10  A    between atoms: C12_14  and  C13_15
REMARK   11  A    between atoms: C13_15  and  C14_16
REMARK   12  A    between atoms: C14_16  and  C15_17
REMARK   13  A    between atoms: C15_17  and  C16_18
REMARK   14  A    between atoms: C17_19  and  C18_20
REMARK                            x       y       z     vdW  Elec       q    Type
REMARK                         _______ _______ _______ _____ _____    ______ ____
ROOT
ATOM     13  C   UNL     1      42.711  19.051  20.552  0.00  0.00    +0.004 C 
ENDROOT
BRANCH  13  12
ATOM     12  C   UNL     1      42.775  18.053  21.710  0.00  0.00    +0.012 C 
BRANCH  12  11
ATOM     11  C   UNL     1      44.216  17.573  21.889  0.00  0.00    +0.051 C 
BRANCH  11  10
ATOM      9  C   UNL     1      45.496  16.422  20.128  0.00  0.00    -0.039 C 
ATOM     10  C   UNL     1      44.470  16.397  20.981  0.00  0.00    +0.009 C 
BRANCH   9   8
ATOM      7  C   UNL     1      46.419  15.455  18.089  0.00  0.00    -0.095 C 
ATOM      8  C   UNL     1      45.743  15.281  19.246  0.00  0.00    +0.106 C 
BRANCH   7   6
ATOM      4  N   UNL     1      47.523  14.434  16.175  0.00  0.00    -0.727 N 
ATOM      5  H   UNL     1      47.978  15.275  16.016  0.00  0.00    +0.401 HD
ATOM      6  C   UNL     1      46.666  14.314  17.207  0.00  0.00    +0.545 C 
ATOM     28  O   UNL     1      46.095  13.257  17.406  0.00  0.00    -0.548 OA
BRANCH   4   3
ATOM      3  C   UNL     1      47.770  13.291  15.291  0.00  0.00    +0.259 C 
BRANCH   3   2
ATOM      1  C   UNL     1      49.481  11.770  16.291  0.00  0.00    +0.032 C 
ATOM      2  C   UNL     1      49.257  12.933  15.323  0.00  0.00    -0.032 C 
ATOM     29  C   UNL     1      49.714  12.526  13.921  0.00  0.00    +0.021 C 
ENDBRANCH   3   2
ENDBRANCH   4   3
ENDBRANCH   7   6
ENDBRANCH   9   8
ENDBRANCH  11  10
ENDBRANCH  12  11
ENDBRANCH  13  12
BRANCH  13  14
ATOM     14  C   UNL     1      43.646  20.228  20.839  0.00  0.00    +0.004 C 
BRANCH  14  15
ATOM     15  C   UNL     1      44.234  20.744  19.526  0.00  0.00    +0.012 C 
BRANCH  15  16
ATOM     16  C   UNL     1      44.498  19.566  18.586  0.00  0.00    +0.051 C 
BRANCH  16  17
ATOM     17  C   UNL     1      45.976  19.463  18.310  0.00  0.00    -0.019 C 
ATOM     18  C   UNL     1      46.849  19.773  19.259  0.00  0.00    -0.002 C 
BRANCH  18  19
ATOM     19  C   UNL     1      48.299  19.673  18.988  0.00  0.00    -0.042 A 
ATOM     20  C   UNL     1      49.088  20.825  18.970  0.00  0.00    +0.033 A 
ATOM     21  C   UNL     1      50.440  20.729  18.718  0.00  0.00    +0.041 A 
ATOM     22  C   UNL     1      51.022  19.492  18.482  0.00  0.00    +0.029 A 
ATOM     23  C   UNL     1      50.238  18.338  18.498  0.00  0.00    +0.035 A 
ATOM     24  O   UNL     1      51.040  17.264  18.239  0.00  0.00    -0.309 OA
ATOM     25  C   UNL     1      52.385  17.723  18.470  0.00  0.00    +0.432 C 
ATOM     26  O   UNL     1      52.312  19.138  18.213  0.00  0.00    -0.309 OA
ATOM     27  C   UNL     1      48.883  18.427  18.755  0.00  0.00    +0.044 A 
ENDBRANCH  18  19
ENDBRANCH  16  17
ENDBRANCH  15  16
ENDBRANCH  14  15
ENDBRANCH  13  14
TORSDOF 12
ENDMDL
MODEL 9
REMARK VINA RESULT:      -4.4      3.781      6.543
REMARK  Name = ZINC13838499
REMARK  14 active torsions:
REMARK  status: ('A' for Active; 'I' for Inactive)
REMARK    1  A    between atoms: C1_1  and  C2_2
REMARK    2  A    between atoms: C2_2  and  C3_3
REMARK    3  A    between atoms: C2_2  and  C4_4
REMARK    4  A    between atoms: C4_4  and  N1_5
REMARK    5  A    between atoms: C5_6  and  C6_8
REMARK    6  A    between atoms: C7_9  and  C8_10
REMARK    7  A    between atoms: C9_11  and  C10_12
REMARK    8  A    between atoms: C10_12  and  C11_13
REMARK    9  A    between atoms: C11_13  and  C12_14
REMARK   10  A    between atoms: C12_14  and  C13_15
REMARK   11  A    between atoms: C13_15  and  C14_16
REMARK   12  A    between atoms: C14_16  and  C15_17
REMARK   13  A    between atoms: C15_17  and  C16_18
REMARK   14  A    between atoms: C17_19  and  C18_20
REMARK                            x       y       z     vdW  Elec       q    Type
REMARK                         _______ _______ _______ _____ _____    ______ ____
ROOT
ATOM     13  C   UNL     1      50.316  12.209  14.183  0.00  0.00    +0.004 C 
ENDROOT
BRANCH  13  12
ATOM     12  C   UNL     1      48.897  12.780  14.177  0.00  0.00    +0.012 C 
BRANCH  12  11
ATOM     11  C   UNL     1      48.003  11.933  15.086  0.00  0.00    +0.051 C 
BRANCH  11  10
ATOM      9  C   UNL     1      47.586  14.132  16.112  0.00  0.00    -0.039 C 
ATOM     10  C   UNL     1      47.325  12.824  16.094  0.00  0.00    +0.009 C 
BRANCH   9   8
ATOM      7  C   UNL     1      46.767  16.313  16.830  0.00  0.00    -0.095 C 
ATOM      8  C   UNL     1      46.928  14.997  17.091  0.00  0.00    +0.106 C 
BRANCH   7   6
ATOM      4  N   UNL     1      45.882  18.474  17.518  0.00  0.00    -0.727 N 
ATOM      5  H   UNL     1      46.154  18.834  16.660  0.00  0.00    +0.401 HD
ATOM      6  C   UNL     1      46.109  17.178  17.809  0.00  0.00    +0.545 C 
ATOM     28  O   UNL     1      45.767  16.726  18.887  0.00  0.00    -0.548 OA
BRANCH   4   3
ATOM      3  C   UNL     1      45.223  19.340  18.499  0.00  0.00    +0.259 C 
BRANCH   3   2
ATOM      1  C   UNL     1      45.151  21.670  19.397  0.00  0.00    +0.032 C 
ATOM      2  C   UNL     1      45.988  20.661  18.609  0.00  0.00    -0.032 C 
ATOM     29  C   UNL     1      47.315  20.423  19.332  0.00  0.00    +0.021 C 
ENDBRANCH   3   2
ENDBRANCH   4   3
ENDBRANCH   7   6
ENDBRANCH   9   8
ENDBRANCH  11  10
ENDBRANCH  12  11
ENDBRANCH  13  12
BRANCH  13  14
ATOM     14  C   UNL     1      51.253  13.177  14.908  0.00  0.00    +0.004 C 
BRANCH  14  15
ATOM     15  C   UNL     1      51.699  12.559  16.234  0.00  0.00    +0.012 C 
BRANCH  15  16
ATOM     16  C   UNL     1      50.974  13.252  17.390  0.00  0.00    +0.051 C 
BRANCH  16  17
ATOM     17  C   UNL     1      51.413  14.692  17.467  0.00  0.00    -0.019 C 
ATOM     18  C   UNL     1      50.539  15.663  17.239  0.00  0.00    -0.002 C 
BRANCH  18  19
ATOM     19  C   UNL     1      50.969  17.076  17.314  0.00  0.00    -0.042 A 
ATOM     20  C   UNL     1      51.538  17.694  16.199  0.00  0.00    +0.033 A 
ATOM     21  C   UNL     1      51.938  19.012  16.271  0.00  0.00    +0.041 A 
ATOM     22  C   UNL     1      51.778  19.727  17.449  0.00  0.00    +0.029 A 
ATOM     23  C   UNL     1      51.210  19.115  18.566  0.00  0.00    +0.035 A 
ATOM     24  O   UNL     1      51.166  20.022  19.585  0.00  0.00    -0.309 OA
ATOM     25  C   UNL     1      51.332  21.309  18.961  0.00  0.00    +0.432 C 
ATOM     26  O   UNL     1      52.087  21.017  17.771  0.00  0.00    -0.309 OA
ATOM     27  C   UNL     1      50.803  17.795  18.498  0.00  0.00    +0.044 A 
ENDBRANCH  18  19
ENDBRANCH  16  17
ENDBRANCH  15  16
ENDBRANCH  14  15
ENDBRANCH  13  14
TORSDOF 12
ENDMDL
