MODEL 1
REMARK VINA RESULT:      -7.1      0.000      0.000
REMARK  Name = ZINC95485939
REMARK  9 active torsions:
REMARK  status: ('A' for Active; 'I' for Inactive)
REMARK    1  A    between atoms: C1_1  and  C2_2
REMARK    2  A    between atoms: C5_6  and  C30_36
REMARK    3  A    between atoms: C8_9  and  C29_35
REMARK    4  A    between atoms: C13_14  and  C25_29
REMARK    5  A    between atoms: C21_23  and  O1_28
REMARK    6  A    between atoms: C22_25  and  C23_26
REMARK    7  A    between atoms: C22_25  and  C24_27
REMARK    8  A    between atoms: C27_32  and  C28_34
REMARK    9  A    between atoms: C30_36  and  C32_38
REMARK                            x       y       z     vdW  Elec       q    Type
REMARK                         _______ _______ _______ _____ _____    ______ ____
ROOT
ATOM      1  C   UNL     1      41.532  19.055  21.042  0.00  0.00    +0.008 C 
ATOM      2  C   UNL     1      43.043  18.809  21.167  0.00  0.00    -0.012 C 
ATOM      3  C   UNL     1      43.658  19.913  22.023  0.00  0.00    +0.007 C 
ATOM      4  C   UNL     1      45.172  19.736  22.104  0.00  0.00    +0.020 C 
ATOM      5  C   UNL     1      45.786  19.814  20.706  0.00  0.00    +0.000 C 
ATOM      9  C   UNL     1      47.306  19.636  20.816  0.00  0.00    +0.012 C 
ATOM     10  C   UNL     1      47.665  18.258  21.358  0.00  0.00    +0.023 C 
ATOM     11  C   UNL     1      47.135  17.166  20.427  0.00  0.00    +0.006 C 
ATOM     12  C   UNL     1      47.736  17.421  19.039  0.00  0.00    +0.023 C 
ATOM     13  C   UNL     1      45.653  17.368  20.259  0.00  0.00    -0.080 C 
ATOM     14  C   UNL     1      44.775  16.435  20.452  0.00  0.00    -0.060 C 
ATOM     15  C   UNL     1      45.109  15.026  20.841  0.00  0.00    +0.088 C 
ATOM     16  C   UNL     1      46.566  14.716  20.470  0.00  0.00    -0.084 C 
ATOM     17  C   UNL     1      46.944  13.243  20.702  0.00  0.00    -0.016 C 
ATOM     18  C   UNL     1      46.867  13.820  19.271  0.00  0.00    -0.053 C 
ATOM     19  C   UNL     1      45.641  13.432  18.446  0.00  0.00    +0.054 C 
ATOM     20  C   UNL     1      45.957  12.664  17.190  0.00  0.00    -0.017 C 
ATOM     21  C   UNL     1      47.103  13.256  16.404  0.00  0.00    +0.174 C 
ATOM     24  C   UNL     1      48.375  13.360  17.220  0.00  0.00    -0.022 C 
ATOM     25  C   UNL     1      49.370  14.205  16.422  0.00  0.00    +0.032 C 
ATOM     26  C   UNL     1      48.968  11.952  17.358  0.00  0.00    +0.026 C 
ATOM     27  C   UNL     1      48.203  13.919  18.585  0.00  0.00    -0.011 C 
ATOM     28  C   UNL     1      49.213  14.860  19.125  0.00  0.00    +0.021 C 
ATOM     29  C   UNL     1      48.977  15.456  20.486  0.00  0.00    +0.014 C 
ATOM     30  C   UNL     1      47.559  15.786  20.893  0.00  0.00    +0.010 C 
ATOM     31  C   UNL     1      47.545  15.767  22.439  0.00  0.00    +0.014 C 
ATOM     32  C   UNL     1      45.180  18.747  19.807  0.00  0.00    +0.056 C 
ATOM     33  C   UNL     1      43.661  18.761  19.778  0.00  0.00    -0.014 C 
ATOM     34  C   UNL     1      43.098  19.870  18.891  0.00  0.00    +0.015 C 
ENDROOT
BRANCH   5   6
ATOM      6  C   UNL     1      45.568  21.204  20.144  0.00  0.00    -0.103 C 
ATOM      7  C   UNL     1      44.970  22.282  21.010  0.00  0.00    +0.067 C 
ATOM      8  C   UNL     1      45.900  21.467  18.904  0.00  0.00    -0.013 C 
ENDBRANCH   5   6
BRANCH  21  22
ATOM     22  O   UNL     1      46.735  14.563  15.956  0.00  0.00    -0.557 OA
ATOM     23  H   UNL     1      47.034  15.277  16.536  0.00  0.00    +0.371 HD
ENDBRANCH  21  22
TORSDOF 2
ENDMDL
MODEL 2
REMARK VINA RESULT:      -6.1      2.888      5.126
REMARK  Name = ZINC95485939
REMARK  9 active torsions:
REMARK  status: ('A' for Active; 'I' for Inactive)
REMARK    1  A    between atoms: C1_1  and  C2_2
REMARK    2  A    between atoms: C5_6  and  C30_36
REMARK    3  A    between atoms: C8_9  and  C29_35
REMARK    4  A    between atoms: C13_14  and  C25_29
REMARK    5  A    between atoms: C21_23  and  O1_28
REMARK    6  A    between atoms: C22_25  and  C23_26
REMARK    7  A    between atoms: C22_25  and  C24_27
REMARK    8  A    between atoms: C27_32  and  C28_34
REMARK    9  A    between atoms: C30_36  and  C32_38
REMARK                            x       y       z     vdW  Elec       q    Type
REMARK                         _______ _______ _______ _____ _____    ______ ____
ROOT
ATOM      1  C   UNL     1      51.474  21.022  16.642  0.00  0.00    +0.008 C 
ATOM      2  C   UNL     1      50.634  20.236  17.660  0.00  0.00    -0.012 C 
ATOM      3  C   UNL     1      50.284  21.151  18.830  0.00  0.00    +0.007 C 
ATOM      4  C   UNL     1      49.510  20.376  19.893  0.00  0.00    +0.020 C 
ATOM      5  C   UNL     1      50.361  19.222  20.425  0.00  0.00    +0.000 C 
ATOM      9  C   UNL     1      49.562  18.462  21.493  0.00  0.00    +0.012 C 
ATOM     10  C   UNL     1      48.310  17.826  20.900  0.00  0.00    +0.023 C 
ATOM     11  C   UNL     1      48.689  16.828  19.804  0.00  0.00    +0.006 C 
ATOM     12  C   UNL     1      49.625  15.791  20.437  0.00  0.00    +0.023 C 
ATOM     13  C   UNL     1      49.528  17.546  18.782  0.00  0.00    -0.080 C 
ATOM     14  C   UNL     1      49.274  17.539  17.511  0.00  0.00    -0.060 C 
ATOM     15  C   UNL     1      48.133  16.797  16.881  0.00  0.00    +0.088 C 
ATOM     16  C   UNL     1      47.660  15.677  17.817  0.00  0.00    -0.084 C 
ATOM     17  C   UNL     1      46.589  14.775  17.182  0.00  0.00    -0.016 C 
ATOM     18  C   UNL     1      48.000  14.225  17.492  0.00  0.00    -0.053 C 
ATOM     19  C   UNL     1      48.936  14.045  16.298  0.00  0.00    +0.054 C 
ATOM     20  C   UNL     1      49.376  12.624  16.064  0.00  0.00    -0.017 C 
ATOM     21  C   UNL     1      49.800  11.917  17.331  0.00  0.00    +0.174 C 
ATOM     24  C   UNL     1      48.708  11.901  18.381  0.00  0.00    -0.022 C 
ATOM     25  C   UNL     1      49.330  11.408  19.688  0.00  0.00    +0.032 C 
ATOM     26  C   UNL     1      47.652  10.874  17.953  0.00  0.00    +0.026 C 
ATOM     27  C   UNL     1      48.021  13.200  18.593  0.00  0.00    -0.011 C 
ATOM     28  C   UNL     1      47.667  13.625  19.969  0.00  0.00    +0.021 C 
ATOM     29  C   UNL     1      47.028  14.975  20.156  0.00  0.00    +0.014 C 
ATOM     30  C   UNL     1      47.467  16.111  19.261  0.00  0.00    +0.010 C 
ATOM     31  C   UNL     1      46.287  17.110  19.233  0.00  0.00    +0.014 C 
ATOM     32  C   UNL     1      50.759  18.296  19.286  0.00  0.00    +0.056 C 
ATOM     33  C   UNL     1      51.412  19.011  18.115  0.00  0.00    -0.014 C 
ATOM     34  C   UNL     1      52.876  19.361  18.380  0.00  0.00    +0.015 C 
ENDROOT
BRANCH   5   6
ATOM      6  C   UNL     1      51.576  19.784  21.134  0.00  0.00    -0.103 C 
ATOM      7  C   UNL     1      51.763  21.275  21.243  0.00  0.00    +0.067 C 
ATOM      8  C   UNL     1      52.464  18.972  21.653  0.00  0.00    -0.013 C 
ENDBRANCH   5   6
BRANCH  21  22
ATOM     22  O   UNL     1      50.949  12.576  17.870  0.00  0.00    -0.557 OA
ATOM     23  H   UNL     1      51.691  12.639  17.254  0.00  0.00    +0.371 HD
ENDBRANCH  21  22
TORSDOF 2
ENDMDL
MODEL 3
REMARK VINA RESULT:      -6.1      1.600      7.166
REMARK  Name = ZINC95485939
REMARK  9 active torsions:
REMARK  status: ('A' for Active; 'I' for Inactive)
REMARK    1  A    between atoms: C1_1  and  C2_2
REMARK    2  A    between atoms: C5_6  and  C30_36
REMARK    3  A    between atoms: C8_9  and  C29_35
REMARK    4  A    between atoms: C13_14  and  C25_29
REMARK    5  A    between atoms: C21_23  and  O1_28
REMARK    6  A    between atoms: C22_25  and  C23_26
REMARK    7  A    between atoms: C22_25  and  C24_27
REMARK    8  A    between atoms: C27_32  and  C28_34
REMARK    9  A    between atoms: C30_36  and  C32_38
REMARK                            x       y       z     vdW  Elec       q    Type
REMARK                         _______ _______ _______ _____ _____    ______ ____
ROOT
ATOM      1  C   UNL     1      50.457  13.980  16.132  0.00  0.00    +0.008 C 
ATOM      2  C   UNL     1      49.558  14.067  17.373  0.00  0.00    -0.012 C 
ATOM      3  C   UNL     1      49.485  12.693  18.034  0.00  0.00    +0.007 C 
ATOM      4  C   UNL     1      48.537  12.732  19.230  0.00  0.00    +0.020 C 
ATOM      5  C   UNL     1      47.131  13.120  18.774  0.00  0.00    +0.000 C 
ATOM      9  C   UNL     1      46.199  13.149  19.993  0.00  0.00    +0.012 C 
ATOM     10  C   UNL     1      46.628  14.217  20.993  0.00  0.00    +0.023 C 
ATOM     11  C   UNL     1      46.587  15.601  20.342  0.00  0.00    +0.006 C 
ATOM     12  C   UNL     1      45.158  15.821  19.833  0.00  0.00    +0.023 C 
ATOM     13  C   UNL     1      47.447  15.568  19.108  0.00  0.00    -0.080 C 
ATOM     14  C   UNL     1      48.389  16.424  18.866  0.00  0.00    -0.060 C 
ATOM     15  C   UNL     1      48.736  17.576  19.761  0.00  0.00    +0.088 C 
ATOM     16  C   UNL     1      47.544  17.904  20.671  0.00  0.00    -0.084 C 
ATOM     17  C   UNL     1      47.766  19.169  21.518  0.00  0.00    -0.016 C 
ATOM     18  C   UNL     1      46.703  19.148  20.396  0.00  0.00    -0.053 C 
ATOM     19  C   UNL     1      47.062  19.884  19.106  0.00  0.00    +0.054 C 
ATOM     20  C   UNL     1      46.143  21.028  18.770  0.00  0.00    -0.017 C 
ATOM     21  C   UNL     1      44.681  20.684  18.933  0.00  0.00    +0.174 C 
ATOM     24  C   UNL     1      44.347  20.214  20.333  0.00  0.00    -0.022 C 
ATOM     25  C   UNL     1      42.926  19.649  20.306  0.00  0.00    +0.032 C 
ATOM     26  C   UNL     1      44.342  21.439  21.258  0.00  0.00    +0.026 C 
ATOM     27  C   UNL     1      45.287  19.216  20.902  0.00  0.00    -0.011 C 
ATOM     28  C   UNL     1      44.760  18.082  21.698  0.00  0.00    +0.021 C 
ATOM     29  C   UNL     1      45.734  17.054  22.208  0.00  0.00    +0.014 C 
ATOM     30  C   UNL     1      46.919  16.692  21.343  0.00  0.00    +0.010 C 
ATOM     31  C   UNL     1      48.003  16.157  22.308  0.00  0.00    +0.014 C 
ATOM     32  C   UNL     1      47.159  14.475  18.082  0.00  0.00    +0.056 C 
ATOM     33  C   UNL     1      48.182  14.570  16.962  0.00  0.00    -0.014 C 
ATOM     34  C   UNL     1      47.714  13.890  15.677  0.00  0.00    +0.015 C 
ENDROOT
BRANCH   5   6
ATOM      6  C   UNL     1      46.588  12.041  17.860  0.00  0.00    -0.103 C 
ATOM      7  C   UNL     1      47.379  10.779  17.631  0.00  0.00    +0.067 C 
ATOM      8  C   UNL     1      45.430  12.205  17.269  0.00  0.00    -0.013 C 
ENDBRANCH   5   6
BRANCH  21  22
ATOM     22  O   UNL     1      44.339  19.651  18.006  0.00  0.00    -0.557 OA
ATOM     23  H   UNL     1      44.561  18.761  18.310  0.00  0.00    +0.371 HD
ENDBRANCH  21  22
TORSDOF 2
ENDMDL
MODEL 4
REMARK VINA RESULT:      -5.5      1.932      7.538
REMARK  Name = ZINC95485939
REMARK  9 active torsions:
REMARK  status: ('A' for Active; 'I' for Inactive)
REMARK    1  A    between atoms: C1_1  and  C2_2
REMARK    2  A    between atoms: C5_6  and  C30_36
REMARK    3  A    between atoms: C8_9  and  C29_35
REMARK    4  A    between atoms: C13_14  and  C25_29
REMARK    5  A    between atoms: C21_23  and  O1_28
REMARK    6  A    between atoms: C22_25  and  C23_26
REMARK    7  A    between atoms: C22_25  and  C24_27
REMARK    8  A    between atoms: C27_32  and  C28_34
REMARK    9  A    between atoms: C30_36  and  C32_38
REMARK                            x       y       z     vdW  Elec       q    Type
REMARK                         _______ _______ _______ _____ _____    ______ ____
ROOT
ATOM      1  C   UNL     1      51.486  10.921  18.376  0.00  0.00    +0.008 C 
ATOM      2  C   UNL     1      50.057  11.479  18.440  0.00  0.00    -0.012 C 
ATOM      3  C   UNL     1      49.084  10.414  17.939  0.00  0.00    +0.007 C 
ATOM      4  C   UNL     1      47.661  10.966  17.921  0.00  0.00    +0.020 C 
ATOM      5  C   UNL     1      47.577  12.171  16.984  0.00  0.00    +0.000 C 
ATOM      9  C   UNL     1      46.138  12.704  16.982  0.00  0.00    +0.012 C 
ATOM     10  C   UNL     1      45.732  13.212  18.361  0.00  0.00    +0.023 C 
ATOM     11  C   UNL     1      46.652  14.354  18.797  0.00  0.00    +0.006 C 
ATOM     12  C   UNL     1      46.560  15.447  17.724  0.00  0.00    +0.023 C 
ATOM     13  C   UNL     1      48.073  13.864  18.742  0.00  0.00    -0.080 C 
ATOM     14  C   UNL     1      48.905  13.959  19.731  0.00  0.00    -0.060 C 
ATOM     15  C   UNL     1      48.579  14.590  21.052  0.00  0.00    +0.088 C 
ATOM     16  C   UNL     1      47.381  15.536  20.895  0.00  0.00    -0.084 C 
ATOM     17  C   UNL     1      47.076  16.336  22.174  0.00  0.00    -0.016 C 
ATOM     18  C   UNL     1      47.603  17.046  20.907  0.00  0.00    -0.053 C 
ATOM     19  C   UNL     1      49.071  17.471  20.927  0.00  0.00    +0.054 C 
ATOM     20  C   UNL     1      49.288  18.956  20.800  0.00  0.00    -0.017 C 
ATOM     21  C   UNL     1      48.446  19.589  19.717  0.00  0.00    +0.174 C 
ATOM     24  C   UNL     1      46.964  19.350  19.917  0.00  0.00    -0.022 C 
ATOM     25  C   UNL     1      46.246  19.796  18.643  0.00  0.00    +0.032 C 
ATOM     26  C   UNL     1      46.486  20.254  21.061  0.00  0.00    +0.026 C 
ATOM     27  C   UNL     1      46.593  17.952  20.256  0.00  0.00    -0.011 C 
ATOM     28  C   UNL     1      45.378  17.350  19.655  0.00  0.00    +0.021 C 
ATOM     29  C   UNL     1      45.065  15.912  19.970  0.00  0.00    +0.014 C 
ATOM     30  C   UNL     1      46.213  14.942  20.126  0.00  0.00    +0.010 C 
ATOM     31  C   UNL     1      45.681  13.794  21.015  0.00  0.00    +0.014 C 
ATOM     32  C   UNL     1      48.553  13.250  17.429  0.00  0.00    +0.056 C 
ATOM     33  C   UNL     1      49.976  12.751  17.611  0.00  0.00    -0.014 C 
ATOM     34  C   UNL     1      50.717  12.587  16.284  0.00  0.00    +0.015 C 
ENDROOT
BRANCH   5   6
ATOM      6  C   UNL     1      47.857  11.721  15.565  0.00  0.00    -0.103 C 
ATOM      7  C   UNL     1      47.965  12.739  14.459  0.00  0.00    +0.067 C 
ATOM      8  C   UNL     1      48.004  10.446  15.300  0.00  0.00    -0.013 C 
ENDBRANCH   5   6
BRANCH  21  22
ATOM     22  O   UNL     1      48.833  19.050  18.451  0.00  0.00    -0.557 OA
ATOM     23  H   UNL     1      49.260  19.690  17.865  0.00  0.00    +0.371 HD
ENDBRANCH  21  22
TORSDOF 2
ENDMDL
MODEL 5
REMARK VINA RESULT:      -5.5      3.354      7.099
REMARK  Name = ZINC95485939
REMARK  9 active torsions:
REMARK  status: ('A' for Active; 'I' for Inactive)
REMARK    1  A    between atoms: C1_1  and  C2_2
REMARK    2  A    between atoms: C5_6  and  C30_36
REMARK    3  A    between atoms: C8_9  and  C29_35
REMARK    4  A    between atoms: C13_14  and  C25_29
REMARK    5  A    between atoms: C21_23  and  O1_28
REMARK    6  A    between atoms: C22_25  and  C23_26
REMARK    7  A    between atoms: C22_25  and  C24_27
REMARK    8  A    between atoms: C27_32  and  C28_34
REMARK    9  A    between atoms: C30_36  and  C32_38
REMARK                            x       y       z     vdW  Elec       q    Type
REMARK                         _______ _______ _______ _____ _____    ______ ____
ROOT
ATOM      1  C   UNL     1      47.922  13.270  15.243  0.00  0.00    +0.008 C 
ATOM      2  C   UNL     1      48.336  13.661  16.670  0.00  0.00    -0.012 C 
ATOM      3  C   UNL     1      47.854  12.586  17.641  0.00  0.00    +0.007 C 
ATOM      4  C   UNL     1      48.188  12.985  19.076  0.00  0.00    +0.020 C 
ATOM      5  C   UNL     1      47.493  14.300  19.431  0.00  0.00    +0.000 C 
ATOM      9  C   UNL     1      47.842  14.676  20.878  0.00  0.00    +0.012 C 
ATOM     10  C   UNL     1      49.336  14.930  21.040  0.00  0.00    +0.023 C 
ATOM     11  C   UNL     1      49.778  16.085  20.139  0.00  0.00    +0.006 C 
ATOM     12  C   UNL     1      48.935  17.307  20.520  0.00  0.00    +0.023 C 
ATOM     13  C   UNL     1      49.384  15.758  18.724  0.00  0.00    -0.080 C 
ATOM     14  C   UNL     1      50.206  15.791  17.723  0.00  0.00    -0.060 C 
ATOM     15  C   UNL     1      51.650  16.184  17.828  0.00  0.00    +0.088 C 
ATOM     16  C   UNL     1      51.873  17.014  19.099  0.00  0.00    -0.084 C 
ATOM     17  C   UNL     1      53.299  17.581  19.205  0.00  0.00    -0.016 C 
ATOM     18  C   UNL     1      52.091  18.521  18.991  0.00  0.00    -0.053 C 
ATOM     19  C   UNL     1      51.912  19.087  17.583  0.00  0.00    +0.054 C 
ATOM     20  C   UNL     1      51.993  20.589  17.505  0.00  0.00    -0.017 C 
ATOM     21  C   UNL     1      51.201  21.284  18.587  0.00  0.00    +0.174 C 
ATOM     24  C   UNL     1      51.627  20.866  19.979  0.00  0.00    -0.022 C 
ATOM     25  C   UNL     1      50.597  21.418  20.965  0.00  0.00    +0.032 C 
ATOM     26  C   UNL     1      52.972  21.538  20.288  0.00  0.00    +0.026 C 
ATOM     27  C   UNL     1      51.794  19.403  20.173  0.00  0.00    -0.011 C 
ATOM     28  C   UNL     1      51.335  18.774  21.434  0.00  0.00    +0.021 C 
ATOM     29  C   UNL     1      51.461  17.280  21.574  0.00  0.00    +0.014 C 
ATOM     30  C   UNL     1      51.243  16.421  20.350  0.00  0.00    +0.010 C 
ATOM     31  C   UNL     1      52.014  15.106  20.610  0.00  0.00    +0.014 C 
ATOM     32  C   UNL     1      47.923  15.396  18.469  0.00  0.00    +0.056 C 
ATOM     33  C   UNL     1      47.757  15.026  17.005  0.00  0.00    -0.014 C 
ATOM     34  C   UNL     1      46.309  15.136  16.530  0.00  0.00    +0.015 C 
ENDROOT
BRANCH   5   6
ATOM      6  C   UNL     1      45.992  14.094  19.404  0.00  0.00    -0.103 C 
ATOM      7  C   UNL     1      45.419  12.797  18.895  0.00  0.00    +0.067 C 
ATOM      8  C   UNL     1      45.194  15.044  19.824  0.00  0.00    -0.013 C 
ENDBRANCH   5   6
BRANCH  21  22
ATOM     22  O   UNL     1      49.815  20.980  18.419  0.00  0.00    -0.557 OA
ATOM     23  H   UNL     1      49.411  20.546  19.183  0.00  0.00    +0.371 HD
ENDBRANCH  21  22
TORSDOF 2
ENDMDL
MODEL 6
REMARK VINA RESULT:      -5.5      3.670      8.259
REMARK  Name = ZINC95485939
REMARK  9 active torsions:
REMARK  status: ('A' for Active; 'I' for Inactive)
REMARK    1  A    between atoms: C1_1  and  C2_2
REMARK    2  A    between atoms: C5_6  and  C30_36
REMARK    3  A    between atoms: C8_9  and  C29_35
REMARK    4  A    between atoms: C13_14  and  C25_29
REMARK    5  A    between atoms: C21_23  and  O1_28
REMARK    6  A    between atoms: C22_25  and  C23_26
REMARK    7  A    between atoms: C22_25  and  C24_27
REMARK    8  A    between atoms: C27_32  and  C28_34
REMARK    9  A    between atoms: C30_36  and  C32_38
REMARK                            x       y       z     vdW  Elec       q    Type
REMARK                         _______ _______ _______ _____ _____    ______ ____
ROOT
ATOM      1  C   UNL     1      52.803  11.262  15.365  0.00  0.00    +0.008 C 
ATOM      2  C   UNL     1      51.762  11.846  16.332  0.00  0.00    -0.012 C 
ATOM      3  C   UNL     1      50.697  10.790  16.614  0.00  0.00    +0.007 C 
ATOM      4  C   UNL     1      49.608  11.367  17.516  0.00  0.00    +0.020 C 
ATOM      5  C   UNL     1      48.935  12.556  16.831  0.00  0.00    +0.000 C 
ATOM      9  C   UNL     1      47.844  13.115  17.755  0.00  0.00    +0.012 C 
ATOM     10  C   UNL     1      48.438  13.654  19.051  0.00  0.00    +0.023 C 
ATOM     11  C   UNL     1      49.422  14.788  18.753  0.00  0.00    +0.006 C 
ATOM     12  C   UNL     1      48.654  15.862  17.973  0.00  0.00    +0.023 C 
ATOM     13  C   UNL     1      50.461  14.272  17.796  0.00  0.00    -0.080 C 
ATOM     14  C   UNL     1      51.737  14.369  18.000  0.00  0.00    -0.060 C 
ATOM     15  C   UNL     1      52.354  15.029  19.197  0.00  0.00    +0.088 C 
ATOM     16  C   UNL     1      51.346  15.994  19.836  0.00  0.00    -0.084 C 
ATOM     17  C   UNL     1      51.951  16.821  20.984  0.00  0.00    -0.016 C 
ATOM     18  C   UNL     1      51.524  17.500  19.662  0.00  0.00    -0.053 C 
ATOM     19  C   UNL     1      52.650  17.898  18.708  0.00  0.00    +0.054 C 
ATOM     20  C   UNL     1      52.734  19.376  18.434  0.00  0.00    -0.017 C 
ATOM     21  C   UNL     1      51.390  20.005  18.147  0.00  0.00    +0.174 C 
ATOM     24  C   UNL     1      50.398  19.796  19.272  0.00  0.00    -0.022 C 
ATOM     25  C   UNL     1      49.023  20.232  18.765  0.00  0.00    +0.032 C 
ATOM     26  C   UNL     1      50.785  20.729  20.427  0.00  0.00    +0.026 C 
ATOM     27  C   UNL     1      50.336  18.412  19.805  0.00  0.00    -0.011 C 
ATOM     28  C   UNL     1      49.023  17.821  20.159  0.00  0.00    +0.021 C 
ATOM     29  C   UNL     1      48.988  16.394  20.638  0.00  0.00    +0.014 C 
ATOM     30  C   UNL     1      49.958  15.406  20.031  0.00  0.00    +0.010 C 
ATOM     31  C   UNL     1      50.133  14.284  21.080  0.00  0.00    +0.014 C 
ATOM     32  C   UNL     1      49.966  13.626  16.504  0.00  0.00    +0.056 C 
ATOM     33  C   UNL     1      51.162  13.105  15.725  0.00  0.00    -0.014 C 
ATOM     34  C   UNL     1      50.857  12.904  14.242  0.00  0.00    +0.015 C 
ENDROOT
BRANCH   5   6
ATOM      6  C   UNL     1      48.219  12.076  15.586  0.00  0.00    -0.103 C 
ATOM      7  C   UNL     1      48.106  10.599  15.304  0.00  0.00    +0.067 C 
ATOM      8  C   UNL     1      47.700  12.943  14.753  0.00  0.00    -0.013 C 
ENDBRANCH   5   6
BRANCH  21  22
ATOM     22  O   UNL     1      50.856  19.437  16.949  0.00  0.00    -0.557 OA
ATOM     23  H   UNL     1      50.296  18.662  17.097  0.00  0.00    +0.371 HD
ENDBRANCH  21  22
TORSDOF 2
ENDMDL
MODEL 7
REMARK VINA RESULT:      -5.3      1.872      7.127
REMARK  Name = ZINC95485939
REMARK  9 active torsions:
REMARK  status: ('A' for Active; 'I' for Inactive)
REMARK    1  A    between atoms: C1_1  and  C2_2
REMARK    2  A    between atoms: C5_6  and  C30_36
REMARK    3  A    between atoms: C8_9  and  C29_35
REMARK    4  A    between atoms: C13_14  and  C25_29
REMARK    5  A    between atoms: C21_23  and  O1_28
REMARK    6  A    between atoms: C22_25  and  C23_26
REMARK    7  A    between atoms: C22_25  and  C24_27
REMARK    8  A    between atoms: C27_32  and  C28_34
REMARK    9  A    between atoms: C30_36  and  C32_38
REMARK                            x       y       z     vdW  Elec       q    Type
REMARK                         _______ _______ _______ _____ _____    ______ ____
ROOT
ATOM      1  C   UNL     1      48.283  13.167  15.843  0.00  0.00    +0.008 C 
ATOM      2  C   UNL     1      48.669  14.059  17.032  0.00  0.00    -0.012 C 
ATOM      3  C   UNL     1      49.940  13.512  17.674  0.00  0.00    +0.007 C 
ATOM      4  C   UNL     1      50.307  14.337  18.905  0.00  0.00    +0.020 C 
ATOM      5  C   UNL     1      49.181  14.270  19.937  0.00  0.00    +0.000 C 
ATOM      9  C   UNL     1      49.575  15.104  21.164  0.00  0.00    +0.012 C 
ATOM     10  C   UNL     1      49.732  16.577  20.805  0.00  0.00    +0.023 C 
ATOM     11  C   UNL     1      48.414  17.135  20.266  0.00  0.00    +0.006 C 
ATOM     12  C   UNL     1      47.349  16.909  21.347  0.00  0.00    +0.023 C 
ATOM     13  C   UNL     1      47.982  16.287  19.102  0.00  0.00    -0.080 C 
ATOM     14  C   UNL     1      47.671  16.766  17.939  0.00  0.00    -0.060 C 
ATOM     15  C   UNL     1      47.672  18.227  17.599  0.00  0.00    +0.088 C 
ATOM     16  C   UNL     1      47.566  19.060  18.884  0.00  0.00    -0.084 C 
ATOM     17  C   UNL     1      47.413  20.566  18.613  0.00  0.00    -0.016 C 
ATOM     18  C   UNL     1      46.252  19.754  19.230  0.00  0.00    -0.053 C 
ATOM     19  C   UNL     1      45.090  19.412  18.299  0.00  0.00    +0.054 C 
ATOM     20  C   UNL     1      43.766  19.990  18.722  0.00  0.00    -0.017 C 
ATOM     21  C   UNL     1      43.485  19.814  20.197  0.00  0.00    +0.174 C 
ATOM     24  C   UNL     1      44.561  20.425  21.070  0.00  0.00    -0.022 C 
ATOM     25  C   UNL     1      44.313  19.959  22.505  0.00  0.00    +0.032 C 
ATOM     26  C   UNL     1      44.390  21.949  21.041  0.00  0.00    +0.026 C 
ATOM     27  C   UNL     1      45.954  20.114  20.661  0.00  0.00    -0.011 C 
ATOM     28  C   UNL     1      46.975  19.822  21.696  0.00  0.00    +0.021 C 
ATOM     29  C   UNL     1      48.362  19.450  21.246  0.00  0.00    +0.014 C 
ATOM     30  C   UNL     1      48.515  18.624  19.990  0.00  0.00    +0.010 C 
ATOM     31  C   UNL     1      49.933  18.926  19.452  0.00  0.00    +0.014 C 
ATOM     32  C   UNL     1      47.883  14.780  19.330  0.00  0.00    +0.056 C 
ATOM     33  C   UNL     1      47.513  14.107  18.019  0.00  0.00    -0.014 C 
ATOM     34  C   UNL     1      46.908  12.719  18.220  0.00  0.00    +0.015 C 
ENDROOT
BRANCH   5   6
ATOM      6  C   UNL     1      49.041  12.844  20.430  0.00  0.00    -0.103 C 
ATOM      7  C   UNL     1      47.946  12.488  21.402  0.00  0.00    +0.067 C 
ATOM      8  C   UNL     1      49.871  11.922  20.010  0.00  0.00    -0.013 C 
ENDBRANCH   5   6
BRANCH  21  22
ATOM     22  O   UNL     1      43.390  18.418  20.490  0.00  0.00    -0.557 OA
ATOM     23  H   UNL     1      43.034  18.224  21.368  0.00  0.00    +0.371 HD
ENDBRANCH  21  22
TORSDOF 2
ENDMDL
MODEL 8
REMARK VINA RESULT:      -5.2      3.767      7.637
REMARK  Name = ZINC95485939
REMARK  9 active torsions:
REMARK  status: ('A' for Active; 'I' for Inactive)
REMARK    1  A    between atoms: C1_1  and  C2_2
REMARK    2  A    between atoms: C5_6  and  C30_36
REMARK    3  A    between atoms: C8_9  and  C29_35
REMARK    4  A    between atoms: C13_14  and  C25_29
REMARK    5  A    between atoms: C21_23  and  O1_28
REMARK    6  A    between atoms: C22_25  and  C23_26
REMARK    7  A    between atoms: C22_25  and  C24_27
REMARK    8  A    between atoms: C27_32  and  C28_34
REMARK    9  A    between atoms: C30_36  and  C32_38
REMARK                            x       y       z     vdW  Elec       q    Type
REMARK                         _______ _______ _______ _____ _____    ______ ____
ROOT
ATOM      1  C   UNL     1      45.657  13.106  17.469  0.00  0.00    +0.008 C 
ATOM      2  C   UNL     1      47.153  13.406  17.644  0.00  0.00    -0.012 C 
ATOM      3  C   UNL     1      47.947  12.120  17.432  0.00  0.00    +0.007 C 
ATOM      4  C   UNL     1      49.433  12.372  17.673  0.00  0.00    +0.020 C 
ATOM      5  C   UNL     1      49.660  12.844  19.109  0.00  0.00    +0.000 C 
ATOM      9  C   UNL     1      51.160  13.087  19.325  0.00  0.00    +0.012 C 
ATOM     10  C   UNL     1      51.676  14.205  18.426  0.00  0.00    +0.023 C 
ATOM     11  C   UNL     1      50.944  15.512  18.731  0.00  0.00    +0.006 C 
ATOM     12  C   UNL     1      51.158  15.816  20.219  0.00  0.00    +0.023 C 
ATOM     13  C   UNL     1      49.466  15.272  18.586  0.00  0.00    -0.080 C 
ATOM     14  C   UNL     1      48.687  16.004  17.853  0.00  0.00    -0.060 C 
ATOM     15  C   UNL     1      49.140  17.202  17.074  0.00  0.00    +0.088 C 
ATOM     16  C   UNL     1      50.456  17.735  17.657  0.00  0.00    -0.084 C 
ATOM     17  C   UNL     1      50.912  19.052  17.006  0.00  0.00    -0.016 C 
ATOM     18  C   UNL     1      50.453  19.019  18.482  0.00  0.00    -0.053 C 
ATOM     19  C   UNL     1      49.063  19.582  18.774  0.00  0.00    +0.054 C 
ATOM     20  C   UNL     1      49.057  20.769  19.700  0.00  0.00    -0.017 C 
ATOM     21  C   UNL     1      49.947  20.586  20.907  0.00  0.00    +0.174 C 
ATOM     24  C   UNL     1      51.385  20.295  20.531  0.00  0.00    -0.022 C 
ATOM     25  C   UNL     1      52.120  19.870  21.802  0.00  0.00    +0.032 C 
ATOM     26  C   UNL     1      52.022  21.602  20.041  0.00  0.00    +0.026 C 
ATOM     27  C   UNL     1      51.562  19.275  19.467  0.00  0.00    -0.011 C 
ATOM     28  C   UNL     1      52.659  18.283  19.578  0.00  0.00    +0.021 C 
ATOM     29  C   UNL     1      52.773  17.224  18.514  0.00  0.00    +0.014 C 
ATOM     30  C   UNL     1      51.503  16.663  17.916  0.00  0.00    +0.010 C 
ATOM     31  C   UNL     1      51.892  16.128  16.518  0.00  0.00    +0.014 C 
ATOM     32  C   UNL     1      48.863  14.112  19.375  0.00  0.00    +0.056 C 
ATOM     33  C   UNL     1      47.389  13.994  19.027  0.00  0.00    -0.014 C 
ATOM     34  C   UNL     1      46.592  13.235  20.086  0.00  0.00    +0.015 C 
ENDROOT
BRANCH   5   6
ATOM      6  C   UNL     1      49.276  11.735  20.066  0.00  0.00    -0.103 C 
ATOM      7  C   UNL     1      49.051  10.337  19.548  0.00  0.00    +0.067 C 
ATOM      8  C   UNL     1      49.138  11.991  21.343  0.00  0.00    -0.013 C 
ENDBRANCH   5   6
BRANCH  21  22
ATOM     22  O   UNL     1      49.448  19.501  21.694  0.00  0.00    -0.557 OA
ATOM     23  H   UNL     1      48.879  18.890  21.205  0.00  0.00    +0.371 HD
ENDBRANCH  21  22
TORSDOF 2
ENDMDL
MODEL 9
REMARK VINA RESULT:      -5.2      1.692      7.283
REMARK  Name = ZINC95485939
REMARK  9 active torsions:
REMARK  status: ('A' for Active; 'I' for Inactive)
REMARK    1  A    between atoms: C1_1  and  C2_2
REMARK    2  A    between atoms: C5_6  and  C30_36
REMARK    3  A    between atoms: C8_9  and  C29_35
REMARK    4  A    between atoms: C13_14  and  C25_29
REMARK    5  A    between atoms: C21_23  and  O1_28
REMARK    6  A    between atoms: C22_25  and  C23_26
REMARK    7  A    between atoms: C22_25  and  C24_27
REMARK    8  A    between atoms: C27_32  and  C28_34
REMARK    9  A    between atoms: C30_36  and  C32_38
REMARK                            x       y       z     vdW  Elec       q    Type
REMARK                         _______ _______ _______ _____ _____    ______ ____
ROOT
ATOM      1  C   UNL     1      52.091  13.505  18.671  0.00  0.00    +0.008 C 
ATOM      2  C   UNL     1      50.580  13.562  18.937  0.00  0.00    -0.012 C 
ATOM      3  C   UNL     1      49.993  12.161  18.780  0.00  0.00    +0.007 C 
ATOM      4  C   UNL     1      48.478  12.200  18.967  0.00  0.00    +0.020 C 
ATOM      5  C   UNL     1      47.842  13.107  17.914  0.00  0.00    +0.000 C 
ATOM      9  C   UNL     1      46.321  13.126  18.122  0.00  0.00    +0.012 C 
ATOM     10  C   UNL     1      45.954  13.727  19.474  0.00  0.00    +0.023 C 
ATOM     11  C   UNL     1      46.455  15.169  19.568  0.00  0.00    +0.006 C 
ATOM     12  C   UNL     1      45.833  15.943  18.399  0.00  0.00    +0.023 C 
ATOM     13  C   UNL     1      47.936  15.173  19.302  0.00  0.00    -0.080 C 
ATOM     14  C   UNL     1      48.806  15.723  20.089  0.00  0.00    -0.060 C 
ATOM     15  C   UNL     1      48.460  16.453  21.353  0.00  0.00    +0.088 C 
ATOM     16  C   UNL     1      46.994  16.904  21.309  0.00  0.00    -0.084 C 
ATOM     17  C   UNL     1      46.601  17.787  22.506  0.00  0.00    -0.016 C 
ATOM     18  C   UNL     1      46.661  18.375  21.077  0.00  0.00    -0.053 C 
ATOM     19  C   UNL     1      47.868  19.255  20.755  0.00  0.00    +0.054 C 
ATOM     20  C   UNL     1      47.521  20.675  20.393  0.00  0.00    -0.017 C 
ATOM     21  C   UNL     1      46.369  20.776  19.421  0.00  0.00    +0.174 C 
ATOM     24  C   UNL     1      45.112  20.105  19.936  0.00  0.00    -0.022 C 
ATOM     25  C   UNL     1      44.115  20.037  18.779  0.00  0.00    +0.032 C 
ATOM     26  C   UNL     1      44.504  21.004  21.021  0.00  0.00    +0.026 C 
ATOM     27  C   UNL     1      45.315  18.756  20.522  0.00  0.00    -0.011 C 
ATOM     28  C   UNL     1      44.326  17.685  20.254  0.00  0.00    +0.021 C 
ATOM     29  C   UNL     1      44.593  16.312  20.811  0.00  0.00    +0.014 C 
ATOM     30  C   UNL     1      46.021  15.822  20.867  0.00  0.00    +0.010 C 
ATOM     31  C   UNL     1      46.061  14.756  21.987  0.00  0.00    +0.014 C 
ATOM     32  C   UNL     1      48.419  14.511  18.014  0.00  0.00    +0.056 C 
ATOM     33  C   UNL     1      49.937  14.553  17.979  0.00  0.00    -0.014 C 
ATOM     34  C   UNL     1      50.499  14.391  16.567  0.00  0.00    +0.015 C 
ENDROOT
BRANCH   5   6
ATOM      6  C   UNL     1      48.067  12.511  16.540  0.00  0.00    -0.103 C 
ATOM      7  C   UNL     1      48.717  11.157  16.403  0.00  0.00    +0.067 C 
ATOM      8  C   UNL     1      47.697  13.171  15.471  0.00  0.00    -0.013 C 
ENDBRANCH   5   6
BRANCH  21  22
ATOM     22  O   UNL     1      46.746  20.162  18.186  0.00  0.00    -0.557 OA
ATOM     23  H   UNL     1      46.002  19.974  17.597  0.00  0.00    +0.371 HD
ENDBRANCH  21  22
TORSDOF 2
ENDMDL
