MODEL 1
REMARK VINA RESULT:      -6.8      0.000      0.000
REMARK  Name = ZINC95486071
REMARK  1 active torsions:
REMARK  status: ('A' for Active; 'I' for Inactive)
REMARK    1  A    between atoms: C9_13  and  O4_29
REMARK                            x       y       z     vdW  Elec       q    Type
REMARK                         _______ _______ _______ _____ _____    ______ ____
ROOT
ATOM      1  C   UNL     1      46.497  16.242  17.496  0.00  0.00    +0.111 A 
ATOM      2  C   UNL     1      46.122  17.288  18.323  0.00  0.00    -0.133 A 
ATOM      3  C   UNL     1      45.465  17.118  19.545  0.00  0.00    +0.158 A 
ATOM      4  N   UNL     1      45.110  18.345  20.092  0.00  0.00    -0.536 N 
ATOM      5  C   UNL     1      44.615  18.621  21.312  0.00  0.00    +0.508 C 
ATOM      6  C   UNL     1      44.479  20.055  21.733  0.00  0.00    +0.207 C 
ATOM      9  C   UNL     1      44.588  21.027  20.564  0.00  0.00    -0.055 C 
ATOM     10  C   UNL     1      43.429  20.840  19.579  0.00  0.00    +0.063 C 
ATOM     11  C   UNL     1      43.935  19.775  18.541  0.00  0.00    +0.046 C 
ATOM     12  C   UNL     1      44.847  22.392  21.121  0.00  0.00    +0.006 C 
ATOM     13  C   UNL     1      46.090  22.679  21.431  0.00  0.00    -0.048 C 
ATOM     14  C   UNL     1      47.284  21.800  21.196  0.00  0.00    +0.283 C 
ATOM     15  N   UNL     1      47.076  20.796  20.193  0.00  0.00    -0.631 NA
ATOM     16  C   UNL     1      47.782  19.530  20.134  0.00  0.00    +0.228 C 
ATOM     17  C   UNL     1      47.775  19.040  18.679  0.00  0.00    +0.048 C 
ATOM     18  C   UNL     1      45.774  20.712  19.643  0.00  0.00    +0.224 C 
ATOM     19  O   UNL     1      44.286  17.724  22.060  0.00  0.00    -0.512 OA
ATOM     20  C   UNL     1      45.328  19.381  19.062  0.00  0.00    +0.149 C 
ATOM     21  C   UNL     1      45.183  15.842  20.055  0.00  0.00    +0.050 A 
ATOM     22  C   UNL     1      45.572  14.784  19.235  0.00  0.00    +0.058 A 
ATOM     23  O   UNL     1      45.434  13.454  19.455  0.00  0.00    -0.305 OA
ATOM     24  C   UNL     1      46.325  12.813  18.517  0.00  0.00    +0.431 C 
ATOM     25  O   UNL     1      46.437  13.763  17.437  0.00  0.00    -0.305 OA
ATOM     26  C   UNL     1      46.355  18.779  18.132  0.00  0.00    +0.095 C 
ATOM     27  C   UNL     1      46.198  14.973  17.996  0.00  0.00    +0.007 A 
ENDROOT
BRANCH   6   7
ATOM      7  O   UNL     1      43.208  20.233  22.361  0.00  0.00    -0.536 OA
ATOM      8  H   UNL     1      43.262  20.519  23.283  0.00  0.00    +0.391 HD
ENDBRANCH   6   7
TORSDOF 1
ENDMDL
MODEL 2
REMARK VINA RESULT:      -6.6      2.829      7.039
REMARK  Name = ZINC95486071
REMARK  1 active torsions:
REMARK  status: ('A' for Active; 'I' for Inactive)
REMARK    1  A    between atoms: C9_13  and  O4_29
REMARK                            x       y       z     vdW  Elec       q    Type
REMARK                         _______ _______ _______ _____ _____    ______ ____
ROOT
ATOM      1  C   UNL     1      44.565  15.795  21.888  0.00  0.00    +0.111 A 
ATOM      2  C   UNL     1      45.257  15.243  20.822  0.00  0.00    -0.133 A 
ATOM      3  C   UNL     1      45.463  15.896  19.604  0.00  0.00    +0.158 A 
ATOM      4  N   UNL     1      46.081  15.055  18.687  0.00  0.00    -0.536 N 
ATOM      5  C   UNL     1      46.589  15.345  17.476  0.00  0.00    +0.508 C 
ATOM      6  C   UNL     1      47.372  14.291  16.747  0.00  0.00    +0.207 C 
ATOM      9  C   UNL     1      47.175  12.897  17.333  0.00  0.00    -0.055 C 
ATOM     10  C   UNL     1      45.725  12.430  17.173  0.00  0.00    +0.063 C 
ATOM     11  C   UNL     1      44.988  12.913  18.474  0.00  0.00    +0.046 C 
ATOM     12  C   UNL     1      48.275  12.022  16.819  0.00  0.00    +0.006 C 
ATOM     13  C   UNL     1      49.426  12.087  17.448  0.00  0.00    -0.048 C 
ATOM     14  C   UNL     1      49.713  12.889  18.684  0.00  0.00    +0.283 C 
ATOM     15  N   UNL     1      48.540  13.243  19.430  0.00  0.00    -0.631 NA
ATOM     16  C   UNL     1      48.433  14.401  20.297  0.00  0.00    +0.228 C 
ATOM     17  C   UNL     1      47.351  14.118  21.350  0.00  0.00    +0.048 C 
ATOM     18  C   UNL     1      47.296  12.879  18.862  0.00  0.00    +0.224 C 
ATOM     19  O   UNL     1      46.419  16.440  16.982  0.00  0.00    -0.512 OA
ATOM     20  C   UNL     1      46.069  13.689  19.246  0.00  0.00    +0.149 C 
ATOM     21  C   UNL     1      45.019  17.211  19.393  0.00  0.00    +0.050 A 
ATOM     22  C   UNL     1      44.335  17.779  20.467  0.00  0.00    +0.058 A 
ATOM     23  O   UNL     1      43.793  19.017  20.560  0.00  0.00    -0.305 OA
ATOM     24  C   UNL     1      43.562  19.232  21.968  0.00  0.00    +0.431 C 
ATOM     25  O   UNL     1      43.411  17.901  22.505  0.00  0.00    -0.305 OA
ATOM     26  C   UNL     1      45.951  13.891  20.739  0.00  0.00    +0.095 C 
ATOM     27  C   UNL     1      44.107  17.095  21.669  0.00  0.00    +0.007 A 
ENDROOT
BRANCH   6   7
ATOM      7  O   UNL     1      46.960  14.276  15.379  0.00  0.00    -0.536 OA
ATOM      8  H   UNL     1      47.572  14.725  14.779  0.00  0.00    +0.391 HD
ENDBRANCH   6   7
TORSDOF 1
ENDMDL
MODEL 3
REMARK VINA RESULT:      -6.2      4.438      5.760
REMARK  Name = ZINC95486071
REMARK  1 active torsions:
REMARK  status: ('A' for Active; 'I' for Inactive)
REMARK    1  A    between atoms: C9_13  and  O4_29
REMARK                            x       y       z     vdW  Elec       q    Type
REMARK                         _______ _______ _______ _____ _____    ______ ____
ROOT
ATOM      1  C   UNL     1      51.050  14.610  16.717  0.00  0.00    +0.111 A 
ATOM      2  C   UNL     1      51.029  15.879  17.274  0.00  0.00    -0.133 A 
ATOM      3  C   UNL     1      49.859  16.591  17.547  0.00  0.00    +0.158 A 
ATOM      4  N   UNL     1      50.151  17.876  17.988  0.00  0.00    -0.536 N 
ATOM      5  C   UNL     1      49.327  18.807  18.500  0.00  0.00    +0.508 C 
ATOM      6  C   UNL     1      49.917  20.063  19.073  0.00  0.00    +0.207 C 
ATOM      9  C   UNL     1      51.372  20.272  18.666  0.00  0.00    -0.055 C 
ATOM     10  C   UNL     1      51.497  20.485  17.153  0.00  0.00    +0.063 C 
ATOM     11  C   UNL     1      51.695  19.048  16.548  0.00  0.00    +0.046 C 
ATOM     12  C   UNL     1      51.967  21.289  19.588  0.00  0.00    +0.006 C 
ATOM     13  C   UNL     1      52.391  20.855  20.752  0.00  0.00    -0.048 C 
ATOM     14  C   UNL     1      52.415  19.425  21.207  0.00  0.00    +0.283 C 
ATOM     15  N   UNL     1      52.371  18.475  20.133  0.00  0.00    -0.631 NA
ATOM     16  C   UNL     1      51.850  17.126  20.247  0.00  0.00    +0.228 C 
ATOM     17  C   UNL     1      52.513  16.259  19.166  0.00  0.00    +0.048 C 
ATOM     18  C   UNL     1      52.217  19.003  18.828  0.00  0.00    +0.224 C 
ATOM     19  O   UNL     1      48.126  18.635  18.499  0.00  0.00    -0.512 OA
ATOM     20  C   UNL     1      51.592  18.115  17.766  0.00  0.00    +0.149 C 
ATOM     21  C   UNL     1      48.591  16.034  17.322  0.00  0.00    +0.050 A 
ATOM     22  C   UNL     1      48.603  14.751  16.776  0.00  0.00    +0.058 A 
ATOM     23  O   UNL     1      47.549  13.965  16.451  0.00  0.00    -0.305 OA
ATOM     24  C   UNL     1      48.091  12.636  16.302  0.00  0.00    +0.431 C 
ATOM     25  O   UNL     1      49.471  12.857  15.948  0.00  0.00    -0.305 OA
ATOM     26  C   UNL     1      52.203  16.733  17.730  0.00  0.00    +0.095 C 
ATOM     27  C   UNL     1      49.787  14.065  16.474  0.00  0.00    +0.007 A 
ENDROOT
BRANCH   6   7
ATOM      7  O   UNL     1      49.150  21.181  18.622  0.00  0.00    -0.536 OA
ATOM      8  H   UNL     1      48.313  21.299  19.092  0.00  0.00    +0.391 HD
ENDBRANCH   6   7
TORSDOF 1
ENDMDL
MODEL 4
REMARK VINA RESULT:      -5.9      2.027      3.511
REMARK  Name = ZINC95486071
REMARK  1 active torsions:
REMARK  status: ('A' for Active; 'I' for Inactive)
REMARK    1  A    between atoms: C9_13  and  O4_29
REMARK                            x       y       z     vdW  Elec       q    Type
REMARK                         _______ _______ _______ _____ _____    ______ ____
ROOT
ATOM      1  C   UNL     1      44.346  15.886  21.821  0.00  0.00    +0.111 A 
ATOM      2  C   UNL     1      44.488  17.154  21.281  0.00  0.00    -0.133 A 
ATOM      3  C   UNL     1      45.202  17.427  20.111  0.00  0.00    +0.158 A 
ATOM      4  N   UNL     1      45.274  18.796  19.882  0.00  0.00    -0.536 N 
ATOM      5  C   UNL     1      45.725  19.454  18.799  0.00  0.00    +0.508 C 
ATOM      6  C   UNL     1      45.532  20.940  18.721  0.00  0.00    +0.207 C 
ATOM      9  C   UNL     1      45.164  21.560  20.064  0.00  0.00    -0.055 C 
ATOM     10  C   UNL     1      46.306  21.408  21.075  0.00  0.00    +0.063 C 
ATOM     11  C   UNL     1      46.035  20.043  21.804  0.00  0.00    +0.046 C 
ATOM     12  C   UNL     1      44.608  22.926  19.805  0.00  0.00    +0.006 C 
ATOM     13  C   UNL     1      43.342  22.994  19.465  0.00  0.00    -0.048 C 
ATOM     14  C   UNL     1      42.381  21.843  19.399  0.00  0.00    +0.283 C 
ATOM     15  N   UNL     1      42.790  20.702  20.167  0.00  0.00    -0.631 NA
ATOM     16  C   UNL     1      42.400  19.334  19.883  0.00  0.00    +0.228 C 
ATOM     17  C   UNL     1      42.481  18.528  21.188  0.00  0.00    +0.048 C 
ATOM     18  C   UNL     1      44.059  20.782  20.790  0.00  0.00    +0.224 C 
ATOM     19  O   UNL     1      46.278  18.855  17.901  0.00  0.00    -0.512 OA
ATOM     20  C   UNL     1      44.789  19.485  21.095  0.00  0.00    +0.149 C 
ATOM     21  C   UNL     1      45.790  16.402  19.355  0.00  0.00    +0.050 A 
ATOM     22  C   UNL     1      45.638  15.122  19.883  0.00  0.00    +0.058 A 
ATOM     23  O   UNL     1      46.091  13.946  19.385  0.00  0.00    -0.305 OA
ATOM     24  C   UNL     1      45.349  12.921  20.079  0.00  0.00    +0.431 C 
ATOM     25  O   UNL     1      44.985  13.540  21.331  0.00  0.00    -0.305 OA
ATOM     26  C   UNL     1      43.906  18.468  21.780  0.00  0.00    +0.095 C 
ATOM     27  C   UNL     1      44.949  14.870  21.077  0.00  0.00    +0.007 A 
ENDROOT
BRANCH   6   7
ATOM      7  O   UNL     1      46.743  21.539  18.256  0.00  0.00    -0.536 OA
ATOM      8  H   UNL     1      47.357  20.916  17.842  0.00  0.00    +0.391 HD
ENDBRANCH   6   7
TORSDOF 1
ENDMDL
MODEL 5
REMARK VINA RESULT:      -5.8      3.149      5.163
REMARK  Name = ZINC95486071
REMARK  1 active torsions:
REMARK  status: ('A' for Active; 'I' for Inactive)
REMARK    1  A    between atoms: C9_13  and  O4_29
REMARK                            x       y       z     vdW  Elec       q    Type
REMARK                         _______ _______ _______ _____ _____    ______ ____
ROOT
ATOM      1  C   UNL     1      49.013  20.969  18.716  0.00  0.00    +0.111 A 
ATOM      2  C   UNL     1      48.084  20.209  19.409  0.00  0.00    -0.133 A 
ATOM      3  C   UNL     1      48.419  19.284  20.402  0.00  0.00    +0.158 A 
ATOM      4  N   UNL     1      47.296  18.589  20.832  0.00  0.00    -0.536 N 
ATOM      5  C   UNL     1      47.166  17.742  21.869  0.00  0.00    +0.508 C 
ATOM      6  C   UNL     1      45.795  17.253  22.239  0.00  0.00    +0.207 C 
ATOM      9  C   UNL     1      44.762  17.507  21.147  0.00  0.00    -0.055 C 
ATOM     10  C   UNL     1      45.089  16.709  19.880  0.00  0.00    +0.063 C 
ATOM     11  C   UNL     1      46.004  17.653  19.020  0.00  0.00    +0.046 C 
ATOM     12  C   UNL     1      43.402  17.366  21.756  0.00  0.00    +0.006 C 
ATOM     13  C   UNL     1      42.931  18.410  22.398  0.00  0.00    -0.048 C 
ATOM     14  C   UNL     1      43.589  19.756  22.500  0.00  0.00    +0.283 C 
ATOM     15  N   UNL     1      44.563  20.004  21.476  0.00  0.00    -0.631 NA
ATOM     16  C   UNL     1      45.691  20.905  21.613  0.00  0.00    +0.228 C 
ATOM     17  C   UNL     1      46.104  21.378  20.211  0.00  0.00    +0.048 C 
ATOM     18  C   UNL     1      44.833  18.934  20.589  0.00  0.00    +0.224 C 
ATOM     19  O   UNL     1      48.140  17.381  22.495  0.00  0.00    -0.512 OA
ATOM     20  C   UNL     1      46.189  18.898  19.905  0.00  0.00    +0.149 C 
ATOM     21  C   UNL     1      49.748  19.098  20.812  0.00  0.00    +0.050 A 
ATOM     22  C   UNL     1      50.687  19.870  20.130  0.00  0.00    +0.058 A 
ATOM     23  O   UNL     1      52.030  19.908  20.301  0.00  0.00    -0.305 OA
ATOM     24  C   UNL     1      52.469  21.116  19.644  0.00  0.00    +0.431 C 
ATOM     25  O   UNL     1      51.462  21.353  18.638  0.00  0.00    -0.305 OA
ATOM     26  C   UNL     1      46.567  20.226  19.293  0.00  0.00    +0.095 C 
ATOM     27  C   UNL     1      50.336  20.767  19.112  0.00  0.00    +0.007 A 
ENDROOT
BRANCH   6   7
ATOM      7  O   UNL     1      45.860  15.848  22.492  0.00  0.00    -0.536 OA
ATOM      8  H   UNL     1      46.550  15.390  21.993  0.00  0.00    +0.391 HD
ENDBRANCH   6   7
TORSDOF 1
ENDMDL
MODEL 6
REMARK VINA RESULT:      -5.8      2.904      6.590
REMARK  Name = ZINC95486071
REMARK  1 active torsions:
REMARK  status: ('A' for Active; 'I' for Inactive)
REMARK    1  A    between atoms: C9_13  and  O4_29
REMARK                            x       y       z     vdW  Elec       q    Type
REMARK                         _______ _______ _______ _____ _____    ______ ____
ROOT
ATOM      1  C   UNL     1      47.488  21.529  20.891  0.00  0.00    +0.111 A 
ATOM      2  C   UNL     1      47.999  20.470  20.158  0.00  0.00    -0.133 A 
ATOM      3  C   UNL     1      47.268  19.756  19.205  0.00  0.00    +0.158 A 
ATOM      4  N   UNL     1      47.999  18.678  18.723  0.00  0.00    -0.536 N 
ATOM      5  C   UNL     1      47.723  17.855  17.697  0.00  0.00    +0.508 C 
ATOM      6  C   UNL     1      48.765  16.869  17.255  0.00  0.00    +0.207 C 
ATOM      9  C   UNL     1      49.881  16.690  18.279  0.00  0.00    -0.055 C 
ATOM     10  C   UNL     1      49.346  16.077  19.578  0.00  0.00    +0.063 C 
ATOM     11  C   UNL     1      48.929  17.300  20.473  0.00  0.00    +0.046 C 
ATOM     12  C   UNL     1      51.036  16.030  17.593  0.00  0.00    +0.006 C 
ATOM     13  C   UNL     1      51.838  16.809  16.906  0.00  0.00    -0.048 C 
ATOM     14  C   UNL     1      51.756  18.305  16.817  0.00  0.00    +0.283 C 
ATOM     15  N   UNL     1      51.022  18.910  17.891  0.00  0.00    -0.631 NA
ATOM     16  C   UNL     1      50.332  20.183  17.804  0.00  0.00    +0.228 C 
ATOM     17  C   UNL     1      50.225  20.772  19.219  0.00  0.00    +0.048 C 
ATOM     18  C   UNL     1      50.410  18.028  18.813  0.00  0.00    +0.224 C 
ATOM     19  O   UNL     1      46.648  17.908  17.136  0.00  0.00    -0.512 OA
ATOM     20  C   UNL     1      49.193  18.522  19.577  0.00  0.00    +0.149 C 
ATOM     21  C   UNL     1      45.949  20.109  18.878  0.00  0.00    +0.050 A 
ATOM     22  C   UNL     1      45.433  21.184  19.600  0.00  0.00    +0.058 A 
ATOM     23  O   UNL     1      44.204  21.747  19.508  0.00  0.00    -0.305 OA
ATOM     24  C   UNL     1      44.316  23.027  20.166  0.00  0.00    +0.431 C 
ATOM     25  O   UNL     1      45.395  22.844  21.106  0.00  0.00    -0.305 OA
ATOM     26  C   UNL     1      49.405  19.889  20.185  0.00  0.00    +0.095 C 
ATOM     27  C   UNL     1      46.170  21.866  20.578  0.00  0.00    +0.007 A 
ENDROOT
BRANCH   6   7
ATOM      7  O   UNL     1      48.140  15.603  17.034  0.00  0.00    -0.536 OA
ATOM      8  H   UNL     1      47.994  15.395  16.100  0.00  0.00    +0.391 HD
ENDBRANCH   6   7
TORSDOF 1
ENDMDL
MODEL 7
REMARK VINA RESULT:      -5.8      3.911      6.520
REMARK  Name = ZINC95486071
REMARK  1 active torsions:
REMARK  status: ('A' for Active; 'I' for Inactive)
REMARK    1  A    between atoms: C9_13  and  O4_29
REMARK                            x       y       z     vdW  Elec       q    Type
REMARK                         _______ _______ _______ _____ _____    ______ ____
ROOT
ATOM      1  C   UNL     1      45.720  18.392  18.583  0.00  0.00    +0.111 A 
ATOM      2  C   UNL     1      47.104  18.373  18.659  0.00  0.00    -0.133 A 
ATOM      3  C   UNL     1      47.889  19.512  18.855  0.00  0.00    +0.158 A 
ATOM      4  N   UNL     1      49.241  19.205  18.766  0.00  0.00    -0.536 N 
ATOM      5  C   UNL     1      50.308  19.973  19.049  0.00  0.00    +0.508 C 
ATOM      6  C   UNL     1      51.673  19.350  19.044  0.00  0.00    +0.207 C 
ATOM      9  C   UNL     1      51.699  17.989  18.357  0.00  0.00    -0.055 C 
ATOM     10  C   UNL     1      51.366  18.117  16.866  0.00  0.00    +0.063 C 
ATOM     11  C   UNL     1      49.805  17.961  16.775  0.00  0.00    +0.046 C 
ATOM     12  C   UNL     1      52.964  17.295  18.756  0.00  0.00    +0.006 C 
ATOM     13  C   UNL     1      52.957  16.672  19.911  0.00  0.00    -0.048 C 
ATOM     14  C   UNL     1      51.776  16.518  20.825  0.00  0.00    +0.283 C 
ATOM     15  N   UNL     1      50.511  16.697  20.173  0.00  0.00    -0.631 NA
ATOM     16  C   UNL     1      49.297  17.138  20.833  0.00  0.00    +0.228 C 
ATOM     17  C   UNL     1      48.095  16.622  20.029  0.00  0.00    +0.048 C 
ATOM     18  C   UNL     1      50.551  17.078  18.810  0.00  0.00    +0.224 C 
ATOM     19  O   UNL     1      50.168  21.151  19.306  0.00  0.00    -0.512 OA
ATOM     20  C   UNL     1      49.359  17.830  18.242  0.00  0.00    +0.149 C 
ATOM     21  C   UNL     1      47.311  20.777  19.050  0.00  0.00    +0.050 A 
ATOM     22  C   UNL     1      45.919  20.801  18.991  0.00  0.00    +0.058 A 
ATOM     23  O   UNL     1      45.088  21.861  19.138  0.00  0.00    -0.305 OA
ATOM     24  C   UNL     1      43.781  21.297  19.375  0.00  0.00    +0.431 C 
ATOM     25  O   UNL     1      43.839  20.001  18.744  0.00  0.00    -0.305 OA
ATOM     26  C   UNL     1      48.042  17.177  18.589  0.00  0.00    +0.095 C 
ATOM     27  C   UNL     1      45.148  19.653  18.757  0.00  0.00    +0.007 A 
ENDROOT
BRANCH   6   7
ATOM      7  O   UNL     1      52.577  20.224  18.365  0.00  0.00    -0.536 OA
ATOM      8  H   UNL     1      53.480  19.884  18.303  0.00  0.00    +0.391 HD
ENDBRANCH   6   7
TORSDOF 1
ENDMDL
MODEL 8
REMARK VINA RESULT:      -5.8      3.978      6.997
REMARK  Name = ZINC95486071
REMARK  1 active torsions:
REMARK  status: ('A' for Active; 'I' for Inactive)
REMARK    1  A    between atoms: C9_13  and  O4_29
REMARK                            x       y       z     vdW  Elec       q    Type
REMARK                         _______ _______ _______ _____ _____    ______ ____
ROOT
ATOM      1  C   UNL     1      49.445  20.053  19.438  0.00  0.00    +0.111 A 
ATOM      2  C   UNL     1      48.987  18.810  19.031  0.00  0.00    -0.133 A 
ATOM      3  C   UNL     1      49.736  17.917  18.260  0.00  0.00    +0.158 A 
ATOM      4  N   UNL     1      48.977  16.809  17.906  0.00  0.00    -0.536 N 
ATOM      5  C   UNL     1      49.367  15.666  17.315  0.00  0.00    +0.508 C 
ATOM      6  C   UNL     1      48.384  14.537  17.198  0.00  0.00    +0.207 C 
ATOM      9  C   UNL     1      46.946  14.977  17.451  0.00  0.00    -0.055 C 
ATOM     10  C   UNL     1      46.474  15.965  16.379  0.00  0.00    +0.063 C 
ATOM     11  C   UNL     1      46.844  17.388  16.934  0.00  0.00    +0.046 C 
ATOM     12  C   UNL     1      46.128  13.751  17.711  0.00  0.00    +0.006 C 
ATOM     13  C   UNL     1      46.158  13.268  18.932  0.00  0.00    -0.048 C 
ATOM     14  C   UNL     1      46.864  13.880  20.107  0.00  0.00    +0.283 C 
ATOM     15  N   UNL     1      47.144  15.279  19.951  0.00  0.00    -0.631 NA
ATOM     16  C   UNL     1      48.229  15.981  20.609  0.00  0.00    +0.228 C 
ATOM     17  C   UNL     1      47.851  17.466  20.713  0.00  0.00    +0.048 C 
ATOM     18  C   UNL     1      46.809  15.854  18.702  0.00  0.00    +0.224 C 
ATOM     19  O   UNL     1      50.495  15.549  16.883  0.00  0.00    -0.512 OA
ATOM     20  C   UNL     1      47.571  17.092  18.257  0.00  0.00    +0.149 C 
ATOM     21  C   UNL     1      51.057  18.204  17.883  0.00  0.00    +0.050 A 
ATOM     22  C   UNL     1      51.531  19.446  18.302  0.00  0.00    +0.058 A 
ATOM     23  O   UNL     1      52.751  19.997  18.093  0.00  0.00    -0.305 OA
ATOM     24  C   UNL     1      52.852  21.082  19.038  0.00  0.00    +0.431 C 
ATOM     25  O   UNL     1      51.482  21.460  19.286  0.00  0.00    -0.305 OA
ATOM     26  C   UNL     1      47.655  18.142  19.339  0.00  0.00    +0.095 C 
ATOM     27  C   UNL     1      50.752  20.345  19.045  0.00  0.00    +0.007 A 
ENDROOT
BRANCH   6   7
ATOM      7  O   UNL     1      48.470  13.984  15.884  0.00  0.00    -0.536 OA
ATOM      8  H   UNL     1      48.388  13.021  15.856  0.00  0.00    +0.391 HD
ENDBRANCH   6   7
TORSDOF 1
ENDMDL
MODEL 9
REMARK VINA RESULT:      -5.7      2.009      3.281
REMARK  Name = ZINC95486071
REMARK  1 active torsions:
REMARK  status: ('A' for Active; 'I' for Inactive)
REMARK    1  A    between atoms: C9_13  and  O4_29
REMARK                            x       y       z     vdW  Elec       q    Type
REMARK                         _______ _______ _______ _____ _____    ______ ____
ROOT
ATOM      1  C   UNL     1      44.857  15.233  20.598  0.00  0.00    +0.111 A 
ATOM      2  C   UNL     1      45.344  16.529  20.569  0.00  0.00    -0.133 A 
ATOM      3  C   UNL     1      46.290  16.986  19.647  0.00  0.00    +0.158 A 
ATOM      4  N   UNL     1      46.676  18.289  19.936  0.00  0.00    -0.536 N 
ATOM      5  C   UNL     1      47.432  19.132  19.210  0.00  0.00    +0.508 C 
ATOM      6  C   UNL     1      47.560  20.560  19.657  0.00  0.00    +0.207 C 
ATOM      9  C   UNL     1      47.098  20.773  21.094  0.00  0.00    -0.055 C 
ATOM     10  C   UNL     1      47.992  20.015  22.080  0.00  0.00    +0.063 C 
ATOM     11  C   UNL     1      47.329  18.600  22.240  0.00  0.00    +0.046 C 
ATOM     12  C   UNL     1      46.883  22.240  21.297  0.00  0.00    +0.006 C 
ATOM     13  C   UNL     1      45.735  22.732  20.891  0.00  0.00    -0.048 C 
ATOM     14  C   UNL     1      44.588  21.946  20.326  0.00  0.00    +0.283 C 
ATOM     15  N   UNL     1      44.619  20.552  20.663  0.00  0.00    -0.631 NA
ATOM     16  C   UNL     1      44.015  19.498  19.870  0.00  0.00    +0.228 C 
ATOM     17  C   UNL     1      43.703  18.314  20.797  0.00  0.00    +0.048 C 
ATOM     18  C   UNL     1      45.750  20.101  21.385  0.00  0.00    +0.224 C 
ATOM     19  O   UNL     1      47.999  18.745  18.210  0.00  0.00    -0.512 OA
ATOM     20  C   UNL     1      46.138  18.637  21.266  0.00  0.00    +0.149 C 
ATOM     21  C   UNL     1      46.781  16.155  18.628  0.00  0.00    +0.050 A 
ATOM     22  C   UNL     1      46.283  14.854  18.641  0.00  0.00    +0.058 A 
ATOM     23  O   UNL     1      46.568  13.834  17.795  0.00  0.00    -0.305 OA
ATOM     24  C   UNL     1      45.526  12.858  18.002  0.00  0.00    +0.431 C 
ATOM     25  O   UNL     1      45.083  13.099  19.353  0.00  0.00    -0.305 OA
ATOM     26  C   UNL     1      44.962  17.707  21.454  0.00  0.00    +0.095 C 
ATOM     27  C   UNL     1      45.361  14.402  19.596  0.00  0.00    +0.007 A 
ENDROOT
BRANCH   6   7
ATOM      7  O   UNL     1      48.929  20.955  19.552  0.00  0.00    -0.536 OA
ATOM      8  H   UNL     1      49.080  21.897  19.711  0.00  0.00    +0.391 HD
ENDBRANCH   6   7
TORSDOF 1
ENDMDL
