MODEL 1
REMARK VINA RESULT:      -6.1      0.000      0.000
REMARK  Name = ZINC95486152
REMARK  5 active torsions:
REMARK  status: ('A' for Active; 'I' for Inactive)
REMARK    1  A    between atoms: C1_1  and  C2_2
REMARK    2  A    between atoms: C6_6  and  C19_24
REMARK    3  A    between atoms: C6_6  and  C20_25
REMARK    4  A    between atoms: C11_12  and  C12_14
REMARK    5  A    between atoms: C12_14  and  C13_15
REMARK                            x       y       z     vdW  Elec       q    Type
REMARK                         _______ _______ _______ _____ _____    ______ ____
ROOT
ATOM      1  C   UNL     1      50.193  17.791  19.797  0.00  0.00    +0.028 C 
ATOM      2  C   UNL     1      49.366  18.567  18.760  0.00  0.00    -0.030 C 
ATOM      3  C   UNL     1      49.128  17.656  17.554  0.00  0.00    +0.019 C 
ATOM      4  C   UNL     1      50.464  17.347  16.875  0.00  0.00    +0.006 C 
ATOM      5  C   UNL     1      51.068  18.646  16.352  0.00  0.00    +0.012 C 
ATOM      6  C   UNL     1      51.293  19.658  17.473  0.00  0.00    -0.050 C 
ATOM      7  C   UNL     1      51.606  21.009  16.785  0.00  0.00    +0.011 C 
ATOM      8  C   UNL     1      52.528  19.269  18.284  0.00  0.00    +0.023 C 
ATOM      9  C   UNL     1      48.017  18.891  19.422  0.00  0.00    +0.033 C 
ATOM     18  C   UNL     1      48.242  19.865  20.581  0.00  0.00    +0.026 C 
ATOM     19  C   UNL     1      48.294  19.309  22.000  0.00  0.00    +0.185 C 
ATOM     20  O   UNL     1      47.160  20.023  21.508  0.00  0.00    -0.345 OA
ATOM     21  C   UNL     1      49.062  21.113  20.258  0.00  0.00    +0.045 C 
ATOM     22  C   UNL     1      50.365  20.725  19.555  0.00  0.00    +0.032 C 
ATOM     23  C   UNL     1      50.058  19.851  18.338  0.00  0.00    +0.008 C 
ENDROOT
BRANCH   9  10
ATOM     10  C   UNL     1      47.027  19.490  18.429  0.00  0.00    +0.078 C 
BRANCH  10  11
ATOM     11  C   UNL     1      45.625  19.097  18.819  0.00  0.00    +0.107 C 
ATOM     12  C   UNL     1      44.741  20.035  19.155  0.00  0.00    -0.232 C 
ATOM     13  C   UNL     1      44.959  21.539  19.196  0.00  0.00    +0.070 C 
ATOM     14  C   UNL     1      43.581  22.082  19.630  0.00  0.00    +0.249 C 
ATOM     15  O   UNL     1      42.669  20.999  19.381  0.00  0.00    -0.343 OA
ATOM     16  C   UNL     1      43.335  19.839  19.561  0.00  0.00    +0.514 C 
ATOM     17  O   UNL     1      42.858  18.806  19.987  0.00  0.00    -0.447 OA
ENDBRANCH  10  11
ENDBRANCH   9  10
TORSDOF 2
ENDMDL
MODEL 2
REMARK VINA RESULT:      -5.8      2.506      6.380
REMARK  Name = ZINC95486152
REMARK  5 active torsions:
REMARK  status: ('A' for Active; 'I' for Inactive)
REMARK    1  A    between atoms: C1_1  and  C2_2
REMARK    2  A    between atoms: C6_6  and  C19_24
REMARK    3  A    between atoms: C6_6  and  C20_25
REMARK    4  A    between atoms: C11_12  and  C12_14
REMARK    5  A    between atoms: C12_14  and  C13_15
REMARK                            x       y       z     vdW  Elec       q    Type
REMARK                         _______ _______ _______ _____ _____    ______ ____
ROOT
ATOM      1  C   UNL     1      44.844  21.162  19.045  0.00  0.00    +0.028 C 
ATOM      2  C   UNL     1      45.870  20.283  19.778  0.00  0.00    -0.030 C 
ATOM      3  C   UNL     1      46.507  19.336  18.760  0.00  0.00    +0.019 C 
ATOM      4  C   UNL     1      45.446  18.375  18.220  0.00  0.00    +0.006 C 
ATOM      5  C   UNL     1      44.919  17.521  19.368  0.00  0.00    +0.012 C 
ATOM      6  C   UNL     1      44.310  18.376  20.477  0.00  0.00    -0.050 C 
ATOM      7  C   UNL     1      44.105  17.436  21.690  0.00  0.00    +0.011 C 
ATOM      8  C   UNL     1      42.929  18.872  20.053  0.00  0.00    +0.023 C 
ATOM      9  C   UNL     1      46.948  21.229  20.331  0.00  0.00    +0.033 C 
ATOM     18  C   UNL     1      46.332  22.126  21.407  0.00  0.00    +0.026 C 
ATOM     19  C   UNL     1      45.921  23.545  21.026  0.00  0.00    +0.185 C 
ATOM     20  O   UNL     1      47.091  23.277  21.799  0.00  0.00    -0.345 OA
ATOM     21  C   UNL     1      45.545  21.412  22.505  0.00  0.00    +0.045 C 
ATOM     22  C   UNL     1      44.528  20.448  21.889  0.00  0.00    +0.032 C 
ATOM     23  C   UNL     1      45.231  19.504  20.914  0.00  0.00    +0.008 C 
ENDROOT
BRANCH   9  10
ATOM     10  C   UNL     1      48.131  20.462  20.913  0.00  0.00    +0.078 C 
BRANCH  10  11
ATOM     11  C   UNL     1      49.415  21.138  20.507  0.00  0.00    +0.107 C 
ATOM     12  C   UNL     1      50.168  20.611  19.543  0.00  0.00    -0.232 C 
ATOM     13  C   UNL     1      49.894  19.348  18.742  0.00  0.00    +0.070 C 
ATOM     14  C   UNL     1      51.098  19.276  17.779  0.00  0.00    +0.249 C 
ATOM     15  O   UNL     1      51.656  20.600  17.794  0.00  0.00    -0.343 OA
ATOM     16  C   UNL     1      51.446  21.130  19.017  0.00  0.00    +0.514 C 
ATOM     17  O   UNL     1      52.187  21.904  19.591  0.00  0.00    -0.447 OA
ENDBRANCH  10  11
ENDBRANCH   9  10
TORSDOF 2
ENDMDL
MODEL 3
REMARK VINA RESULT:      -5.7      2.859      4.408
REMARK  Name = ZINC95486152
REMARK  5 active torsions:
REMARK  status: ('A' for Active; 'I' for Inactive)
REMARK    1  A    between atoms: C1_1  and  C2_2
REMARK    2  A    between atoms: C6_6  and  C19_24
REMARK    3  A    between atoms: C6_6  and  C20_25
REMARK    4  A    between atoms: C11_12  and  C12_14
REMARK    5  A    between atoms: C12_14  and  C13_15
REMARK                            x       y       z     vdW  Elec       q    Type
REMARK                         _______ _______ _______ _____ _____    ______ ____
ROOT
ATOM      1  C   UNL     1      50.501  18.831  20.647  0.00  0.00    +0.028 C 
ATOM      2  C   UNL     1      50.019  18.551  19.214  0.00  0.00    -0.030 C 
ATOM      3  C   UNL     1      50.890  17.442  18.622  0.00  0.00    +0.019 C 
ATOM      4  C   UNL     1      52.331  17.939  18.487  0.00  0.00    +0.006 C 
ATOM      5  C   UNL     1      52.363  19.112  17.513  0.00  0.00    +0.012 C 
ATOM      6  C   UNL     1      51.473  20.262  17.981  0.00  0.00    -0.050 C 
ATOM      7  C   UNL     1      51.350  21.234  16.783  0.00  0.00    +0.011 C 
ATOM      8  C   UNL     1      52.161  21.025  19.112  0.00  0.00    +0.023 C 
ATOM      9  C   UNL     1      48.570  18.051  19.325  0.00  0.00    +0.033 C 
ATOM     18  C   UNL     1      47.681  19.183  19.844  0.00  0.00    +0.026 C 
ATOM     19  C   UNL     1      47.312  19.200  21.324  0.00  0.00    +0.185 C 
ATOM     20  O   UNL     1      46.378  18.814  20.315  0.00  0.00    -0.345 OA
ATOM     21  C   UNL     1      47.796  20.517  19.108  0.00  0.00    +0.045 C 
ATOM     22  C   UNL     1      49.265  20.931  18.986  0.00  0.00    +0.032 C 
ATOM     23  C   UNL     1      50.073  19.799  18.351  0.00  0.00    +0.008 C 
ENDROOT
BRANCH   9  10
ATOM     10  C   UNL     1      48.040  17.550  17.986  0.00  0.00    +0.078 C 
BRANCH  10  11
ATOM     11  C   UNL     1      47.207  16.313  18.207  0.00  0.00    +0.107 C 
ATOM     12  C   UNL     1      47.609  15.144  17.713  0.00  0.00    -0.232 C 
ATOM     13  C   UNL     1      48.871  14.863  16.913  0.00  0.00    +0.070 C 
ATOM     14  C   UNL     1      48.789  13.344  16.651  0.00  0.00    +0.249 C 
ATOM     15  O   UNL     1      47.832  12.861  17.608  0.00  0.00    -0.343 OA
ATOM     16  C   UNL     1      46.928  13.839  17.830  0.00  0.00    +0.514 C 
ATOM     17  O   UNL     1      45.751  13.672  18.081  0.00  0.00    -0.447 OA
ENDBRANCH  10  11
ENDBRANCH   9  10
TORSDOF 2
ENDMDL
MODEL 4
REMARK VINA RESULT:      -5.4      1.831      2.984
REMARK  Name = ZINC95486152
REMARK  5 active torsions:
REMARK  status: ('A' for Active; 'I' for Inactive)
REMARK    1  A    between atoms: C1_1  and  C2_2
REMARK    2  A    between atoms: C6_6  and  C19_24
REMARK    3  A    between atoms: C6_6  and  C20_25
REMARK    4  A    between atoms: C11_12  and  C12_14
REMARK    5  A    between atoms: C12_14  and  C13_15
REMARK                            x       y       z     vdW  Elec       q    Type
REMARK                         _______ _______ _______ _____ _____    ______ ____
ROOT
ATOM      1  C   UNL     1      49.879  18.487  17.543  0.00  0.00    +0.028 C 
ATOM      2  C   UNL     1      49.464  19.259  18.806  0.00  0.00    -0.030 C 
ATOM      3  C   UNL     1      49.538  20.756  18.500  0.00  0.00    +0.019 C 
ATOM      4  C   UNL     1      50.991  21.152  18.227  0.00  0.00    +0.006 C 
ATOM      5  C   UNL     1      51.818  20.903  19.484  0.00  0.00    +0.012 C 
ATOM      6  C   UNL     1      51.765  19.439  19.917  0.00  0.00    -0.050 C 
ATOM      7  C   UNL     1      52.369  19.383  21.341  0.00  0.00    +0.011 C 
ATOM      8  C   UNL     1      52.664  18.597  19.013  0.00  0.00    +0.023 C 
ATOM      9  C   UNL     1      48.006  18.875  19.100  0.00  0.00    +0.033 C 
ATOM     18  C   UNL     1      47.938  17.396  19.484  0.00  0.00    +0.026 C 
ATOM     19  C   UNL     1      47.517  16.386  18.421  0.00  0.00    +0.185 C 
ATOM     20  O   UNL     1      46.641  16.786  19.474  0.00  0.00    -0.345 OA
ATOM     21  C   UNL     1      48.906  16.941  20.575  0.00  0.00    +0.045 C 
ATOM     22  C   UNL     1      50.329  17.399  20.248  0.00  0.00    +0.032 C 
ATOM     23  C   UNL     1      50.344  18.907  19.993  0.00  0.00    +0.008 C 
ENDROOT
BRANCH   9  10
ATOM     10  C   UNL     1      47.410  19.726  20.217  0.00  0.00    +0.078 C 
BRANCH  10  11
ATOM     11  C   UNL     1      46.052  20.225  19.798  0.00  0.00    +0.107 C 
ATOM     12  C   UNL     1      45.655  21.447  20.146  0.00  0.00    -0.232 C 
ATOM     13  C   UNL     1      46.431  22.476  20.953  0.00  0.00    +0.070 C 
ATOM     14  C   UNL     1      45.467  23.681  21.006  0.00  0.00    +0.249 C 
ATOM     15  O   UNL     1      44.520  23.434  19.953  0.00  0.00    -0.343 OA
ATOM     16  C   UNL     1      44.369  22.099  19.827  0.00  0.00    +0.514 C 
ATOM     17  O   UNL     1      43.345  21.529  19.507  0.00  0.00    -0.447 OA
ENDBRANCH  10  11
ENDBRANCH   9  10
TORSDOF 2
ENDMDL
MODEL 5
REMARK VINA RESULT:      -5.4      4.023      6.921
REMARK  Name = ZINC95486152
REMARK  5 active torsions:
REMARK  status: ('A' for Active; 'I' for Inactive)
REMARK    1  A    between atoms: C1_1  and  C2_2
REMARK    2  A    between atoms: C6_6  and  C19_24
REMARK    3  A    between atoms: C6_6  and  C20_25
REMARK    4  A    between atoms: C11_12  and  C12_14
REMARK    5  A    between atoms: C12_14  and  C13_15
REMARK                            x       y       z     vdW  Elec       q    Type
REMARK                         _______ _______ _______ _____ _____    ______ ____
ROOT
ATOM      1  C   UNL     1      46.801  18.799  20.900  0.00  0.00    +0.028 C 
ATOM      2  C   UNL     1      46.038  18.270  19.675  0.00  0.00    -0.030 C 
ATOM      3  C   UNL     1      46.301  19.213  18.500  0.00  0.00    +0.019 C 
ATOM      4  C   UNL     1      45.701  20.588  18.803  0.00  0.00    +0.006 C 
ATOM      5  C   UNL     1      44.190  20.450  18.946  0.00  0.00    +0.012 C 
ATOM      6  C   UNL     1      43.812  19.478  20.061  0.00  0.00    -0.050 C 
ATOM      7  C   UNL     1      42.299  19.194  19.899  0.00  0.00    +0.011 C 
ATOM      8  C   UNL     1      44.001  20.147  21.421  0.00  0.00    +0.023 C 
ATOM      9  C   UNL     1      46.623  16.886  19.353  0.00  0.00    +0.033 C 
ATOM     18  C   UNL     1      46.294  15.918  20.491  0.00  0.00    +0.026 C 
ATOM     19  C   UNL     1      47.367  15.631  21.537  0.00  0.00    +0.185 C 
ATOM     20  O   UNL     1      47.026  14.686  20.522  0.00  0.00    -0.345 OA
ATOM     21  C   UNL     1      44.828  15.861  20.920  0.00  0.00    +0.045 C 
ATOM     22  C   UNL     1      44.293  17.272  21.174  0.00  0.00    +0.032 C 
ATOM     23  C   UNL     1      44.549  18.153  19.951  0.00  0.00    +0.008 C 
ENDROOT
BRANCH   9  10
ATOM     10  C   UNL     1      46.085  16.336  18.036  0.00  0.00    +0.078 C 
BRANCH  10  11
ATOM     11  C   UNL     1      47.212  15.706  17.258  0.00  0.00    +0.107 C 
ATOM     12  C   UNL     1      47.174  14.408  16.964  0.00  0.00    -0.232 C 
ATOM     13  C   UNL     1      46.081  13.411  17.320  0.00  0.00    +0.070 C 
ATOM     14  C   UNL     1      46.591  12.095  16.695  0.00  0.00    +0.249 C 
ATOM     15  O   UNL     1      47.591  12.505  15.748  0.00  0.00    -0.343 OA
ATOM     16  C   UNL     1      48.178  13.627  16.216  0.00  0.00    +0.514 C 
ATOM     17  O   UNL     1      49.341  13.939  16.051  0.00  0.00    -0.447 OA
ENDBRANCH  10  11
ENDBRANCH   9  10
TORSDOF 2
ENDMDL
MODEL 6
REMARK VINA RESULT:      -5.4      2.593      4.359
REMARK  Name = ZINC95486152
REMARK  5 active torsions:
REMARK  status: ('A' for Active; 'I' for Inactive)
REMARK    1  A    between atoms: C1_1  and  C2_2
REMARK    2  A    between atoms: C6_6  and  C19_24
REMARK    3  A    between atoms: C6_6  and  C20_25
REMARK    4  A    between atoms: C11_12  and  C12_14
REMARK    5  A    between atoms: C12_14  and  C13_15
REMARK                            x       y       z     vdW  Elec       q    Type
REMARK                         _______ _______ _______ _____ _____    ______ ____
ROOT
ATOM      1  C   UNL     1      48.368  16.140  20.347  0.00  0.00    +0.028 C 
ATOM      2  C   UNL     1      47.399  16.655  19.272  0.00  0.00    -0.030 C 
ATOM      3  C   UNL     1      45.971  16.504  19.799  0.00  0.00    +0.019 C 
ATOM      4  C   UNL     1      45.645  15.019  19.977  0.00  0.00    +0.006 C 
ATOM      5  C   UNL     1      45.703  14.332  18.618  0.00  0.00    +0.012 C 
ATOM      6  C   UNL     1      47.078  14.474  17.969  0.00  0.00    -0.050 C 
ATOM      7  C   UNL     1      46.916  14.019  16.498  0.00  0.00    +0.011 C 
ATOM      8  C   UNL     1      48.067  13.515  18.630  0.00  0.00    +0.023 C 
ATOM      9  C   UNL     1      47.709  18.148  19.076  0.00  0.00    +0.033 C 
ATOM     18  C   UNL     1      49.107  18.300  18.474  0.00  0.00    +0.026 C 
ATOM     19  C   UNL     1      50.267  18.644  19.403  0.00  0.00    +0.185 C 
ATOM     20  O   UNL     1      49.691  19.609  18.523  0.00  0.00    -0.345 OA
ATOM     21  C   UNL     1      49.397  17.462  17.229  0.00  0.00    +0.045 C 
ATOM     22  C   UNL     1      49.018  15.999  17.474  0.00  0.00    +0.032 C 
ATOM     23  C   UNL     1      47.571  15.912  17.959  0.00  0.00    +0.008 C 
ENDROOT
BRANCH   9  10
ATOM     10  C   UNL     1      46.682  18.826  18.174  0.00  0.00    +0.078 C 
BRANCH  10  11
ATOM     11  C   UNL     1      46.329  20.176  18.743  0.00  0.00    +0.107 C 
ATOM     12  C   UNL     1      45.052  20.514  18.911  0.00  0.00    -0.232 C 
ATOM     13  C   UNL     1      43.824  19.674  18.596  0.00  0.00    +0.070 C 
ATOM     14  C   UNL     1      42.656  20.588  19.022  0.00  0.00    +0.249 C 
ATOM     15  O   UNL     1      43.258  21.575  19.875  0.00  0.00    -0.343 OA
ATOM     16  C   UNL     1      44.523  21.782  19.451  0.00  0.00    +0.514 C 
ATOM     17  O   UNL     1      45.124  22.837  19.503  0.00  0.00    -0.447 OA
ENDBRANCH  10  11
ENDBRANCH   9  10
TORSDOF 2
ENDMDL
MODEL 7
REMARK VINA RESULT:      -5.3      3.077      6.012
REMARK  Name = ZINC95486152
REMARK  5 active torsions:
REMARK  status: ('A' for Active; 'I' for Inactive)
REMARK    1  A    between atoms: C1_1  and  C2_2
REMARK    2  A    between atoms: C6_6  and  C19_24
REMARK    3  A    between atoms: C6_6  and  C20_25
REMARK    4  A    between atoms: C11_12  and  C12_14
REMARK    5  A    between atoms: C12_14  and  C13_15
REMARK                            x       y       z     vdW  Elec       q    Type
REMARK                         _______ _______ _______ _____ _____    ______ ____
ROOT
ATOM      1  C   UNL     1      46.367  21.276  18.464  0.00  0.00    +0.028 C 
ATOM      2  C   UNL     1      46.209  19.918  19.166  0.00  0.00    -0.030 C 
ATOM      3  C   UNL     1      45.063  19.160  18.494  0.00  0.00    +0.019 C 
ATOM      4  C   UNL     1      43.748  19.907  18.728  0.00  0.00    +0.006 C 
ATOM      5  C   UNL     1      43.455  19.940  20.225  0.00  0.00    +0.012 C 
ATOM      6  C   UNL     1      44.574  20.627  21.005  0.00  0.00    -0.050 C 
ATOM      7  C   UNL     1      44.312  20.323  22.501  0.00  0.00    +0.011 C 
ATOM      8  C   UNL     1      44.475  22.142  20.830  0.00  0.00    +0.023 C 
ATOM      9  C   UNL     1      47.521  19.149  18.944  0.00  0.00    +0.033 C 
ATOM     18  C   UNL     1      48.657  19.862  19.681  0.00  0.00    +0.026 C 
ATOM     19  C   UNL     1      49.582  20.775  18.884  0.00  0.00    +0.185 C 
ATOM     20  O   UNL     1      49.993  19.481  19.328  0.00  0.00    -0.345 OA
ATOM     21  C   UNL     1      48.400  20.191  21.151  0.00  0.00    +0.045 C 
ATOM     22  C   UNL     1      47.056  20.908  21.308  0.00  0.00    +0.032 C 
ATOM     23  C   UNL     1      45.948  20.083  20.653  0.00  0.00    +0.008 C 
ENDROOT
BRANCH   9  10
ATOM     10  C   UNL     1      47.420  17.705  19.425  0.00  0.00    +0.078 C 
BRANCH  10  11
ATOM     11  C   UNL     1      47.876  16.778  18.327  0.00  0.00    +0.107 C 
ATOM     12  C   UNL     1      47.263  15.611  18.144  0.00  0.00    -0.232 C 
ATOM     13  C   UNL     1      46.089  15.050  18.932  0.00  0.00    +0.070 C 
ATOM     14  C   UNL     1      45.820  13.695  18.243  0.00  0.00    +0.249 C 
ATOM     15  O   UNL     1      46.487  13.794  16.974  0.00  0.00    -0.343 OA
ATOM     16  C   UNL     1      47.569  14.585  17.128  0.00  0.00    +0.514 C 
ATOM     17  O   UNL     1      48.622  14.470  16.531  0.00  0.00    -0.447 OA
ENDBRANCH  10  11
ENDBRANCH   9  10
TORSDOF 2
ENDMDL
MODEL 8
REMARK VINA RESULT:      -5.3      2.648      6.544
REMARK  Name = ZINC95486152
REMARK  5 active torsions:
REMARK  status: ('A' for Active; 'I' for Inactive)
REMARK    1  A    between atoms: C1_1  and  C2_2
REMARK    2  A    between atoms: C6_6  and  C19_24
REMARK    3  A    between atoms: C6_6  and  C20_25
REMARK    4  A    between atoms: C11_12  and  C12_14
REMARK    5  A    between atoms: C12_14  and  C13_15
REMARK                            x       y       z     vdW  Elec       q    Type
REMARK                         _______ _______ _______ _____ _____    ______ ____
ROOT
ATOM      1  C   UNL     1      46.213  22.010  21.706  0.00  0.00    +0.028 C 
ATOM      2  C   UNL     1      46.491  21.101  20.498  0.00  0.00    -0.030 C 
ATOM      3  C   UNL     1      45.769  21.684  19.282  0.00  0.00    +0.019 C 
ATOM      4  C   UNL     1      44.256  21.627  19.509  0.00  0.00    +0.006 C 
ATOM      5  C   UNL     1      43.828  20.169  19.636  0.00  0.00    +0.012 C 
ATOM      6  C   UNL     1      44.540  19.469  20.792  0.00  0.00    -0.050 C 
ATOM      7  C   UNL     1      44.262  17.955  20.622  0.00  0.00    +0.011 C 
ATOM      8  C   UNL     1      43.916  19.894  22.120  0.00  0.00    +0.023 C 
ATOM      9  C   UNL     1      48.007  21.142  20.252  0.00  0.00    +0.033 C 
ATOM     18  C   UNL     1      48.730  20.489  21.432  0.00  0.00    +0.026 C 
ATOM     19  C   UNL     1      49.334  21.388  22.506  0.00  0.00    +0.185 C 
ATOM     20  O   UNL     1      50.141  20.723  21.533  0.00  0.00    -0.345 OA
ATOM     21  C   UNL     1      48.230  19.104  21.841  0.00  0.00    +0.045 C 
ATOM     22  C   UNL     1      46.709  19.119  22.018  0.00  0.00    +0.032 C 
ATOM     23  C   UNL     1      46.045  19.673  20.757  0.00  0.00    +0.008 C 
ENDROOT
BRANCH   9  10
ATOM     10  C   UNL     1      48.391  20.436  18.956  0.00  0.00    +0.078 C 
BRANCH  10  11
ATOM     11  C   UNL     1      49.824  20.755  18.616  0.00  0.00    +0.107 C 
ATOM     12  C   UNL     1      50.575  19.854  17.985  0.00  0.00    -0.232 C 
ATOM     13  C   UNL     1      50.161  18.465  17.525  0.00  0.00    +0.070 C 
ATOM     14  C   UNL     1      51.439  17.924  16.850  0.00  0.00    +0.249 C 
ATOM     15  O   UNL     1      52.241  19.091  16.601  0.00  0.00    -0.343 OA
ATOM     16  C   UNL     1      51.986  19.991  17.574  0.00  0.00    +0.514 C 
ATOM     17  O   UNL     1      52.786  20.780  18.036  0.00  0.00    -0.447 OA
ENDBRANCH  10  11
ENDBRANCH   9  10
TORSDOF 2
ENDMDL
MODEL 9
REMARK VINA RESULT:      -5.2      3.264      6.217
REMARK  Name = ZINC95486152
REMARK  5 active torsions:
REMARK  status: ('A' for Active; 'I' for Inactive)
REMARK    1  A    between atoms: C1_1  and  C2_2
REMARK    2  A    between atoms: C6_6  and  C19_24
REMARK    3  A    between atoms: C6_6  and  C20_25
REMARK    4  A    between atoms: C11_12  and  C12_14
REMARK    5  A    between atoms: C12_14  and  C13_15
REMARK                            x       y       z     vdW  Elec       q    Type
REMARK                         _______ _______ _______ _____ _____    ______ ____
ROOT
ATOM      1  C   UNL     1      46.563  16.314  16.751  0.00  0.00    +0.028 C 
ATOM      2  C   UNL     1      47.705  16.229  17.777  0.00  0.00    -0.030 C 
ATOM      3  C   UNL     1      48.930  15.628  17.085  0.00  0.00    +0.019 C 
ATOM      4  C   UNL     1      48.629  14.185  16.675  0.00  0.00    +0.006 C 
ATOM      5  C   UNL     1      48.363  13.357  17.927  0.00  0.00    +0.012 C 
ATOM      6  C   UNL     1      47.188  13.909  18.732  0.00  0.00    -0.050 C 
ATOM      7  C   UNL     1      47.220  13.189  20.102  0.00  0.00    +0.011 C 
ATOM      8  C   UNL     1      45.871  13.531  18.055  0.00  0.00    +0.023 C 
ATOM      9  C   UNL     1      48.023  17.670  18.205  0.00  0.00    +0.033 C 
ATOM     18  C   UNL     1      46.829  18.248  18.967  0.00  0.00    +0.026 C 
ATOM     19  C   UNL     1      45.861  19.162  18.221  0.00  0.00    +0.185 C 
ATOM     20  O   UNL     1      46.813  19.669  19.157  0.00  0.00    -0.345 OA
ATOM     21  C   UNL     1      46.285  17.393  20.110  0.00  0.00    +0.045 C 
ATOM     22  C   UNL     1      46.039  15.960  19.631  0.00  0.00    +0.032 C 
ATOM     23  C   UNL     1      47.309  15.402  18.988  0.00  0.00    +0.008 C 
ENDROOT
BRANCH   9  10
ATOM     10  C   UNL     1      49.273  17.739  19.076  0.00  0.00    +0.078 C 
BRANCH  10  11
ATOM     11  C   UNL     1      49.862  19.125  18.998  0.00  0.00    +0.107 C 
ATOM     12  C   UNL     1      50.694  19.440  18.008  0.00  0.00    -0.232 C 
ATOM     13  C   UNL     1      51.158  18.543  16.870  0.00  0.00    +0.070 C 
ATOM     14  C   UNL     1      52.081  19.469  16.048  0.00  0.00    +0.249 C 
ATOM     15  O   UNL     1      51.739  20.797  16.479  0.00  0.00    -0.343 OA
ATOM     16  C   UNL     1      51.361  20.736  17.773  0.00  0.00    +0.514 C 
ATOM     17  O   UNL     1      51.541  21.602  18.606  0.00  0.00    -0.447 OA
ENDBRANCH  10  11
ENDBRANCH   9  10
TORSDOF 2
ENDMDL
