MODEL 1
REMARK VINA RESULT:      -7.6      0.000      0.000
REMARK  Name = ZINC95485966
REMARK  17 active torsions:
REMARK  status: ('A' for Active; 'I' for Inactive)
REMARK    1  A    between atoms: C1_1  and  C2_2
REMARK    2  A    between atoms: C3_3  and  C28_33
REMARK    3  A    between atoms: C10_10  and  O1_18
REMARK    4  A    between atoms: C11_11  and  C12_12
REMARK    5  A    between atoms: C12_12  and  C13_13
REMARK    6  A    between atoms: C13_13  and  C14_14
REMARK    7  A    between atoms: C15_15  and  C16_16
REMARK    8  A    between atoms: C15_15  and  C17_17
REMARK    9  A    between atoms: C21_24  and  C22_26
REMARK   10  A    between atoms: C22_26  and  C23_27
REMARK   11  A    between atoms: C23_27  and  C24_28
REMARK   12  A    between atoms: C25_29  and  C26_30
REMARK   13  A    between atoms: C25_29  and  C27_31
REMARK   14  A    between atoms: C28_33  and  C29_34
REMARK   15  A    between atoms: C29_34  and  C30_35
REMARK   16  A    between atoms: C31_36  and  C32_37
REMARK   17  A    between atoms: C31_36  and  C33_38
REMARK                            x       y       z     vdW  Elec       q    Type
REMARK                         _______ _______ _______ _____ _____    ______ ____
ROOT
ATOM      1  C   UNL     1      49.857  16.531  17.602  0.00  0.00    +0.076 C 
ATOM      2  C   UNL     1      49.411  17.699  18.442  0.00  0.00    -0.042 A 
ATOM      3  C   UNL     1      48.162  18.217  18.262  0.00  0.00    -0.131 A 
ATOM     10  C   UNL     1      47.734  19.305  19.039  0.00  0.00    +0.053 A 
ATOM     11  C   UNL     1      46.445  19.848  18.876  0.00  0.00    -0.160 A 
ATOM     12  C   UNL     1      46.033  20.902  19.631  0.00  0.00    +0.050 A 
ATOM     13  C   UNL     1      44.628  21.412  19.427  0.00  0.00    +0.003 C 
ATOM     20  C   UNL     1      44.477  22.785  20.033  0.00  0.00    +0.386 C 
ATOM     21  O   UNL     1      43.936  23.679  19.426  0.00  0.00    -0.461 OA
ATOM     22  C   UNL     1      45.026  23.006  21.429  0.00  0.00    +0.003 C 
ATOM     23  C   UNL     1      46.494  22.638  21.380  0.00  0.00    +0.405 C 
ATOM     24  O   UNL     1      47.317  23.291  21.988  0.00  0.00    -0.456 OA
ATOM     25  C   UNL     1      46.901  21.477  20.580  0.00  0.00    -0.382 A 
ATOM     26  C   UNL     1      48.186  20.954  20.774  0.00  0.00    +0.343 A 
ATOM     27  O   UNL     1      49.012  21.500  21.696  0.00  0.00    -0.614 OA
ATOM     28  C   UNL     1      48.612  19.858  20.002  0.00  0.00    -0.176 A 
ATOM     29  C   UNL     1      49.896  19.302  20.169  0.00  0.00    +0.184 A 
ATOM     32  C   UNL     1      50.276  18.229  19.393  0.00  0.00    -0.178 A 
ENDROOT
BRANCH  29  30
ATOM     30  O   UNL     1      50.749  19.816  21.091  0.00  0.00    -0.472 OA
ATOM     31  H   UNL     1      51.666  19.529  20.983  0.00  0.00    +0.381 HD
ENDBRANCH  29  30
BRANCH   3   4
ATOM      4  C   UNL     1      47.242  17.622  17.226  0.00  0.00    +0.071 C 
BRANCH   4   5
ATOM      5  C   UNL     1      46.616  16.340  17.778  0.00  0.00    +0.054 C 
BRANCH   5   6
ATOM      6  C   UNL     1      45.536  16.695  18.768  0.00  0.00    -0.047 C 
ATOM      7  C   UNL     1      45.649  16.327  20.020  0.00  0.00    -0.147 C 
ATOM      8  C   UNL     1      44.552  16.651  21.001  0.00  0.00    +0.065 C 
ATOM      9  C   UNL     1      46.873  15.578  20.479  0.00  0.00    +0.069 C 
ENDBRANCH   5   6
ENDBRANCH   4   5
ENDBRANCH   3   4
BRANCH  13  14
ATOM     14  C   UNL     1      43.640  20.453  20.092  0.00  0.00    +0.061 C 
BRANCH  14  15
ATOM     15  C   UNL     1      42.602  19.998  19.064  0.00  0.00    +0.042 C 
BRANCH  15  16
ATOM     16  C   UNL     1      41.412  20.921  19.107  0.00  0.00    -0.046 C 
ATOM     17  C   UNL     1      40.327  20.624  18.435  0.00  0.00    -0.142 C 
ATOM     18  C   UNL     1      39.133  21.540  18.490  0.00  0.00    +0.068 C 
ATOM     19  C   UNL     1      40.276  19.367  17.606  0.00  0.00    +0.071 C 
ENDBRANCH  15  16
ENDBRANCH  14  15
ENDBRANCH  13  14
BRANCH  32  33
ATOM     33  C   UNL     1      51.646  17.626  19.571  0.00  0.00    +0.073 C 
BRANCH  33  34
ATOM     34  C   UNL     1      52.542  18.040  18.401  0.00  0.00    +0.054 C 
BRANCH  34  35
ATOM     35  C   UNL     1      52.284  19.483  18.057  0.00  0.00    -0.054 C 
ATOM     36  C   UNL     1      51.952  19.815  16.833  0.00  0.00    -0.141 C 
ATOM     37  C   UNL     1      51.528  21.228  16.525  0.00  0.00    +0.066 C 
ATOM     38  C   UNL     1      51.994  18.785  15.735  0.00  0.00    +0.070 C 
ENDBRANCH  34  35
ENDBRANCH  33  34
ENDBRANCH  32  33
TORSDOF 10
ENDMDL
MODEL 2
REMARK VINA RESULT:      -6.8      3.212      9.018
REMARK  Name = ZINC95485966
REMARK  17 active torsions:
REMARK  status: ('A' for Active; 'I' for Inactive)
REMARK    1  A    between atoms: C1_1  and  C2_2
REMARK    2  A    between atoms: C3_3  and  C28_33
REMARK    3  A    between atoms: C10_10  and  O1_18
REMARK    4  A    between atoms: C11_11  and  C12_12
REMARK    5  A    between atoms: C12_12  and  C13_13
REMARK    6  A    between atoms: C13_13  and  C14_14
REMARK    7  A    between atoms: C15_15  and  C16_16
REMARK    8  A    between atoms: C15_15  and  C17_17
REMARK    9  A    between atoms: C21_24  and  C22_26
REMARK   10  A    between atoms: C22_26  and  C23_27
REMARK   11  A    between atoms: C23_27  and  C24_28
REMARK   12  A    between atoms: C25_29  and  C26_30
REMARK   13  A    between atoms: C25_29  and  C27_31
REMARK   14  A    between atoms: C28_33  and  C29_34
REMARK   15  A    between atoms: C29_34  and  C30_35
REMARK   16  A    between atoms: C31_36  and  C32_37
REMARK   17  A    between atoms: C31_36  and  C33_38
REMARK                            x       y       z     vdW  Elec       q    Type
REMARK                         _______ _______ _______ _____ _____    ______ ____
ROOT
ATOM      1  C   UNL     1      48.920  20.871  19.975  0.00  0.00    +0.076 C 
ATOM      2  C   UNL     1      48.638  19.575  19.259  0.00  0.00    -0.042 A 
ATOM      3  C   UNL     1      49.608  18.619  19.197  0.00  0.00    -0.131 A 
ATOM     10  C   UNL     1      49.358  17.407  18.534  0.00  0.00    +0.053 A 
ATOM     11  C   UNL     1      50.341  16.401  18.468  0.00  0.00    -0.160 A 
ATOM     12  C   UNL     1      50.095  15.228  17.825  0.00  0.00    +0.050 A 
ATOM     13  C   UNL     1      51.182  14.182  17.821  0.00  0.00    +0.003 C 
ATOM     20  C   UNL     1      50.906  13.144  16.762  0.00  0.00    +0.386 C 
ATOM     21  O   UNL     1      51.776  12.771  16.012  0.00  0.00    -0.461 OA
ATOM     22  C   UNL     1      49.500  12.585  16.670  0.00  0.00    +0.003 C 
ATOM     23  C   UNL     1      48.576  13.768  16.467  0.00  0.00    +0.405 C 
ATOM     24  O   UNL     1      47.629  13.691  15.713  0.00  0.00    -0.456 OA
ATOM     25  C   UNL     1      48.852  15.009  17.199  0.00  0.00    -0.382 A 
ATOM     26  C   UNL     1      47.849  15.985  17.255  0.00  0.00    +0.343 A 
ATOM     27  O   UNL     1      46.651  15.766  16.665  0.00  0.00    -0.614 OA
ATOM     28  C   UNL     1      48.096  17.196  17.928  0.00  0.00    -0.176 A 
ATOM     29  C   UNL     1      47.111  18.200  18.009  0.00  0.00    +0.184 A 
ATOM     32  C   UNL     1      47.393  19.372  18.676  0.00  0.00    -0.178 A 
ENDROOT
BRANCH  29  30
ATOM     30  O   UNL     1      45.894  18.012  17.438  0.00  0.00    -0.472 OA
ATOM     31  H   UNL     1      45.154  18.323  17.977  0.00  0.00    +0.381 HD
ENDBRANCH  29  30
BRANCH   3   4
ATOM      4  C   UNL     1      50.949  18.863  19.841  0.00  0.00    +0.071 C 
BRANCH   4   5
ATOM      5  C   UNL     1      52.030  18.916  18.760  0.00  0.00    +0.054 C 
BRANCH   5   6
ATOM      6  C   UNL     1      51.888  20.192  17.970  0.00  0.00    -0.047 C 
ATOM      7  C   UNL     1      51.738  20.144  16.670  0.00  0.00    -0.147 C 
ATOM      8  C   UNL     1      51.632  21.420  15.877  0.00  0.00    +0.065 C 
ATOM      9  C   UNL     1      51.676  18.812  15.967  0.00  0.00    +0.069 C 
ENDBRANCH   5   6
ENDBRANCH   4   5
ENDBRANCH   3   4
BRANCH  13  14
ATOM     14  C   UNL     1      51.238  13.506  19.191  0.00  0.00    +0.061 C 
BRANCH  14  15
ATOM     15  C   UNL     1      52.647  13.645  19.771  0.00  0.00    +0.042 C 
BRANCH  15  16
ATOM     16  C   UNL     1      52.652  14.721  20.826  0.00  0.00    -0.046 C 
ATOM     17  C   UNL     1      53.367  15.806  20.653  0.00  0.00    -0.142 C 
ATOM     18  C   UNL     1      53.360  16.888  21.701  0.00  0.00    +0.068 C 
ATOM     19  C   UNL     1      54.195  15.970  19.405  0.00  0.00    +0.071 C 
ENDBRANCH  15  16
ENDBRANCH  14  15
ENDBRANCH  13  14
BRANCH  32  33
ATOM     33  C   UNL     1      46.342  20.449  18.770  0.00  0.00    +0.073 C 
BRANCH  33  34
ATOM     34  C   UNL     1      45.528  20.257  20.052  0.00  0.00    +0.054 C 
BRANCH  34  35
ATOM     35  C   UNL     1      44.058  20.275  19.721  0.00  0.00    -0.054 C 
ATOM     36  C   UNL     1      43.312  19.233  19.993  0.00  0.00    -0.141 C 
ATOM     37  C   UNL     1      41.817  19.311  19.823  0.00  0.00    +0.066 C 
ATOM     38  C   UNL     1      43.950  17.956  20.476  0.00  0.00    +0.070 C 
ENDBRANCH  34  35
ENDBRANCH  33  34
ENDBRANCH  32  33
TORSDOF 10
ENDMDL
MODEL 3
REMARK VINA RESULT:      -6.3      1.281      2.291
REMARK  Name = ZINC95485966
REMARK  17 active torsions:
REMARK  status: ('A' for Active; 'I' for Inactive)
REMARK    1  A    between atoms: C1_1  and  C2_2
REMARK    2  A    between atoms: C3_3  and  C28_33
REMARK    3  A    between atoms: C10_10  and  O1_18
REMARK    4  A    between atoms: C11_11  and  C12_12
REMARK    5  A    between atoms: C12_12  and  C13_13
REMARK    6  A    between atoms: C13_13  and  C14_14
REMARK    7  A    between atoms: C15_15  and  C16_16
REMARK    8  A    between atoms: C15_15  and  C17_17
REMARK    9  A    between atoms: C21_24  and  C22_26
REMARK   10  A    between atoms: C22_26  and  C23_27
REMARK   11  A    between atoms: C23_27  and  C24_28
REMARK   12  A    between atoms: C25_29  and  C26_30
REMARK   13  A    between atoms: C25_29  and  C27_31
REMARK   14  A    between atoms: C28_33  and  C29_34
REMARK   15  A    between atoms: C29_34  and  C30_35
REMARK   16  A    between atoms: C31_36  and  C32_37
REMARK   17  A    between atoms: C31_36  and  C33_38
REMARK                            x       y       z     vdW  Elec       q    Type
REMARK                         _______ _______ _______ _____ _____    ______ ____
ROOT
ATOM      1  C   UNL     1      50.337  16.697  17.545  0.00  0.00    +0.076 C 
ATOM      2  C   UNL     1      49.836  17.822  18.414  0.00  0.00    -0.042 A 
ATOM      3  C   UNL     1      48.558  18.271  18.259  0.00  0.00    -0.131 A 
ATOM     10  C   UNL     1      48.079  19.316  19.063  0.00  0.00    +0.053 A 
ATOM     11  C   UNL     1      46.759  19.788  18.927  0.00  0.00    -0.160 A 
ATOM     12  C   UNL     1      46.298  20.801  19.709  0.00  0.00    +0.050 A 
ATOM     13  C   UNL     1      44.864  21.235  19.532  0.00  0.00    +0.003 C 
ATOM     20  C   UNL     1      44.642  22.585  20.167  0.00  0.00    +0.386 C 
ATOM     21  O   UNL     1      44.044  23.458  19.586  0.00  0.00    -0.461 OA
ATOM     22  C   UNL     1      45.196  22.809  21.561  0.00  0.00    +0.003 C 
ATOM     23  C   UNL     1      46.682  22.527  21.487  0.00  0.00    +0.405 C 
ATOM     24  O   UNL     1      47.474  23.213  22.098  0.00  0.00    -0.456 OA
ATOM     25  C   UNL     1      47.144  21.406  20.659  0.00  0.00    -0.382 A 
ATOM     26  C   UNL     1      48.459  20.954  20.826  0.00  0.00    +0.343 A 
ATOM     27  O   UNL     1      49.265  21.528  21.750  0.00  0.00    -0.614 OA
ATOM     28  C   UNL     1      48.937  19.900  20.027  0.00  0.00    -0.176 A 
ATOM     29  C   UNL     1      50.253  19.415  20.168  0.00  0.00    +0.184 A 
ATOM     32  C   UNL     1      50.682  18.381  19.365  0.00  0.00    -0.178 A 
ENDROOT
BRANCH  29  30
ATOM     30  O   UNL     1      51.086  19.958  21.090  0.00  0.00    -0.472 OA
ATOM     31  H   UNL     1      51.981  19.591  21.077  0.00  0.00    +0.381 HD
ENDBRANCH  29  30
BRANCH   3   4
ATOM      4  C   UNL     1      47.660  17.645  17.223  0.00  0.00    +0.071 C 
BRANCH   4   5
ATOM      5  C   UNL     1      47.129  16.310  17.749  0.00  0.00    +0.054 C 
BRANCH   5   6
ATOM      6  C   UNL     1      45.905  16.555  18.593  0.00  0.00    -0.047 C 
ATOM      7  C   UNL     1      45.932  16.297  19.877  0.00  0.00    -0.147 C 
ATOM      8  C   UNL     1      44.697  16.508  20.714  0.00  0.00    +0.065 C 
ATOM      9  C   UNL     1      47.197  15.788  20.517  0.00  0.00    +0.069 C 
ENDBRANCH   5   6
ENDBRANCH   4   5
ENDBRANCH   3   4
BRANCH  13  14
ATOM     14  C   UNL     1      43.940  20.208  20.189  0.00  0.00    +0.061 C 
BRANCH  14  15
ATOM     15  C   UNL     1      43.122  19.496  19.110  0.00  0.00    +0.042 C 
BRANCH  15  16
ATOM     16  C   UNL     1      42.066  20.432  18.580  0.00  0.00    -0.046 C 
ATOM     17  C   UNL     1      40.901  20.509  19.174  0.00  0.00    -0.142 C 
ATOM     18  C   UNL     1      39.851  21.456  18.653  0.00  0.00    +0.068 C 
ATOM     19  C   UNL     1      40.610  19.651  20.377  0.00  0.00    +0.071 C 
ENDBRANCH  15  16
ENDBRANCH  14  15
ENDBRANCH  13  14
BRANCH  32  33
ATOM     33  C   UNL     1      52.087  17.854  19.514  0.00  0.00    +0.073 C 
BRANCH  33  34
ATOM     34  C   UNL     1      52.122  16.800  20.623  0.00  0.00    +0.054 C 
BRANCH  34  35
ATOM     35  C   UNL     1      52.850  15.577  20.131  0.00  0.00    -0.054 C 
ATOM     36  C   UNL     1      52.194  14.460  19.932  0.00  0.00    -0.141 C 
ATOM     37  C   UNL     1      52.882  13.288  19.280  0.00  0.00    +0.066 C 
ATOM     38  C   UNL     1      50.752  14.347  20.355  0.00  0.00    +0.070 C 
ENDBRANCH  34  35
ENDBRANCH  33  34
ENDBRANCH  32  33
TORSDOF 10
ENDMDL
MODEL 4
REMARK VINA RESULT:      -6.3      3.354      6.792
REMARK  Name = ZINC95485966
REMARK  17 active torsions:
REMARK  status: ('A' for Active; 'I' for Inactive)
REMARK    1  A    between atoms: C1_1  and  C2_2
REMARK    2  A    between atoms: C3_3  and  C28_33
REMARK    3  A    between atoms: C10_10  and  O1_18
REMARK    4  A    between atoms: C11_11  and  C12_12
REMARK    5  A    between atoms: C12_12  and  C13_13
REMARK    6  A    between atoms: C13_13  and  C14_14
REMARK    7  A    between atoms: C15_15  and  C16_16
REMARK    8  A    between atoms: C15_15  and  C17_17
REMARK    9  A    between atoms: C21_24  and  C22_26
REMARK   10  A    between atoms: C22_26  and  C23_27
REMARK   11  A    between atoms: C23_27  and  C24_28
REMARK   12  A    between atoms: C25_29  and  C26_30
REMARK   13  A    between atoms: C25_29  and  C27_31
REMARK   14  A    between atoms: C28_33  and  C29_34
REMARK   15  A    between atoms: C29_34  and  C30_35
REMARK   16  A    between atoms: C31_36  and  C32_37
REMARK   17  A    between atoms: C31_36  and  C33_38
REMARK                            x       y       z     vdW  Elec       q    Type
REMARK                         _______ _______ _______ _____ _____    ______ ____
ROOT
ATOM      1  C   UNL     1      48.880  20.777  19.127  0.00  0.00    +0.076 C 
ATOM      2  C   UNL     1      49.348  19.422  18.661  0.00  0.00    -0.042 A 
ATOM      3  C   UNL     1      48.619  18.315  18.980  0.00  0.00    -0.131 A 
ATOM     10  C   UNL     1      49.043  17.048  18.551  0.00  0.00    +0.053 A 
ATOM     11  C   UNL     1      48.300  15.892  18.860  0.00  0.00    -0.160 A 
ATOM     12  C   UNL     1      48.713  14.666  18.442  0.00  0.00    +0.050 A 
ATOM     13  C   UNL     1      47.852  13.475  18.780  0.00  0.00    +0.003 C 
ATOM     20  C   UNL     1      48.630  12.196  18.600  0.00  0.00    +0.386 C 
ATOM     21  O   UNL     1      48.606  11.327  19.438  0.00  0.00    -0.461 OA
ATOM     22  C   UNL     1      49.445  12.038  17.330  0.00  0.00    +0.003 C 
ATOM     23  C   UNL     1      50.394  13.216  17.276  0.00  0.00    +0.405 C 
ATOM     24  O   UNL     1      51.535  13.075  16.887  0.00  0.00    -0.456 OA
ATOM     25  C   UNL     1      49.907  14.533  17.705  0.00  0.00    -0.382 A 
ATOM     26  C   UNL     1      50.664  15.663  17.373  0.00  0.00    +0.343 A 
ATOM     27  O   UNL     1      51.803  15.532  16.652  0.00  0.00    -0.614 OA
ATOM     28  C   UNL     1      50.235  16.934  17.794  0.00  0.00    -0.176 A 
ATOM     29  C   UNL     1      50.968  18.095  17.477  0.00  0.00    +0.184 A 
ATOM     32  C   UNL     1      50.513  19.322  17.910  0.00  0.00    -0.178 A 
ENDROOT
BRANCH  29  30
ATOM     30  O   UNL     1      52.108  18.005  16.748  0.00  0.00    -0.472 OA
ATOM     31  H   UNL     1      52.534  17.137  16.788  0.00  0.00    +0.381 HD
ENDBRANCH  29  30
BRANCH   3   4
ATOM      4  C   UNL     1      47.357  18.452  19.793  0.00  0.00    +0.071 C 
BRANCH   4   5
ATOM      5  C   UNL     1      46.162  18.623  18.855  0.00  0.00    +0.054 C 
BRANCH   5   6
ATOM      6  C   UNL     1      44.890  18.310  19.600  0.00  0.00    -0.047 C 
ATOM      7  C   UNL     1      43.970  19.231  19.742  0.00  0.00    -0.147 C 
ATOM      8  C   UNL     1      42.715  18.928  20.518  0.00  0.00    +0.065 C 
ATOM      9  C   UNL     1      44.168  20.594  19.131  0.00  0.00    +0.069 C 
ENDBRANCH   5   6
ENDBRANCH   4   5
ENDBRANCH   3   4
BRANCH  13  14
ATOM     14  C   UNL     1      46.629  13.458  17.861  0.00  0.00    +0.061 C 
BRANCH  14  15
ATOM     15  C   UNL     1      45.363  13.278  18.701  0.00  0.00    +0.042 C 
BRANCH  15  16
ATOM     16  C   UNL     1      45.129  14.515  19.529  0.00  0.00    -0.046 C 
ATOM     17  C   UNL     1      45.089  14.431  20.836  0.00  0.00    -0.142 C 
ATOM     18  C   UNL     1      44.870  15.671  21.664  0.00  0.00    +0.068 C 
ATOM     19  C   UNL     1      45.261  13.095  21.510  0.00  0.00    +0.071 C 
ENDBRANCH  15  16
ENDBRANCH  14  15
ENDBRANCH  13  14
BRANCH  32  33
ATOM     33  C   UNL     1      51.290  20.568  17.569  0.00  0.00    +0.073 C 
BRANCH  33  34
ATOM     34  C   UNL     1      52.543  20.644  18.443  0.00  0.00    +0.054 C 
BRANCH  34  35
ATOM     35  C   UNL     1      52.273  21.526  19.633  0.00  0.00    -0.054 C 
ATOM     36  C   UNL     1      52.200  21.005  20.833  0.00  0.00    -0.141 C 
ATOM     37  C   UNL     1      52.102  21.901  22.041  0.00  0.00    +0.066 C 
ATOM     38  C   UNL     1      52.214  19.508  21.006  0.00  0.00    +0.070 C 
ENDBRANCH  34  35
ENDBRANCH  33  34
ENDBRANCH  32  33
TORSDOF 10
ENDMDL
MODEL 5
REMARK VINA RESULT:      -6.1      3.131      5.798
REMARK  Name = ZINC95485966
REMARK  17 active torsions:
REMARK  status: ('A' for Active; 'I' for Inactive)
REMARK    1  A    between atoms: C1_1  and  C2_2
REMARK    2  A    between atoms: C3_3  and  C28_33
REMARK    3  A    between atoms: C10_10  and  O1_18
REMARK    4  A    between atoms: C11_11  and  C12_12
REMARK    5  A    between atoms: C12_12  and  C13_13
REMARK    6  A    between atoms: C13_13  and  C14_14
REMARK    7  A    between atoms: C15_15  and  C16_16
REMARK    8  A    between atoms: C15_15  and  C17_17
REMARK    9  A    between atoms: C21_24  and  C22_26
REMARK   10  A    between atoms: C22_26  and  C23_27
REMARK   11  A    between atoms: C23_27  and  C24_28
REMARK   12  A    between atoms: C25_29  and  C26_30
REMARK   13  A    between atoms: C25_29  and  C27_31
REMARK   14  A    between atoms: C28_33  and  C29_34
REMARK   15  A    between atoms: C29_34  and  C30_35
REMARK   16  A    between atoms: C31_36  and  C32_37
REMARK   17  A    between atoms: C31_36  and  C33_38
REMARK                            x       y       z     vdW  Elec       q    Type
REMARK                         _______ _______ _______ _____ _____    ______ ____
ROOT
ATOM      1  C   UNL     1      47.222  13.127  16.105  0.00  0.00    +0.076 C 
ATOM      2  C   UNL     1      48.336  13.961  16.683  0.00  0.00    -0.042 A 
ATOM      3  C   UNL     1      48.143  15.298  16.874  0.00  0.00    -0.131 A 
ATOM     10  C   UNL     1      49.171  16.086  17.413  0.00  0.00    +0.053 A 
ATOM     11  C   UNL     1      48.990  17.466  17.629  0.00  0.00    -0.160 A 
ATOM     12  C   UNL     1      49.988  18.226  18.152  0.00  0.00    +0.050 A 
ATOM     13  C   UNL     1      49.714  19.691  18.387  0.00  0.00    +0.003 C 
ATOM     20  C   UNL     1      51.007  20.441  18.585  0.00  0.00    +0.386 C 
ATOM     21  O   UNL     1      51.216  21.486  18.016  0.00  0.00    -0.461 OA
ATOM     22  C   UNL     1      52.036  19.840  19.523  0.00  0.00    +0.003 C 
ATOM     23  C   UNL     1      52.337  18.451  19.001  0.00  0.00    +0.405 C 
ATOM     24  O   UNL     1      53.468  18.013  19.019  0.00  0.00    -0.456 OA
ATOM     25  C   UNL     1      51.231  17.644  18.472  0.00  0.00    -0.382 A 
ATOM     26  C   UNL     1      51.441  16.272  18.279  0.00  0.00    +0.343 A 
ATOM     27  O   UNL     1      52.631  15.714  18.600  0.00  0.00    -0.614 OA
ATOM     28  C   UNL     1      50.407  15.480  17.748  0.00  0.00    -0.176 A 
ATOM     29  C   UNL     1      50.579  14.097  17.542  0.00  0.00    +0.184 A 
ATOM     32  C   UNL     1      49.541  13.356  17.019  0.00  0.00    -0.178 A 
ENDROOT
BRANCH  29  30
ATOM     30  O   UNL     1      51.754  13.499  17.862  0.00  0.00    -0.472 OA
ATOM     31  H   UNL     1      52.473  13.687  17.242  0.00  0.00    +0.381 HD
ENDBRANCH  29  30
BRANCH   3   4
ATOM      4  C   UNL     1      46.824  15.929  16.506  0.00  0.00    +0.071 C 
BRANCH   4   5
ATOM      5  C   UNL     1      46.164  16.500  17.762  0.00  0.00    +0.054 C 
BRANCH   5   6
ATOM      6  C   UNL     1      45.838  15.376  18.712  0.00  0.00    -0.047 C 
ATOM      7  C   UNL     1      46.160  15.474  19.978  0.00  0.00    -0.147 C 
ATOM      8  C   UNL     1      45.866  14.336  20.920  0.00  0.00    +0.065 C 
ATOM      9  C   UNL     1      46.827  16.724  20.491  0.00  0.00    +0.069 C 
ENDBRANCH   5   6
ENDBRANCH   4   5
ENDBRANCH   3   4
BRANCH  13  14
ATOM     14  C   UNL     1      48.840  19.849  19.632  0.00  0.00    +0.061 C 
BRANCH  14  15
ATOM     15  C   UNL     1      47.670  20.783  19.318  0.00  0.00    +0.042 C 
BRANCH  15  16
ATOM     16  C   UNL     1      46.503  19.975  18.812  0.00  0.00    -0.046 C 
ATOM     17  C   UNL     1      45.287  20.454  18.901  0.00  0.00    -0.142 C 
ATOM     18  C   UNL     1      44.122  19.652  18.381  0.00  0.00    +0.068 C 
ATOM     19  C   UNL     1      45.053  21.805  19.524  0.00  0.00    +0.071 C 
ENDBRANCH  15  16
ENDBRANCH  14  15
ENDBRANCH  13  14
BRANCH  32  33
ATOM     33  C   UNL     1      49.717  11.875  16.801  0.00  0.00    +0.073 C 
BRANCH  33  34
ATOM     34  C   UNL     1      50.784  11.639  15.731  0.00  0.00    +0.054 C 
BRANCH  34  35
ATOM     35  C   UNL     1      50.209  11.938  14.372  0.00  0.00    -0.054 C 
ATOM     36  C   UNL     1      50.789  12.817  13.593  0.00  0.00    -0.141 C 
ATOM     37  C   UNL     1      50.319  12.993  12.172  0.00  0.00    +0.066 C 
ATOM     38  C   UNL     1      51.929  13.651  14.117  0.00  0.00    +0.070 C 
ENDBRANCH  34  35
ENDBRANCH  33  34
ENDBRANCH  32  33
TORSDOF 10
ENDMDL
MODEL 6
REMARK VINA RESULT:      -6.0      3.285      6.454
REMARK  Name = ZINC95485966
REMARK  17 active torsions:
REMARK  status: ('A' for Active; 'I' for Inactive)
REMARK    1  A    between atoms: C1_1  and  C2_2
REMARK    2  A    between atoms: C3_3  and  C28_33
REMARK    3  A    between atoms: C10_10  and  O1_18
REMARK    4  A    between atoms: C11_11  and  C12_12
REMARK    5  A    between atoms: C12_12  and  C13_13
REMARK    6  A    between atoms: C13_13  and  C14_14
REMARK    7  A    between atoms: C15_15  and  C16_16
REMARK    8  A    between atoms: C15_15  and  C17_17
REMARK    9  A    between atoms: C21_24  and  C22_26
REMARK   10  A    between atoms: C22_26  and  C23_27
REMARK   11  A    between atoms: C23_27  and  C24_28
REMARK   12  A    between atoms: C25_29  and  C26_30
REMARK   13  A    between atoms: C25_29  and  C27_31
REMARK   14  A    between atoms: C28_33  and  C29_34
REMARK   15  A    between atoms: C29_34  and  C30_35
REMARK   16  A    between atoms: C31_36  and  C32_37
REMARK   17  A    between atoms: C31_36  and  C33_38
REMARK                            x       y       z     vdW  Elec       q    Type
REMARK                         _______ _______ _______ _____ _____    ______ ____
ROOT
ATOM      1  C   UNL     1      45.121  13.438  18.757  0.00  0.00    +0.076 C 
ATOM      2  C   UNL     1      46.479  14.064  18.571  0.00  0.00    -0.042 A 
ATOM      3  C   UNL     1      46.629  15.407  18.748  0.00  0.00    -0.131 A 
ATOM     10  C   UNL     1      47.888  16.002  18.579  0.00  0.00    +0.053 A 
ATOM     11  C   UNL     1      48.067  17.386  18.767  0.00  0.00    -0.160 A 
ATOM     12  C   UNL     1      49.290  17.959  18.603  0.00  0.00    +0.050 A 
ATOM     13  C   UNL     1      49.416  19.441  18.853  0.00  0.00    +0.003 C 
ATOM     20  C   UNL     1      50.699  19.966  18.257  0.00  0.00    +0.386 C 
ATOM     21  O   UNL     1      50.713  20.979  17.600  0.00  0.00    -0.461 OA
ATOM     22  C   UNL     1      51.970  19.179  18.511  0.00  0.00    +0.003 C 
ATOM     23  C   UNL     1      51.717  17.775  18.003  0.00  0.00    +0.405 C 
ATOM     24  O   UNL     1      52.588  17.159  17.425  0.00  0.00    -0.456 OA
ATOM     25  C   UNL     1      50.396  17.174  18.224  0.00  0.00    -0.382 A 
ATOM     26  C   UNL     1      50.255  15.792  18.039  0.00  0.00    +0.343 A 
ATOM     27  O   UNL     1      51.323  15.039  17.688  0.00  0.00    -0.614 OA
ATOM     28  C   UNL     1      48.994  15.195  18.217  0.00  0.00    -0.176 A 
ATOM     29  C   UNL     1      48.812  13.808  18.043  0.00  0.00    +0.184 A 
ATOM     32  C   UNL     1      47.561  13.262  18.226  0.00  0.00    -0.178 A 
ENDROOT
BRANCH  29  30
ATOM     30  O   UNL     1      49.862  13.019  17.702  0.00  0.00    -0.472 OA
ATOM     31  H   UNL     1      50.516  13.456  17.139  0.00  0.00    +0.381 HD
ENDBRANCH  29  30
BRANCH   3   4
ATOM      4  C   UNL     1      45.440  16.255  19.125  0.00  0.00    +0.071 C 
BRANCH   4   5
ATOM      5  C   UNL     1      45.262  16.235  20.644  0.00  0.00    +0.054 C 
BRANCH   5   6
ATOM      6  C   UNL     1      44.386  17.389  21.061  0.00  0.00    -0.047 C 
ATOM      7  C   UNL     1      44.876  18.346  21.810  0.00  0.00    -0.147 C 
ATOM      8  C   UNL     1      43.992  19.480  22.256  0.00  0.00    +0.065 C 
ATOM      9  C   UNL     1      46.324  18.310  22.227  0.00  0.00    +0.069 C 
ENDBRANCH   5   6
ENDBRANCH   4   5
ENDBRANCH   3   4
BRANCH  13  14
ATOM     14  C   UNL     1      49.413  19.703  20.360  0.00  0.00    +0.061 C 
BRANCH  14  15
ATOM     15  C   UNL     1      48.487  20.880  20.671  0.00  0.00    +0.042 C 
BRANCH  15  16
ATOM     16  C   UNL     1      47.287  20.830  19.760  0.00  0.00    -0.046 C 
ATOM     17  C   UNL     1      46.216  21.527  20.050  0.00  0.00    -0.142 C 
ATOM     18  C   UNL     1      45.022  21.488  19.131  0.00  0.00    +0.068 C 
ATOM     19  C   UNL     1      46.177  22.364  21.301  0.00  0.00    +0.071 C 
ENDBRANCH  15  16
ENDBRANCH  14  15
ENDBRANCH  13  14
BRANCH  32  33
ATOM     33  C   UNL     1      47.360  11.778  18.047  0.00  0.00    +0.073 C 
BRANCH  33  34
ATOM     34  C   UNL     1      46.958  11.489  16.599  0.00  0.00    +0.054 C 
BRANCH  34  35
ATOM     35  C   UNL     1      48.022  10.651  15.940  0.00  0.00    -0.054 C 
ATOM     36  C   UNL     1      48.762  11.163  14.987  0.00  0.00    -0.141 C 
ATOM     37  C   UNL     1      49.936  10.387  14.446  0.00  0.00    +0.066 C 
ATOM     38  C   UNL     1      48.441  12.526  14.433  0.00  0.00    +0.070 C 
ENDBRANCH  34  35
ENDBRANCH  33  34
ENDBRANCH  32  33
TORSDOF 10
ENDMDL
MODEL 7
REMARK VINA RESULT:      -5.9      4.069      9.113
REMARK  Name = ZINC95485966
REMARK  17 active torsions:
REMARK  status: ('A' for Active; 'I' for Inactive)
REMARK    1  A    between atoms: C1_1  and  C2_2
REMARK    2  A    between atoms: C3_3  and  C28_33
REMARK    3  A    between atoms: C10_10  and  O1_18
REMARK    4  A    between atoms: C11_11  and  C12_12
REMARK    5  A    between atoms: C12_12  and  C13_13
REMARK    6  A    between atoms: C13_13  and  C14_14
REMARK    7  A    between atoms: C15_15  and  C16_16
REMARK    8  A    between atoms: C15_15  and  C17_17
REMARK    9  A    between atoms: C21_24  and  C22_26
REMARK   10  A    between atoms: C22_26  and  C23_27
REMARK   11  A    between atoms: C23_27  and  C24_28
REMARK   12  A    between atoms: C25_29  and  C26_30
REMARK   13  A    between atoms: C25_29  and  C27_31
REMARK   14  A    between atoms: C28_33  and  C29_34
REMARK   15  A    between atoms: C29_34  and  C30_35
REMARK   16  A    between atoms: C31_36  and  C32_37
REMARK   17  A    between atoms: C31_36  and  C33_38
REMARK                            x       y       z     vdW  Elec       q    Type
REMARK                         _______ _______ _______ _____ _____    ______ ____
ROOT
ATOM      1  C   UNL     1      47.535  18.013  21.521  0.00  0.00    +0.076 C 
ATOM      2  C   UNL     1      47.102  16.836  20.687  0.00  0.00    -0.042 A 
ATOM      3  C   UNL     1      47.867  16.447  19.627  0.00  0.00    -0.131 A 
ATOM     10  C   UNL     1      47.475  15.351  18.843  0.00  0.00    +0.053 A 
ATOM     11  C   UNL     1      48.256  14.925  17.751  0.00  0.00    -0.160 A 
ATOM     12  C   UNL     1      47.874  13.863  16.993  0.00  0.00    +0.050 A 
ATOM     13  C   UNL     1      48.775  13.441  15.859  0.00  0.00    +0.003 C 
ATOM     20  C   UNL     1      48.032  12.537  14.908  0.00  0.00    +0.386 C 
ATOM     21  O   UNL     1      48.092  12.703  13.713  0.00  0.00    -0.461 OA
ATOM     22  C   UNL     1      47.207  11.411  15.502  0.00  0.00    +0.003 C 
ATOM     23  C   UNL     1      46.222  12.055  16.456  0.00  0.00    +0.405 C 
ATOM     24  O   UNL     1      45.081  11.649  16.535  0.00  0.00    -0.456 OA
ATOM     25  C   UNL     1      46.676  13.180  17.282  0.00  0.00    -0.382 A 
ATOM     26  C   UNL     1      45.881  13.571  18.368  0.00  0.00    +0.343 A 
ATOM     27  O   UNL     1      44.739  12.904  18.651  0.00  0.00    -0.614 OA
ATOM     28  C   UNL     1      46.279  14.663  19.160  0.00  0.00    -0.176 A 
ATOM     29  C   UNL     1      45.508  15.085  20.261  0.00  0.00    +0.184 A 
ATOM     32  C   UNL     1      45.931  16.160  21.012  0.00  0.00    -0.178 A 
ENDROOT
BRANCH  29  30
ATOM     30  O   UNL     1      44.361  14.434  20.582  0.00  0.00    -0.472 OA
ATOM     31  H   UNL     1      44.354  14.067  21.477  0.00  0.00    +0.381 HD
ENDBRANCH  29  30
BRANCH   3   4
ATOM      4  C   UNL     1      49.134  17.194  19.298  0.00  0.00    +0.071 C 
BRANCH   4   5
ATOM      5  C   UNL     1      48.837  18.260  18.242  0.00  0.00    +0.054 C 
BRANCH   5   6
ATOM      6  C   UNL     1      50.039  19.155  18.081  0.00  0.00    -0.047 C 
ATOM      7  C   UNL     1      50.047  20.346  18.626  0.00  0.00    -0.147 C 
ATOM      8  C   UNL     1      51.233  21.254  18.434  0.00  0.00    +0.065 C 
ATOM      9  C   UNL     1      48.868  20.809  19.442  0.00  0.00    +0.069 C 
ENDBRANCH   5   6
ENDBRANCH   4   5
ENDBRANCH   3   4
BRANCH  13  14
ATOM     14  C   UNL     1      49.986  12.698  16.424  0.00  0.00    +0.061 C 
BRANCH  14  15
ATOM     15  C   UNL     1      51.240  13.555  16.244  0.00  0.00    +0.042 C 
BRANCH  15  16
ATOM     16  C   UNL     1      51.727  14.023  17.591  0.00  0.00    -0.046 C 
ATOM     17  C   UNL     1      51.931  15.299  17.807  0.00  0.00    -0.142 C 
ATOM     18  C   UNL     1      52.404  15.768  19.159  0.00  0.00    +0.068 C 
ATOM     19  C   UNL     1      51.694  16.297  16.704  0.00  0.00    +0.071 C 
ENDBRANCH  15  16
ENDBRANCH  14  15
ENDBRANCH  13  14
BRANCH  32  33
ATOM     33  C   UNL     1      45.114  16.613  22.195  0.00  0.00    +0.073 C 
BRANCH  33  34
ATOM     34  C   UNL     1      43.748  17.105  21.713  0.00  0.00    +0.054 C 
BRANCH  34  35
ATOM     35  C   UNL     1      43.933  18.284  20.795  0.00  0.00    -0.054 C 
ATOM     36  C   UNL     1      42.946  19.124  20.600  0.00  0.00    -0.141 C 
ATOM     37  C   UNL     1      43.179  20.393  19.821  0.00  0.00    +0.066 C 
ATOM     38  C   UNL     1      41.578  18.821  21.154  0.00  0.00    +0.070 C 
ENDBRANCH  34  35
ENDBRANCH  33  34
ENDBRANCH  32  33
TORSDOF 10
ENDMDL
MODEL 8
REMARK VINA RESULT:      -5.4      4.367      9.174
REMARK  Name = ZINC95485966
REMARK  17 active torsions:
REMARK  status: ('A' for Active; 'I' for Inactive)
REMARK    1  A    between atoms: C1_1  and  C2_2
REMARK    2  A    between atoms: C3_3  and  C28_33
REMARK    3  A    between atoms: C10_10  and  O1_18
REMARK    4  A    between atoms: C11_11  and  C12_12
REMARK    5  A    between atoms: C12_12  and  C13_13
REMARK    6  A    between atoms: C13_13  and  C14_14
REMARK    7  A    between atoms: C15_15  and  C16_16
REMARK    8  A    between atoms: C15_15  and  C17_17
REMARK    9  A    between atoms: C21_24  and  C22_26
REMARK   10  A    between atoms: C22_26  and  C23_27
REMARK   11  A    between atoms: C23_27  and  C24_28
REMARK   12  A    between atoms: C25_29  and  C26_30
REMARK   13  A    between atoms: C25_29  and  C27_31
REMARK   14  A    between atoms: C28_33  and  C29_34
REMARK   15  A    between atoms: C29_34  and  C30_35
REMARK   16  A    between atoms: C31_36  and  C32_37
REMARK   17  A    between atoms: C31_36  and  C33_38
REMARK                            x       y       z     vdW  Elec       q    Type
REMARK                         _______ _______ _______ _____ _____    ______ ____
ROOT
ATOM      1  C   UNL     1      48.209  18.717  20.825  0.00  0.00    +0.076 C 
ATOM      2  C   UNL     1      47.626  17.453  20.246  0.00  0.00    -0.042 A 
ATOM      3  C   UNL     1      48.395  16.669  19.438  0.00  0.00    -0.131 A 
ATOM     10  C   UNL     1      47.864  15.489  18.894  0.00  0.00    +0.053 A 
ATOM     11  C   UNL     1      48.644  14.658  18.066  0.00  0.00    -0.160 A 
ATOM     12  C   UNL     1      48.126  13.515  17.541  0.00  0.00    +0.050 A 
ATOM     13  C   UNL     1      49.028  12.656  16.690  0.00  0.00    +0.003 C 
ATOM     20  C   UNL     1      48.211  11.674  15.887  0.00  0.00    +0.386 C 
ATOM     21  O   UNL     1      48.421  11.502  14.711  0.00  0.00    -0.461 OA
ATOM     22  C   UNL     1      47.117  10.910  16.608  0.00  0.00    +0.003 C 
ATOM     23  C   UNL     1      46.198  11.946  17.221  0.00  0.00    +0.405 C 
ATOM     24  O   UNL     1      44.996  11.781  17.226  0.00  0.00    -0.456 OA
ATOM     25  C   UNL     1      46.791  13.154  17.807  0.00  0.00    -0.382 A 
ATOM     26  C   UNL     1      45.992  13.953  18.635  0.00  0.00    +0.343 A 
ATOM     27  O   UNL     1      44.714  13.595  18.899  0.00  0.00    -0.614 OA
ATOM     28  C   UNL     1      46.526  15.130  19.188  0.00  0.00    -0.176 A 
ATOM     29  C   UNL     1      45.755  15.958  20.027  0.00  0.00    +0.184 A 
ATOM     32  C   UNL     1      46.315  17.104  20.548  0.00  0.00    -0.178 A 
ENDROOT
BRANCH  29  30
ATOM     30  O   UNL     1      44.473  15.627  20.323  0.00  0.00    -0.472 OA
ATOM     31  H   UNL     1      44.357  14.706  20.596  0.00  0.00    +0.381 HD
ENDBRANCH  29  30
BRANCH   3   4
ATOM      4  C   UNL     1      49.815  17.069  19.129  0.00  0.00    +0.071 C 
BRANCH   4   5
ATOM      5  C   UNL     1      49.828  18.014  17.926  0.00  0.00    +0.054 C 
BRANCH   5   6
ATOM      6  C   UNL     1      51.069  18.868  17.972  0.00  0.00    -0.047 C 
ATOM      7  C   UNL     1      50.970  20.155  18.194  0.00  0.00    -0.147 C 
ATOM      8  C   UNL     1      52.207  21.014  18.204  0.00  0.00    +0.065 C 
ATOM      9  C   UNL     1      49.619  20.777  18.435  0.00  0.00    +0.069 C 
ENDBRANCH   5   6
ENDBRANCH   4   5
ENDBRANCH   3   4
BRANCH  13  14
ATOM     14  C   UNL     1      49.998  11.892  17.591  0.00  0.00    +0.061 C 
BRANCH  14  15
ATOM     15  C   UNL     1      51.262  11.546  16.802  0.00  0.00    +0.042 C 
BRANCH  15  16
ATOM     16  C   UNL     1      51.627  12.701  15.906  0.00  0.00    -0.046 C 
ATOM     17  C   UNL     1      51.863  12.494  14.633  0.00  0.00    -0.142 C 
ATOM     18  C   UNL     1      52.213  13.652  13.735  0.00  0.00    +0.068 C 
ATOM     19  C   UNL     1      51.785  11.099  14.070  0.00  0.00    +0.071 C 
ENDBRANCH  15  16
ENDBRANCH  14  15
ENDBRANCH  13  14
BRANCH  32  33
ATOM     33  C   UNL     1      45.497  17.991  21.452  0.00  0.00    +0.073 C 
BRANCH  33  34
ATOM     34  C   UNL     1      44.552  18.847  20.607  0.00  0.00    +0.054 C 
BRANCH  34  35
ATOM     35  C   UNL     1      44.759  20.302  20.938  0.00  0.00    -0.054 C 
ATOM     36  C   UNL     1      45.277  21.110  20.046  0.00  0.00    -0.141 C 
ATOM     37  C   UNL     1      45.327  22.593  20.311  0.00  0.00    +0.066 C 
ATOM     38  C   UNL     1      45.822  20.557  18.755  0.00  0.00    +0.070 C 
ENDBRANCH  34  35
ENDBRANCH  33  34
ENDBRANCH  32  33
TORSDOF 10
ENDMDL
MODEL 9
REMARK VINA RESULT:      -4.9      2.996      6.036
REMARK  Name = ZINC95485966
REMARK  17 active torsions:
REMARK  status: ('A' for Active; 'I' for Inactive)
REMARK    1  A    between atoms: C1_1  and  C2_2
REMARK    2  A    between atoms: C3_3  and  C28_33
REMARK    3  A    between atoms: C10_10  and  O1_18
REMARK    4  A    between atoms: C11_11  and  C12_12
REMARK    5  A    between atoms: C12_12  and  C13_13
REMARK    6  A    between atoms: C13_13  and  C14_14
REMARK    7  A    between atoms: C15_15  and  C16_16
REMARK    8  A    between atoms: C15_15  and  C17_17
REMARK    9  A    between atoms: C21_24  and  C22_26
REMARK   10  A    between atoms: C22_26  and  C23_27
REMARK   11  A    between atoms: C23_27  and  C24_28
REMARK   12  A    between atoms: C25_29  and  C26_30
REMARK   13  A    between atoms: C25_29  and  C27_31
REMARK   14  A    between atoms: C28_33  and  C29_34
REMARK   15  A    between atoms: C29_34  and  C30_35
REMARK   16  A    between atoms: C31_36  and  C32_37
REMARK   17  A    between atoms: C31_36  and  C33_38
REMARK                            x       y       z     vdW  Elec       q    Type
REMARK                         _______ _______ _______ _____ _____    ______ ____
ROOT
ATOM      1  C   UNL     1      47.029  13.286  16.231  0.00  0.00    +0.076 C 
ATOM      2  C   UNL     1      48.178  14.119  16.736  0.00  0.00    -0.042 A 
ATOM      3  C   UNL     1      47.966  15.424  17.067  0.00  0.00    -0.131 A 
ATOM     10  C   UNL     1      49.028  16.211  17.540  0.00  0.00    +0.053 A 
ATOM     11  C   UNL     1      48.828  17.558  17.898  0.00  0.00    -0.160 A 
ATOM     12  C   UNL     1      49.860  18.317  18.357  0.00  0.00    +0.050 A 
ATOM     13  C   UNL     1      49.568  19.742  18.753  0.00  0.00    +0.003 C 
ATOM     20  C   UNL     1      50.849  20.532  18.852  0.00  0.00    +0.386 C 
ATOM     21  O   UNL     1      50.947  21.629  18.356  0.00  0.00    -0.461 OA
ATOM     22  C   UNL     1      52.011  19.902  19.595  0.00  0.00    +0.003 C 
ATOM     23  C   UNL     1      52.289  18.576  18.919  0.00  0.00    +0.405 C 
ATOM     24  O   UNL     1      53.428  18.190  18.756  0.00  0.00    -0.456 OA
ATOM     25  C   UNL     1      51.152  17.766  18.464  0.00  0.00    -0.382 A 
ATOM     26  C   UNL     1      51.382  16.427  18.126  0.00  0.00    +0.343 A 
ATOM     27  O   UNL     1      52.623  15.898  18.244  0.00  0.00    -0.614 OA
ATOM     28  C   UNL     1      50.316  15.636  17.661  0.00  0.00    -0.176 A 
ATOM     29  C   UNL     1      50.507  14.284  17.314  0.00  0.00    +0.184 A 
ATOM     32  C   UNL     1      49.437  13.543  16.861  0.00  0.00    -0.178 A 
ENDROOT
BRANCH  29  30
ATOM     30  O   UNL     1      51.734  13.716  17.428  0.00  0.00    -0.472 OA
ATOM     31  H   UNL     1      52.262  14.062  18.161  0.00  0.00    +0.381 HD
ENDBRANCH  29  30
BRANCH   3   4
ATOM      4  C   UNL     1      46.590  16.024  16.925  0.00  0.00    +0.071 C 
BRANCH   4   5
ATOM      5  C   UNL     1      45.788  15.766  18.202  0.00  0.00    +0.054 C 
BRANCH   5   6
ATOM      6  C   UNL     1      46.650  16.055  19.403  0.00  0.00    -0.047 C 
ATOM      7  C   UNL     1      46.412  15.452  20.541  0.00  0.00    -0.147 C 
ATOM      8  C   UNL     1      47.252  15.768  21.751  0.00  0.00    +0.065 C 
ATOM      9  C   UNL     1      45.296  14.444  20.641  0.00  0.00    +0.069 C 
ENDBRANCH   5   6
ENDBRANCH   4   5
ENDBRANCH   3   4
BRANCH  13  14
ATOM     14  C   UNL     1      48.858  19.756  20.107  0.00  0.00    +0.061 C 
BRANCH  14  15
ATOM     15  C   UNL     1      47.595  20.614  20.012  0.00  0.00    +0.042 C 
BRANCH  15  16
ATOM     16  C   UNL     1      46.438  19.877  20.635  0.00  0.00    -0.046 C 
ATOM     17  C   UNL     1      45.499  19.368  19.876  0.00  0.00    -0.142 C 
ATOM     18  C   UNL     1      44.350  18.618  20.499  0.00  0.00    +0.068 C 
ATOM     19  C   UNL     1      45.568  19.534  18.380  0.00  0.00    +0.071 C 
ENDBRANCH  15  16
ENDBRANCH  14  15
ENDBRANCH  13  14
BRANCH  32  33
ATOM     33  C   UNL     1      49.634  12.095  16.493  0.00  0.00    +0.073 C 
BRANCH  33  34
ATOM     34  C   UNL     1      49.011  11.205  17.571  0.00  0.00    +0.054 C 
BRANCH  34  35
ATOM     35  C   UNL     1      49.981  11.040  18.710  0.00  0.00    -0.054 C 
ATOM     36  C   UNL     1      49.687  11.514  19.896  0.00  0.00    -0.141 C 
ATOM     37  C   UNL     1      50.574  11.203  21.074  0.00  0.00    +0.066 C 
ATOM     38  C   UNL     1      48.462  12.371  20.081  0.00  0.00    +0.070 C 
ENDBRANCH  34  35
ENDBRANCH  33  34
ENDBRANCH  32  33
TORSDOF 10
ENDMDL
