MODEL 1
REMARK VINA RESULT:      -4.0      0.000      0.000
REMARK  Name = ZINC01529208
REMARK  7 active torsions:
REMARK  status: ('A' for Active; 'I' for Inactive)
REMARK    1  A    between atoms: C1_1  and  C2_2
REMARK    2  A    between atoms: C2_2  and  C10_11
REMARK    3  A    between atoms: C3_3  and  C4_4
REMARK    4  A    between atoms: C4_4  and  C5_5
REMARK    5  A    between atoms: C5_5  and  C6_6
REMARK    6  A    between atoms: C6_6  and  C9_10
REMARK    7  A    between atoms: C7_7  and  C8_8
REMARK                            x       y       z     vdW  Elec       q    Type
REMARK                         _______ _______ _______ _____ _____    ______ ____
ROOT
ATOM      6  C   UNL     1      42.622  31.578   2.697  0.00  0.00    +0.066 C 
ENDROOT
BRANCH   6   7
ATOM      7  C   UNL     1      43.196  32.971   2.666  0.00  0.00    -0.031 C 
ATOM      8  C   UNL     1      42.285  34.159   2.511  0.00  0.00    +0.091 C 
ATOM      9  C   UNL     1      44.515  33.150   2.774  0.00  0.00    -0.137 C 
BRANCH   9  10
ATOM     10  C   UNL     1      45.073  34.502   2.745  0.00  0.00    +0.460 C 
ATOM     11  O   UNL     1      45.787  34.883   3.648  0.00  0.00    -0.466 OA
ENDBRANCH   9  10
ENDBRANCH   6   7
BRANCH   6   5
ATOM      5  C   UNL     1      41.867  31.308   1.394  0.00  0.00    +0.060 C 
BRANCH   5   4
ATOM      1  C   UNL     1      42.451  31.454  -1.361  0.00  0.00    +0.073 C 
ATOM      2  C   UNL     1      42.703  30.178  -0.601  0.00  0.00    -0.127 C 
ATOM      3  C   UNL     1      43.205  28.955  -1.328  0.00  0.00    +0.074 C 
ATOM      4  C   UNL     1      42.485  30.128   0.690  0.00  0.00    -0.064 C 
ENDBRANCH   5   4
ENDBRANCH   6   5
TORSDOF 4
ENDMDL
MODEL 2
REMARK VINA RESULT:      -4.0     21.747     22.686
REMARK  Name = ZINC01529208
REMARK  7 active torsions:
REMARK  status: ('A' for Active; 'I' for Inactive)
REMARK    1  A    between atoms: C1_1  and  C2_2
REMARK    2  A    between atoms: C2_2  and  C10_11
REMARK    3  A    between atoms: C3_3  and  C4_4
REMARK    4  A    between atoms: C4_4  and  C5_5
REMARK    5  A    between atoms: C5_5  and  C6_6
REMARK    6  A    between atoms: C6_6  and  C9_10
REMARK    7  A    between atoms: C7_7  and  C8_8
REMARK                            x       y       z     vdW  Elec       q    Type
REMARK                         _______ _______ _______ _____ _____    ______ ____
ROOT
ATOM      6  C   UNL     1      51.283  21.078  17.035  0.00  0.00    +0.066 C 
ENDROOT
BRANCH   6   7
ATOM      7  C   UNL     1      51.084  21.085  18.529  0.00  0.00    -0.031 C 
ATOM      8  C   UNL     1      49.732  20.762  19.110  0.00  0.00    +0.091 C 
ATOM      9  C   UNL     1      52.105  21.377  19.336  0.00  0.00    -0.137 C 
BRANCH   9  10
ATOM     10  C   UNL     1      51.912  21.383  20.786  0.00  0.00    +0.460 C 
ATOM     11  O   UNL     1      52.646  20.731  21.499  0.00  0.00    -0.466 OA
ENDBRANCH   9  10
ENDBRANCH   6   7
BRANCH   6   5
ATOM      5  C   UNL     1      52.216  19.928  16.650  0.00  0.00    +0.060 C 
BRANCH   5   4
ATOM      1  C   UNL     1      52.566  17.784  18.448  0.00  0.00    +0.073 C 
ATOM      2  C   UNL     1      51.618  17.648  17.285  0.00  0.00    -0.127 C 
ATOM      3  C   UNL     1      50.905  16.341  17.044  0.00  0.00    +0.074 C 
ATOM      4  C   UNL     1      51.413  18.664  16.484  0.00  0.00    -0.064 C 
ENDBRANCH   5   4
ENDBRANCH   6   5
TORSDOF 4
ENDMDL
MODEL 3
REMARK VINA RESULT:      -4.0     20.923     22.125
REMARK  Name = ZINC01529208
REMARK  7 active torsions:
REMARK  status: ('A' for Active; 'I' for Inactive)
REMARK    1  A    between atoms: C1_1  and  C2_2
REMARK    2  A    between atoms: C2_2  and  C10_11
REMARK    3  A    between atoms: C3_3  and  C4_4
REMARK    4  A    between atoms: C4_4  and  C5_5
REMARK    5  A    between atoms: C5_5  and  C6_6
REMARK    6  A    between atoms: C6_6  and  C9_10
REMARK    7  A    between atoms: C7_7  and  C8_8
REMARK                            x       y       z     vdW  Elec       q    Type
REMARK                         _______ _______ _______ _____ _____    ______ ____
ROOT
ATOM      6  C   UNL     1      51.595  21.164  18.792  0.00  0.00    +0.066 C 
ENDROOT
BRANCH   6   7
ATOM      7  C   UNL     1      51.624  20.557  17.412  0.00  0.00    -0.031 C 
ATOM      8  C   UNL     1      51.439  21.432  16.200  0.00  0.00    +0.091 C 
ATOM      9  C   UNL     1      51.813  19.244  17.265  0.00  0.00    -0.137 C 
BRANCH   9  10
ATOM     10  C   UNL     1      51.842  18.655  15.926  0.00  0.00    +0.460 C 
ATOM     11  O   UNL     1      51.890  17.450  15.795  0.00  0.00    -0.466 OA
ENDBRANCH   9  10
ENDBRANCH   6   7
BRANCH   6   5
ATOM      5  C   UNL     1      50.659  20.350  19.687  0.00  0.00    +0.060 C 
BRANCH   5   4
ATOM      1  C   UNL     1      48.556  18.648  18.891  0.00  0.00    +0.073 C 
ATOM      2  C   UNL     1      48.291  20.110  19.143  0.00  0.00    -0.127 C 
ATOM      3  C   UNL     1      46.915  20.678  18.905  0.00  0.00    +0.074 C 
ATOM      4  C   UNL     1      49.256  20.888  19.568  0.00  0.00    -0.064 C 
ENDBRANCH   5   4
ENDBRANCH   6   5
TORSDOF 4
ENDMDL
MODEL 4
REMARK VINA RESULT:      -3.9     21.461     22.749
REMARK  Name = ZINC01529208
REMARK  7 active torsions:
REMARK  status: ('A' for Active; 'I' for Inactive)
REMARK    1  A    between atoms: C1_1  and  C2_2
REMARK    2  A    between atoms: C2_2  and  C10_11
REMARK    3  A    between atoms: C3_3  and  C4_4
REMARK    4  A    between atoms: C4_4  and  C5_5
REMARK    5  A    between atoms: C5_5  and  C6_6
REMARK    6  A    between atoms: C6_6  and  C9_10
REMARK    7  A    between atoms: C7_7  and  C8_8
REMARK                            x       y       z     vdW  Elec       q    Type
REMARK                         _______ _______ _______ _____ _____    ______ ____
ROOT
ATOM      6  C   UNL     1      51.921  18.823  15.913  0.00  0.00    +0.066 C 
ENDROOT
BRANCH   6   7
ATOM      7  C   UNL     1      51.210  17.840  16.809  0.00  0.00    -0.031 C 
ATOM      8  C   UNL     1      52.004  16.933  17.712  0.00  0.00    +0.091 C 
ATOM      9  C   UNL     1      49.877  17.775  16.800  0.00  0.00    -0.137 C 
BRANCH   9  10
ATOM     10  C   UNL     1      49.187  16.822  17.669  0.00  0.00    +0.460 C 
ATOM     11  O   UNL     1      48.509  15.940  17.185  0.00  0.00    -0.466 OA
ENDBRANCH   9  10
ENDBRANCH   6   7
BRANCH   6   5
ATOM      5  C   UNL     1      51.527  20.248  16.306  0.00  0.00    +0.060 C 
BRANCH   5   4
ATOM      1  C   UNL     1      50.051  21.003  18.587  0.00  0.00    +0.073 C 
ATOM      2  C   UNL     1      51.556  21.041  18.615  0.00  0.00    -0.127 C 
ATOM      3  C   UNL     1      52.275  21.547  19.840  0.00  0.00    +0.074 C 
ATOM      4  C   UNL     1      52.242  20.636  17.574  0.00  0.00    -0.064 C 
ENDBRANCH   5   4
ENDBRANCH   6   5
TORSDOF 4
ENDMDL
MODEL 5
REMARK VINA RESULT:      -3.9     20.701     21.900
REMARK  Name = ZINC01529208
REMARK  7 active torsions:
REMARK  status: ('A' for Active; 'I' for Inactive)
REMARK    1  A    between atoms: C1_1  and  C2_2
REMARK    2  A    between atoms: C2_2  and  C10_11
REMARK    3  A    between atoms: C3_3  and  C4_4
REMARK    4  A    between atoms: C4_4  and  C5_5
REMARK    5  A    between atoms: C5_5  and  C6_6
REMARK    6  A    between atoms: C6_6  and  C9_10
REMARK    7  A    between atoms: C7_7  and  C8_8
REMARK                            x       y       z     vdW  Elec       q    Type
REMARK                         _______ _______ _______ _____ _____    ______ ____
ROOT
ATOM      6  C   UNL     1      43.493  19.259  19.537  0.00  0.00    +0.066 C 
ENDROOT
BRANCH   6   7
ATOM      7  C   UNL     1      42.075  19.749  19.681  0.00  0.00    -0.031 C 
ATOM      8  C   UNL     1      41.177  19.160  20.737  0.00  0.00    +0.091 C 
ATOM      9  C   UNL     1      41.615  20.706  18.872  0.00  0.00    -0.137 C 
BRANCH   9  10
ATOM     10  C   UNL     1      40.239  21.183  19.012  0.00  0.00    +0.460 C 
ATOM     11  O   UNL     1      39.478  21.122  18.070  0.00  0.00    -0.466 OA
ENDBRANCH   9  10
ENDBRANCH   6   7
BRANCH   6   5
ATOM      5  C   UNL     1      44.362  20.376  18.956  0.00  0.00    +0.060 C 
BRANCH   5   4
ATOM      1  C   UNL     1      44.291  23.085  19.736  0.00  0.00    +0.073 C 
ATOM      2  C   UNL     1      45.310  22.152  20.336  0.00  0.00    -0.127 C 
ATOM      3  C   UNL     1      46.337  22.681  21.306  0.00  0.00    +0.074 C 
ATOM      4  C   UNL     1      45.305  20.881  20.016  0.00  0.00    -0.064 C 
ENDBRANCH   5   4
ENDBRANCH   6   5
TORSDOF 4
ENDMDL
MODEL 6
REMARK VINA RESULT:      -3.9     20.642     21.829
REMARK  Name = ZINC01529208
REMARK  7 active torsions:
REMARK  status: ('A' for Active; 'I' for Inactive)
REMARK    1  A    between atoms: C1_1  and  C2_2
REMARK    2  A    between atoms: C2_2  and  C10_11
REMARK    3  A    between atoms: C3_3  and  C4_4
REMARK    4  A    between atoms: C4_4  and  C5_5
REMARK    5  A    between atoms: C5_5  and  C6_6
REMARK    6  A    between atoms: C6_6  and  C9_10
REMARK    7  A    between atoms: C7_7  and  C8_8
REMARK                            x       y       z     vdW  Elec       q    Type
REMARK                         _______ _______ _______ _____ _____    ______ ____
ROOT
ATOM      6  C   UNL     1      48.842  19.817  19.509  0.00  0.00    +0.066 C 
ENDROOT
BRANCH   6   7
ATOM      7  C   UNL     1      47.635  20.692  19.732  0.00  0.00    -0.031 C 
ATOM      8  C   UNL     1      47.548  21.557  20.961  0.00  0.00    +0.091 C 
ATOM      9  C   UNL     1      46.643  20.699  18.839  0.00  0.00    -0.137 C 
BRANCH   9  10
ATOM     10  C   UNL     1      45.472  21.549  19.054  0.00  0.00    +0.460 C 
ATOM     11  O   UNL     1      44.369  21.051  19.138  0.00  0.00    -0.466 OA
ENDBRANCH   9  10
ENDBRANCH   6   7
BRANCH   6   5
ATOM      5  C   UNL     1      50.102  20.684  19.475  0.00  0.00    +0.060 C 
BRANCH   5   4
ATOM      1  C   UNL     1      52.393  19.665  18.186  0.00  0.00    +0.073 C 
ATOM      2  C   UNL     1      51.500  20.647  17.475  0.00  0.00    -0.127 C 
ATOM      3  C   UNL     1      51.866  21.137  16.096  0.00  0.00    +0.074 C 
ATOM      4  C   UNL     1      50.405  21.076  18.052  0.00  0.00    -0.064 C 
ENDBRANCH   5   4
ENDBRANCH   6   5
TORSDOF 4
ENDMDL
MODEL 7
REMARK VINA RESULT:      -3.8     20.727     21.884
REMARK  Name = ZINC01529208
REMARK  7 active torsions:
REMARK  status: ('A' for Active; 'I' for Inactive)
REMARK    1  A    between atoms: C1_1  and  C2_2
REMARK    2  A    between atoms: C2_2  and  C10_11
REMARK    3  A    between atoms: C3_3  and  C4_4
REMARK    4  A    between atoms: C4_4  and  C5_5
REMARK    5  A    between atoms: C5_5  and  C6_6
REMARK    6  A    between atoms: C6_6  and  C9_10
REMARK    7  A    between atoms: C7_7  and  C8_8
REMARK                            x       y       z     vdW  Elec       q    Type
REMARK                         _______ _______ _______ _____ _____    ______ ____
ROOT
ATOM      6  C   UNL     1      48.396  20.875  19.921  0.00  0.00    +0.066 C 
ENDROOT
BRANCH   6   7
ATOM      7  C   UNL     1      47.288  20.269  19.099  0.00  0.00    -0.031 C 
ATOM      8  C   UNL     1      46.115  21.112  18.675  0.00  0.00    +0.091 C 
ATOM      9  C   UNL     1      47.348  18.982  18.747  0.00  0.00    -0.137 C 
BRANCH   9  10
ATOM     10  C   UNL     1      46.273  18.393  17.948  0.00  0.00    +0.460 C 
ATOM     11  O   UNL     1      46.503  17.444  17.228  0.00  0.00    -0.466 OA
ENDBRANCH   9  10
ENDBRANCH   6   7
BRANCH   6   5
ATOM      5  C   UNL     1      49.729  20.232  19.535  0.00  0.00    +0.060 C 
BRANCH   5   4
ATOM      1  C   UNL     1      50.856  18.873  17.336  0.00  0.00    +0.073 C 
ATOM      2  C   UNL     1      50.928  20.376  17.413  0.00  0.00    -0.127 C 
ATOM      3  C   UNL     1      51.661  21.151  16.348  0.00  0.00    +0.074 C 
ATOM      4  C   UNL     1      50.354  21.010  18.406  0.00  0.00    -0.064 C 
ENDBRANCH   5   4
ENDBRANCH   6   5
TORSDOF 4
ENDMDL
MODEL 8
REMARK VINA RESULT:      -3.8     10.144     12.508
REMARK  Name = ZINC01529208
REMARK  7 active torsions:
REMARK  status: ('A' for Active; 'I' for Inactive)
REMARK    1  A    between atoms: C1_1  and  C2_2
REMARK    2  A    between atoms: C2_2  and  C10_11
REMARK    3  A    between atoms: C3_3  and  C4_4
REMARK    4  A    between atoms: C4_4  and  C5_5
REMARK    5  A    between atoms: C5_5  and  C6_6
REMARK    6  A    between atoms: C6_6  and  C9_10
REMARK    7  A    between atoms: C7_7  and  C8_8
REMARK                            x       y       z     vdW  Elec       q    Type
REMARK                         _______ _______ _______ _____ _____    ______ ____
ROOT
ATOM      6  C   UNL     1      54.697  33.184   6.718  0.00  0.00    +0.066 C 
ENDROOT
BRANCH   6   7
ATOM      7  C   UNL     1      53.250  33.468   6.408  0.00  0.00    -0.031 C 
ATOM      8  C   UNL     1      52.533  34.590   7.112  0.00  0.00    +0.091 C 
ATOM      9  C   UNL     1      52.603  32.724   5.507  0.00  0.00    -0.137 C 
BRANCH   9  10
ATOM     10  C   UNL     1      51.198  32.999   5.205  0.00  0.00    +0.460 C 
ATOM     11  O   UNL     1      50.782  32.853   4.075  0.00  0.00    -0.466 OA
ENDBRANCH   9  10
ENDBRANCH   6   7
BRANCH   6   5
ATOM      5  C   UNL     1      55.589  34.079   5.856  0.00  0.00    +0.060 C 
BRANCH   5   4
ATOM      1  C   UNL     1      55.913  32.641   3.452  0.00  0.00    +0.073 C 
ATOM      2  C   UNL     1      57.015  32.655   4.479  0.00  0.00    -0.127 C 
ATOM      3  C   UNL     1      58.266  31.844   4.252  0.00  0.00    +0.074 C 
ATOM      4  C   UNL     1      56.886  33.369   5.569  0.00  0.00    -0.064 C 
ENDBRANCH   5   4
ENDBRANCH   6   5
TORSDOF 4
ENDMDL
MODEL 9
REMARK VINA RESULT:      -3.7     21.139     22.108
REMARK  Name = ZINC01529208
REMARK  7 active torsions:
REMARK  status: ('A' for Active; 'I' for Inactive)
REMARK    1  A    between atoms: C1_1  and  C2_2
REMARK    2  A    between atoms: C2_2  and  C10_11
REMARK    3  A    between atoms: C3_3  and  C4_4
REMARK    4  A    between atoms: C4_4  and  C5_5
REMARK    5  A    between atoms: C5_5  and  C6_6
REMARK    6  A    between atoms: C6_6  and  C9_10
REMARK    7  A    between atoms: C7_7  and  C8_8
REMARK                            x       y       z     vdW  Elec       q    Type
REMARK                         _______ _______ _______ _____ _____    ______ ____
ROOT
ATOM      6  C   UNL     1      51.939  20.932  16.597  0.00  0.00    +0.066 C 
ENDROOT
BRANCH   6   7
ATOM      7  C   UNL     1      51.484  20.919  18.034  0.00  0.00    -0.031 C 
ATOM      8  C   UNL     1      52.499  20.859  19.145  0.00  0.00    +0.091 C 
ATOM      9  C   UNL     1      50.182  20.961  18.321  0.00  0.00    -0.137 C 
BRANCH   9  10
ATOM     10  C   UNL     1      49.740  20.949  19.716  0.00  0.00    +0.460 C 
ATOM     11  O   UNL     1      48.557  20.992  19.977  0.00  0.00    -0.466 OA
ENDBRANCH   9  10
ENDBRANCH   6   7
BRANCH   6   5
ATOM      5  C   UNL     1      51.270  19.783  15.840  0.00  0.00    +0.060 C 
BRANCH   5   4
ATOM      1  C   UNL     1      49.736  17.705  16.972  0.00  0.00    +0.073 C 
ATOM      2  C   UNL     1      51.223  17.539  16.799  0.00  0.00    -0.127 C 
ATOM      3  C   UNL     1      51.903  16.287  17.292  0.00  0.00    +0.074 C 
ATOM      4  C   UNL     1      51.926  18.481  16.220  0.00  0.00    -0.064 C 
ENDBRANCH   5   4
ENDBRANCH   6   5
TORSDOF 4
ENDMDL
