MODEL 1
REMARK VINA RESULT:      -4.2      0.000      0.000
REMARK  Name = ZINC57986567
REMARK  1 active torsions:
REMARK  status: ('A' for Active; 'I' for Inactive)
REMARK    1  A    between atoms: C1_1  and  C2_2
REMARK                            x       y       z     vdW  Elec       q    Type
REMARK                         _______ _______ _______ _____ _____    ______ ____
ROOT
ATOM      1  C   UNL     1      37.547  32.720  13.225  0.00  0.00    +0.064 C 
ATOM      2  C   UNL     1      36.681  32.967  12.017  0.00  0.00    -0.127 C 
ATOM      3  C   UNL     1      35.876  32.024  11.643  0.00  0.00    -0.061 C 
ATOM      4  C   UNL     1      34.963  32.119  10.457  0.00  0.00    +0.051 C 
ATOM      5  C   UNL     1      34.802  33.580  10.031  0.00  0.00    +0.006 C 
ATOM      6  C   UNL     1      36.197  34.210   9.920  0.00  0.00    +0.008 C 
ATOM      7  C   UNL     1      36.800  34.294  11.325  0.00  0.00    +0.058 C 
ENDROOT
TORSDOF 0
ENDMDL
MODEL 2
REMARK VINA RESULT:      -4.1      0.878      3.032
REMARK  Name = ZINC57986567
REMARK  1 active torsions:
REMARK  status: ('A' for Active; 'I' for Inactive)
REMARK    1  A    between atoms: C1_1  and  C2_2
REMARK                            x       y       z     vdW  Elec       q    Type
REMARK                         _______ _______ _______ _____ _____    ______ ____
ROOT
ATOM      1  C   UNL     1      36.512  35.325   9.036  0.00  0.00    +0.064 C 
ATOM      2  C   UNL     1      36.387  34.158   9.983  0.00  0.00    -0.127 C 
ATOM      3  C   UNL     1      36.847  34.300  11.185  0.00  0.00    -0.061 C 
ATOM      4  C   UNL     1      36.805  33.227  12.233  0.00  0.00    +0.051 C 
ATOM      5  C   UNL     1      35.796  32.145  11.840  0.00  0.00    +0.006 C 
ATOM      6  C   UNL     1      36.074  31.727  10.390  0.00  0.00    +0.008 C 
ATOM      7  C   UNL     1      35.733  32.906   9.475  0.00  0.00    +0.058 C 
ENDROOT
TORSDOF 0
ENDMDL
MODEL 3
REMARK VINA RESULT:      -4.0      1.295      2.594
REMARK  Name = ZINC57986567
REMARK  1 active torsions:
REMARK  status: ('A' for Active; 'I' for Inactive)
REMARK    1  A    between atoms: C1_1  and  C2_2
REMARK                            x       y       z     vdW  Elec       q    Type
REMARK                         _______ _______ _______ _____ _____    ______ ____
ROOT
ATOM      1  C   UNL     1      36.147  32.224  11.748  0.00  0.00    +0.064 C 
ATOM      2  C   UNL     1      36.100  33.130  10.545  0.00  0.00    -0.127 C 
ATOM      3  C   UNL     1      36.610  34.315  10.658  0.00  0.00    -0.061 C 
ATOM      4  C   UNL     1      36.627  35.332   9.554  0.00  0.00    +0.051 C 
ATOM      5  C   UNL     1      36.367  34.652   8.208  0.00  0.00    +0.006 C 
ATOM      6  C   UNL     1      35.127  33.759   8.346  0.00  0.00    +0.008 C 
ATOM      7  C   UNL     1      35.471  32.602   9.289  0.00  0.00    +0.058 C 
ENDROOT
TORSDOF 0
ENDMDL
MODEL 4
REMARK VINA RESULT:      -3.9      1.673      3.139
REMARK  Name = ZINC57986567
REMARK  1 active torsions:
REMARK  status: ('A' for Active; 'I' for Inactive)
REMARK    1  A    between atoms: C1_1  and  C2_2
REMARK                            x       y       z     vdW  Elec       q    Type
REMARK                         _______ _______ _______ _____ _____    ______ ____
ROOT
ATOM      1  C   UNL     1      36.972  35.401   8.438  0.00  0.00    +0.064 C 
ATOM      2  C   UNL     1      36.116  34.282   8.973  0.00  0.00    -0.127 C 
ATOM      3  C   UNL     1      35.198  33.797   8.199  0.00  0.00    -0.061 C 
ATOM      4  C   UNL     1      34.263  32.692   8.594  0.00  0.00    +0.051 C 
ATOM      5  C   UNL     1      34.808  31.954   9.820  0.00  0.00    +0.006 C 
ATOM      6  C   UNL     1      35.187  32.993  10.883  0.00  0.00    +0.008 C 
ATOM      7  C   UNL     1      36.385  33.795  10.367  0.00  0.00    +0.058 C 
ENDROOT
TORSDOF 0
ENDMDL
MODEL 5
REMARK VINA RESULT:      -3.6     20.109     20.906
REMARK  Name = ZINC57986567
REMARK  1 active torsions:
REMARK  status: ('A' for Active; 'I' for Inactive)
REMARK    1  A    between atoms: C1_1  and  C2_2
REMARK                            x       y       z     vdW  Elec       q    Type
REMARK                         _______ _______ _______ _____ _____    ______ ____
ROOT
ATOM      1  C   UNL     1      49.868  20.668  19.463  0.00  0.00    +0.064 C 
ATOM      2  C   UNL     1      50.581  20.300  18.187  0.00  0.00    -0.127 C 
ATOM      3  C   UNL     1      51.027  21.260  17.442  0.00  0.00    -0.061 C 
ATOM      4  C   UNL     1      51.745  21.051  16.141  0.00  0.00    +0.051 C 
ATOM      5  C   UNL     1      52.243  19.608  16.041  0.00  0.00    +0.006 C 
ATOM      6  C   UNL     1      51.080  18.668  16.381  0.00  0.00    +0.008 C 
ATOM      7  C   UNL     1      50.737  18.842  17.863  0.00  0.00    +0.058 C 
ENDROOT
TORSDOF 0
ENDMDL
MODEL 6
REMARK VINA RESULT:      -3.6     10.424     11.558
REMARK  Name = ZINC57986567
REMARK  1 active torsions:
REMARK  status: ('A' for Active; 'I' for Inactive)
REMARK    1  A    between atoms: C1_1  and  C2_2
REMARK                            x       y       z     vdW  Elec       q    Type
REMARK                         _______ _______ _______ _____ _____    ______ ____
ROOT
ATOM      1  C   UNL     1      42.339  30.330   1.205  0.00  0.00    +0.064 C 
ATOM      2  C   UNL     1      42.559  31.718   1.750  0.00  0.00    -0.127 C 
ATOM      3  C   UNL     1      43.729  32.004   2.227  0.00  0.00    -0.061 C 
ATOM      4  C   UNL     1      44.094  33.336   2.813  0.00  0.00    +0.051 C 
ATOM      5  C   UNL     1      43.076  34.397   2.387  0.00  0.00    +0.006 C 
ATOM      6  C   UNL     1      41.667  33.853   2.656  0.00  0.00    +0.008 C 
ATOM      7  C   UNL     1      41.411  32.684   1.701  0.00  0.00    +0.058 C 
ENDROOT
TORSDOF 0
ENDMDL
MODEL 7
REMARK VINA RESULT:      -3.6     10.036     11.346
REMARK  Name = ZINC57986567
REMARK  1 active torsions:
REMARK  status: ('A' for Active; 'I' for Inactive)
REMARK    1  A    between atoms: C1_1  and  C2_2
REMARK                            x       y       z     vdW  Elec       q    Type
REMARK                         _______ _______ _______ _____ _____    ______ ____
ROOT
ATOM      1  C   UNL     1      40.200  33.623   2.600  0.00  0.00    +0.064 C 
ATOM      2  C   UNL     1      41.697  33.458   2.531  0.00  0.00    -0.127 C 
ATOM      3  C   UNL     1      42.424  34.528   2.482  0.00  0.00    -0.061 C 
ATOM      4  C   UNL     1      43.922  34.523   2.400  0.00  0.00    +0.051 C 
ATOM      5  C   UNL     1      44.468  33.152   2.806  0.00  0.00    +0.006 C 
ATOM      6  C   UNL     1      43.700  32.074   2.030  0.00  0.00    +0.008 C 
ATOM      7  C   UNL     1      42.252  32.063   2.529  0.00  0.00    +0.058 C 
ENDROOT
TORSDOF 0
ENDMDL
MODEL 8
REMARK VINA RESULT:      -3.6     10.511     11.373
REMARK  Name = ZINC57986567
REMARK  1 active torsions:
REMARK  status: ('A' for Active; 'I' for Inactive)
REMARK    1  A    between atoms: C1_1  and  C2_2
REMARK                            x       y       z     vdW  Elec       q    Type
REMARK                         _______ _______ _______ _____ _____    ______ ____
ROOT
ATOM      1  C   UNL     1      45.190  34.366   2.958  0.00  0.00    +0.064 C 
ATOM      2  C   UNL     1      43.906  33.633   2.665  0.00  0.00    -0.127 C 
ATOM      3  C   UNL     1      42.811  34.322   2.619  0.00  0.00    -0.061 C 
ATOM      4  C   UNL     1      41.457  33.733   2.350  0.00  0.00    +0.051 C 
ATOM      5  C   UNL     1      41.602  32.341   1.732  0.00  0.00    +0.006 C 
ATOM      6  C   UNL     1      42.585  31.530   2.587  0.00  0.00    +0.008 C 
ATOM      7  C   UNL     1      43.977  32.151   2.439  0.00  0.00    +0.058 C 
ENDROOT
TORSDOF 0
ENDMDL
MODEL 9
REMARK VINA RESULT:      -3.5     17.965     18.652
REMARK  Name = ZINC57986567
REMARK  1 active torsions:
REMARK  status: ('A' for Active; 'I' for Inactive)
REMARK    1  A    between atoms: C1_1  and  C2_2
REMARK                            x       y       z     vdW  Elec       q    Type
REMARK                         _______ _______ _______ _____ _____    ______ ____
ROOT
ATOM      1  C   UNL     1      52.333  35.054   7.375  0.00  0.00    +0.064 C 
ATOM      2  C   UNL     1      53.295  34.202   6.588  0.00  0.00    -0.127 C 
ATOM      3  C   UNL     1      52.836  33.129   6.026  0.00  0.00    -0.061 C 
ATOM      4  C   UNL     1      53.672  32.177   5.222  0.00  0.00    +0.051 C 
ATOM      5  C   UNL     1      54.984  32.849   4.809  0.00  0.00    +0.006 C 
ATOM      6  C   UNL     1      55.614  33.490   6.052  0.00  0.00    +0.008 C 
ATOM      7  C   UNL     1      54.724  34.653   6.498  0.00  0.00    +0.058 C 
ENDROOT
TORSDOF 0
ENDMDL
