MODEL 1
REMARK VINA RESULT:      -5.2      0.000      0.000
REMARK  Name = ZINC05783606
REMARK  5 active torsions:
REMARK  status: ('A' for Active; 'I' for Inactive)
REMARK    1  A    between atoms: C1_1  and  N1_2
REMARK    2  A    between atoms: C12_14  and  O4_20
REMARK    3  A    between atoms: C13_15  and  O3_18
REMARK    4  A    between atoms: O3_18  and  C15_19
REMARK    5  A    between atoms: O4_20  and  C16_21
REMARK                            x       y       z     vdW  Elec       q    Type
REMARK                         _______ _______ _______ _____ _____    ______ ____
ROOT
ATOM      1  C   UNL     1      43.869  17.874  22.320  0.00  0.00    +0.291 C 
ATOM      2  N   UNL     1      44.538  17.998  21.023  0.00  0.00    -0.526 N 
ATOM      3  C   UNL     1      44.690  19.252  20.471  0.00  0.00    +0.225 A 
ATOM      4  C   UNL     1      44.211  20.373  21.147  0.00  0.00    -0.073 A 
ATOM      5  C   UNL     1      44.362  21.627  20.597  0.00  0.00    +0.058 A 
ATOM      6  C   UNL     1      44.990  21.792  19.370  0.00  0.00    -0.062 A 
ATOM      7  C   UNL     1      45.470  20.698  18.685  0.00  0.00    +0.104 A 
ATOM      8  C   UNL     1      45.324  19.421  19.230  0.00  0.00    -0.199 A 
ATOM      9  C   UNL     1      45.831  18.234  18.514  0.00  0.00    +0.430 A 
ATOM     10  C   UNL     1      45.642  16.924  19.151  0.00  0.00    -0.355 A 
ATOM     11  C   UNL     1      46.100  15.753  18.527  0.00  0.00    +0.344 A 
ATOM     12  O   UNL     1      46.731  15.821  17.326  0.00  0.00    -0.638 OA
ATOM     13  C   UNL     1      45.910  14.530  19.146  0.00  0.00    -0.116 A 
ATOM     16  C   UNL     1      45.268  14.464  20.382  0.00  0.00    +0.199 A 
ATOM     19  C   UNL     1      44.813  15.616  21.002  0.00  0.00    -0.263 A 
ATOM     20  O   UNL     1      46.387  18.338  17.436  0.00  0.00    -0.466 OA
ATOM     21  C   UNL     1      44.994  16.854  20.398  0.00  0.00    +0.281 A 
ENDROOT
BRANCH  13  14
ATOM     14  O   UNL     1      46.352  13.389  18.547  0.00  0.00    -0.306 OA
ATOM     15  C   UNL     1      45.423  12.690  17.717  0.00  0.00    +0.170 C 
ENDBRANCH  13  14
BRANCH  16  17
ATOM     17  O   UNL     1      45.086  13.259  20.981  0.00  0.00    -0.311 OA
ATOM     18  C   UNL     1      45.109  13.237  22.410  0.00  0.00    +0.215 C 
ENDBRANCH  16  17
TORSDOF 2
ENDMDL
MODEL 2
REMARK VINA RESULT:      -5.2      4.113      4.981
REMARK  Name = ZINC05783606
REMARK  5 active torsions:
REMARK  status: ('A' for Active; 'I' for Inactive)
REMARK    1  A    between atoms: C1_1  and  N1_2
REMARK    2  A    between atoms: C12_14  and  O4_20
REMARK    3  A    between atoms: C13_15  and  O3_18
REMARK    4  A    between atoms: O3_18  and  C15_19
REMARK    5  A    between atoms: O4_20  and  C16_21
REMARK                            x       y       z     vdW  Elec       q    Type
REMARK                         _______ _______ _______ _____ _____    ______ ____
ROOT
ATOM      1  C   UNL     1      47.610  19.028  19.067  0.00  0.00    +0.291 C 
ATOM      2  N   UNL     1      48.736  18.370  18.402  0.00  0.00    -0.526 N 
ATOM      3  C   UNL     1      49.896  19.085  18.197  0.00  0.00    +0.225 A 
ATOM      4  C   UNL     1      49.982  20.410  18.620  0.00  0.00    -0.073 A 
ATOM      5  C   UNL     1      51.142  21.126  18.416  0.00  0.00    +0.058 A 
ATOM      6  C   UNL     1      52.234  20.542  17.790  0.00  0.00    -0.062 A 
ATOM      7  C   UNL     1      52.171  19.234  17.363  0.00  0.00    +0.104 A 
ATOM      8  C   UNL     1      51.002  18.496  17.563  0.00  0.00    -0.199 A 
ATOM      9  C   UNL     1      50.912  17.093  17.114  0.00  0.00    +0.430 A 
ATOM     10  C   UNL     1      49.651  16.381  17.362  0.00  0.00    -0.355 A 
ATOM     11  C   UNL     1      49.495  15.044  16.962  0.00  0.00    +0.344 A 
ATOM     12  O   UNL     1      50.515  14.391  16.347  0.00  0.00    -0.638 OA
ATOM     13  C   UNL     1      48.298  14.394  17.205  0.00  0.00    -0.116 A 
ATOM     16  C   UNL     1      47.255  15.064  17.842  0.00  0.00    +0.199 A 
ATOM     19  C   UNL     1      47.403  16.383  18.238  0.00  0.00    -0.263 A 
ATOM     20  O   UNL     1      51.849  16.547  16.562  0.00  0.00    -0.466 OA
ATOM     21  C   UNL     1      48.596  17.055  18.004  0.00  0.00    +0.281 A 
ENDROOT
BRANCH  13  14
ATOM     14  O   UNL     1      48.139  13.097  16.821  0.00  0.00    -0.306 OA
ATOM     15  C   UNL     1      47.708  12.865  15.479  0.00  0.00    +0.170 C 
ENDBRANCH  13  14
BRANCH  16  17
ATOM     17  O   UNL     1      46.084  14.418  18.077  0.00  0.00    -0.311 OA
ATOM     18  C   UNL     1      45.569  14.470  19.409  0.00  0.00    +0.215 C 
ENDBRANCH  16  17
TORSDOF 2
ENDMDL
MODEL 3
REMARK VINA RESULT:      -5.1      3.584      4.525
REMARK  Name = ZINC05783606
REMARK  5 active torsions:
REMARK  status: ('A' for Active; 'I' for Inactive)
REMARK    1  A    between atoms: C1_1  and  N1_2
REMARK    2  A    between atoms: C12_14  and  O4_20
REMARK    3  A    between atoms: C13_15  and  O3_18
REMARK    4  A    between atoms: O3_18  and  C15_19
REMARK    5  A    between atoms: O4_20  and  C16_21
REMARK                            x       y       z     vdW  Elec       q    Type
REMARK                         _______ _______ _______ _____ _____    ______ ____
ROOT
ATOM      1  C   UNL     1      47.806  20.598  19.732  0.00  0.00    +0.291 C 
ATOM      2  N   UNL     1      48.431  19.486  19.014  0.00  0.00    -0.526 N 
ATOM      3  C   UNL     1      49.682  19.670  18.465  0.00  0.00    +0.225 A 
ATOM      4  C   UNL     1      50.329  20.897  18.600  0.00  0.00    -0.073 A 
ATOM      5  C   UNL     1      51.580  21.081  18.053  0.00  0.00    +0.058 A 
ATOM      6  C   UNL     1      52.210  20.055  17.364  0.00  0.00    -0.062 A 
ATOM      7  C   UNL     1      51.589  18.835  17.217  0.00  0.00    +0.104 A 
ATOM      8  C   UNL     1      50.321  18.633  17.767  0.00  0.00    -0.199 A 
ATOM      9  C   UNL     1      49.637  17.333  17.623  0.00  0.00    +0.430 A 
ATOM     10  C   UNL     1      48.306  17.196  18.230  0.00  0.00    -0.355 A 
ATOM     11  C   UNL     1      47.598  15.988  18.133  0.00  0.00    +0.344 A 
ATOM     12  O   UNL     1      48.141  14.927  17.481  0.00  0.00    -0.638 OA
ATOM     13  C   UNL     1      46.345  15.882  18.712  0.00  0.00    -0.116 A 
ATOM     16  C   UNL     1      45.792  16.970  19.386  0.00  0.00    +0.199 A 
ATOM     19  C   UNL     1      46.486  18.165  19.484  0.00  0.00    -0.263 A 
ATOM     20  O   UNL     1      50.158  16.409  17.026  0.00  0.00    -0.466 OA
ATOM     21  C   UNL     1      47.745  18.292  18.911  0.00  0.00    +0.281 A 
ENDROOT
BRANCH  13  14
ATOM     14  O   UNL     1      45.651  14.714  18.622  0.00  0.00    -0.306 OA
ATOM     15  C   UNL     1      45.846  13.762  19.670  0.00  0.00    +0.170 C 
ENDBRANCH  13  14
BRANCH  16  17
ATOM     17  O   UNL     1      44.563  16.857  19.951  0.00  0.00    -0.311 OA
ATOM     18  C   UNL     1      44.503  16.851  21.379  0.00  0.00    +0.215 C 
ENDBRANCH  16  17
TORSDOF 2
ENDMDL
MODEL 4
REMARK VINA RESULT:      -5.1      2.075      5.631
REMARK  Name = ZINC05783606
REMARK  5 active torsions:
REMARK  status: ('A' for Active; 'I' for Inactive)
REMARK    1  A    between atoms: C1_1  and  N1_2
REMARK    2  A    between atoms: C12_14  and  O4_20
REMARK    3  A    between atoms: C13_15  and  O3_18
REMARK    4  A    between atoms: O3_18  and  C15_19
REMARK    5  A    between atoms: O4_20  and  C16_21
REMARK                            x       y       z     vdW  Elec       q    Type
REMARK                         _______ _______ _______ _____ _____    ______ ____
ROOT
ATOM      1  C   UNL     1      45.142  13.616  20.510  0.00  0.00    +0.291 C 
ATOM      2  N   UNL     1      45.604  14.493  19.433  0.00  0.00    -0.526 N 
ATOM      3  C   UNL     1      46.204  13.929  18.328  0.00  0.00    +0.225 A 
ATOM      4  C   UNL     1      46.362  12.547  18.251  0.00  0.00    -0.073 A 
ATOM      5  C   UNL     1      46.961  11.982  17.146  0.00  0.00    +0.058 A 
ATOM      6  C   UNL     1      47.414  12.775  16.102  0.00  0.00    -0.062 A 
ATOM      7  C   UNL     1      47.269  14.143  16.157  0.00  0.00    +0.104 A 
ATOM      8  C   UNL     1      46.663  14.731  17.270  0.00  0.00    -0.199 A 
ATOM      9  C   UNL     1      46.497  16.194  17.352  0.00  0.00    +0.430 A 
ATOM     10  C   UNL     1      45.848  16.738  18.552  0.00  0.00    -0.355 A 
ATOM     11  C   UNL     1      45.656  18.122  18.696  0.00  0.00    +0.344 A 
ATOM     12  O   UNL     1      46.063  18.973  17.720  0.00  0.00    -0.638 OA
ATOM     13  C   UNL     1      45.044  18.612  19.837  0.00  0.00    -0.116 A 
ATOM     16  C   UNL     1      44.622  17.734  20.835  0.00  0.00    +0.199 A 
ATOM     19  C   UNL     1      44.809  16.369  20.699  0.00  0.00    -0.263 A 
ATOM     20  O   UNL     1      46.881  16.923  16.455  0.00  0.00    -0.466 OA
ATOM     21  C   UNL     1      45.421  15.857  19.562  0.00  0.00    +0.281 A 
ENDROOT
BRANCH  13  14
ATOM     14  O   UNL     1      44.854  19.951  19.984  0.00  0.00    -0.306 OA
ATOM     15  C   UNL     1      43.639  20.496  19.466  0.00  0.00    +0.170 C 
ENDBRANCH  13  14
BRANCH  16  17
ATOM     17  O   UNL     1      44.022  18.224  21.951  0.00  0.00    -0.311 OA
ATOM     18  C   UNL     1      42.623  17.969  22.100  0.00  0.00    +0.215 C 
ENDBRANCH  16  17
TORSDOF 2
ENDMDL
MODEL 5
REMARK VINA RESULT:      -5.1      4.048      5.397
REMARK  Name = ZINC05783606
REMARK  5 active torsions:
REMARK  status: ('A' for Active; 'I' for Inactive)
REMARK    1  A    between atoms: C1_1  and  N1_2
REMARK    2  A    between atoms: C12_14  and  O4_20
REMARK    3  A    between atoms: C13_15  and  O3_18
REMARK    4  A    between atoms: O3_18  and  C15_19
REMARK    5  A    between atoms: O4_20  and  C16_21
REMARK                            x       y       z     vdW  Elec       q    Type
REMARK                         _______ _______ _______ _____ _____    ______ ____
ROOT
ATOM      1  C   UNL     1      51.688  16.455  16.736  0.00  0.00    +0.291 C 
ATOM      2  N   UNL     1      50.604  17.205  17.373  0.00  0.00    -0.526 N 
ATOM      3  C   UNL     1      50.822  18.522  17.719  0.00  0.00    +0.225 A 
ATOM      4  C   UNL     1      52.057  19.115  17.460  0.00  0.00    -0.073 A 
ATOM      5  C   UNL     1      52.275  20.431  17.805  0.00  0.00    +0.058 A 
ATOM      6  C   UNL     1      51.277  21.180  18.410  0.00  0.00    -0.062 A 
ATOM      7  C   UNL     1      50.050  20.614  18.676  0.00  0.00    +0.104 A 
ATOM      8  C   UNL     1      49.813  19.281  18.333  0.00  0.00    -0.199 A 
ATOM      9  C   UNL     1      48.506  18.654  18.608  0.00  0.00    +0.430 A 
ATOM     10  C   UNL     1      48.332  17.249  18.215  0.00  0.00    -0.355 A 
ATOM     11  C   UNL     1      47.115  16.589  18.446  0.00  0.00    +0.344 A 
ATOM     12  O   UNL     1      46.080  17.247  19.029  0.00  0.00    -0.638 OA
ATOM     13  C   UNL     1      46.973  15.264  18.069  0.00  0.00    -0.116 A 
ATOM     16  C   UNL     1      48.035  14.593  17.464  0.00  0.00    +0.199 A 
ATOM     19  C   UNL     1      49.239  15.239  17.235  0.00  0.00    -0.263 A 
ATOM     20  O   UNL     1      47.606  19.279  19.137  0.00  0.00    -0.466 OA
ATOM     21  C   UNL     1      49.401  16.568  17.606  0.00  0.00    +0.281 A 
ENDROOT
BRANCH  13  14
ATOM     14  O   UNL     1      45.796  14.617  18.289  0.00  0.00    -0.306 OA
ATOM     15  C   UNL     1      45.649  13.942  19.539  0.00  0.00    +0.170 C 
ENDBRANCH  13  14
BRANCH  16  17
ATOM     17  O   UNL     1      47.888  13.294  17.098  0.00  0.00    -0.311 OA
ATOM     18  C   UNL     1      47.680  13.031  15.708  0.00  0.00    +0.215 C 
ENDBRANCH  16  17
TORSDOF 2
ENDMDL
MODEL 6
REMARK VINA RESULT:      -5.0      3.890      5.346
REMARK  Name = ZINC05783606
REMARK  5 active torsions:
REMARK  status: ('A' for Active; 'I' for Inactive)
REMARK    1  A    between atoms: C1_1  and  N1_2
REMARK    2  A    between atoms: C12_14  and  O4_20
REMARK    3  A    between atoms: C13_15  and  O3_18
REMARK    4  A    between atoms: O3_18  and  C15_19
REMARK    5  A    between atoms: O4_20  and  C16_21
REMARK                            x       y       z     vdW  Elec       q    Type
REMARK                         _______ _______ _______ _____ _____    ______ ____
ROOT
ATOM      1  C   UNL     1      49.446  16.377  17.275  0.00  0.00    +0.291 C 
ATOM      2  N   UNL     1      49.189  17.644  17.962  0.00  0.00    -0.526 N 
ATOM      3  C   UNL     1      50.103  18.668  17.833  0.00  0.00    +0.225 A 
ATOM      4  C   UNL     1      51.247  18.486  17.057  0.00  0.00    -0.073 A 
ATOM      5  C   UNL     1      52.161  19.509  16.926  0.00  0.00    +0.058 A 
ATOM      6  C   UNL     1      51.957  20.726  17.560  0.00  0.00    -0.062 A 
ATOM      7  C   UNL     1      50.835  20.928  18.331  0.00  0.00    +0.104 A 
ATOM      8  C   UNL     1      49.900  19.900  18.474  0.00  0.00    -0.199 A 
ATOM      9  C   UNL     1      48.689  20.093  19.295  0.00  0.00    +0.430 A 
ATOM     10  C   UNL     1      47.750  18.968  19.395  0.00  0.00    -0.355 A 
ATOM     11  C   UNL     1      46.578  19.081  20.159  0.00  0.00    +0.344 A 
ATOM     12  O   UNL     1      46.295  20.239  20.810  0.00  0.00    -0.638 OA
ATOM     13  C   UNL     1      45.708  18.007  20.240  0.00  0.00    -0.116 A 
ATOM     16  C   UNL     1      45.998  16.821  19.566  0.00  0.00    +0.199 A 
ATOM     19  C   UNL     1      47.153  16.703  18.812  0.00  0.00    -0.263 A 
ATOM     20  O   UNL     1      48.476  21.147  19.866  0.00  0.00    -0.466 OA
ATOM     21  C   UNL     1      48.039  17.769  18.718  0.00  0.00    +0.281 A 
ENDROOT
BRANCH  13  14
ATOM     14  O   UNL     1      44.569  18.109  20.979  0.00  0.00    -0.306 OA
ATOM     15  C   UNL     1      43.416  18.641  20.324  0.00  0.00    +0.170 C 
ENDBRANCH  13  14
BRANCH  16  17
ATOM     17  O   UNL     1      45.139  15.773  19.651  0.00  0.00    -0.311 OA
ATOM     18  C   UNL     1      45.586  14.625  20.377  0.00  0.00    +0.215 C 
ENDBRANCH  16  17
TORSDOF 2
ENDMDL
MODEL 7
REMARK VINA RESULT:      -5.0      3.994      6.350
REMARK  Name = ZINC05783606
REMARK  5 active torsions:
REMARK  status: ('A' for Active; 'I' for Inactive)
REMARK    1  A    between atoms: C1_1  and  N1_2
REMARK    2  A    between atoms: C12_14  and  O4_20
REMARK    3  A    between atoms: C13_15  and  O3_18
REMARK    4  A    between atoms: O3_18  and  C15_19
REMARK    5  A    between atoms: O4_20  and  C16_21
REMARK                            x       y       z     vdW  Elec       q    Type
REMARK                         _______ _______ _______ _____ _____    ______ ____
ROOT
ATOM      1  C   UNL     1      46.551  17.051  17.053  0.00  0.00    +0.291 C 
ATOM      2  N   UNL     1      47.276  18.039  17.854  0.00  0.00    -0.526 N 
ATOM      3  C   UNL     1      48.648  17.945  17.943  0.00  0.00    +0.225 A 
ATOM      4  C   UNL     1      49.321  16.923  17.275  0.00  0.00    -0.073 A 
ATOM      5  C   UNL     1      50.692  16.828  17.362  0.00  0.00    +0.058 A 
ATOM      6  C   UNL     1      51.420  17.742  18.110  0.00  0.00    -0.062 A 
ATOM      7  C   UNL     1      50.776  18.760  18.778  0.00  0.00    +0.104 A 
ATOM      8  C   UNL     1      49.386  18.869  18.700  0.00  0.00    -0.199 A 
ATOM      9  C   UNL     1      48.675  19.951  19.407  0.00  0.00    +0.430 A 
ATOM     10  C   UNL     1      47.213  20.002  19.275  0.00  0.00    -0.355 A 
ATOM     11  C   UNL     1      46.472  21.005  19.920  0.00  0.00    +0.344 A 
ATOM     12  O   UNL     1      47.102  21.945  20.670  0.00  0.00    -0.638 OA
ATOM     13  C   UNL     1      45.094  21.032  19.783  0.00  0.00    -0.116 A 
ATOM     16  C   UNL     1      44.450  20.069  19.008  0.00  0.00    +0.199 A 
ATOM     19  C   UNL     1      45.176  19.077  18.369  0.00  0.00    -0.263 A 
ATOM     20  O   UNL     1      49.278  20.772  20.073  0.00  0.00    -0.466 OA
ATOM     21  C   UNL     1      46.559  19.031  18.495  0.00  0.00    +0.281 A 
ENDROOT
BRANCH  13  14
ATOM     14  O   UNL     1      44.368  22.001  20.405  0.00  0.00    -0.306 OA
ATOM     15  C   UNL     1      44.131  23.205  19.673  0.00  0.00    +0.170 C 
ENDBRANCH  13  14
BRANCH  16  17
ATOM     17  O   UNL     1      43.099  20.104  18.878  0.00  0.00    -0.311 OA
ATOM     18  C   UNL     1      42.339  19.312  19.794  0.00  0.00    +0.215 C 
ENDBRANCH  16  17
TORSDOF 2
ENDMDL
MODEL 8
REMARK VINA RESULT:      -4.9      3.988      5.993
REMARK  Name = ZINC05783606
REMARK  5 active torsions:
REMARK  status: ('A' for Active; 'I' for Inactive)
REMARK    1  A    between atoms: C1_1  and  N1_2
REMARK    2  A    between atoms: C12_14  and  O4_20
REMARK    3  A    between atoms: C13_15  and  O3_18
REMARK    4  A    between atoms: O3_18  and  C15_19
REMARK    5  A    between atoms: O4_20  and  C16_21
REMARK                            x       y       z     vdW  Elec       q    Type
REMARK                         _______ _______ _______ _____ _____    ______ ____
ROOT
ATOM      1  C   UNL     1      47.385  21.491  20.884  0.00  0.00    +0.291 C 
ATOM      2  N   UNL     1      47.453  20.242  20.123  0.00  0.00    -0.526 N 
ATOM      3  C   UNL     1      46.368  19.393  20.143  0.00  0.00    +0.225 A 
ATOM      4  C   UNL     1      45.232  19.730  20.877  0.00  0.00    -0.073 A 
ATOM      5  C   UNL     1      44.146  18.882  20.897  0.00  0.00    +0.058 A 
ATOM      6  C   UNL     1      44.167  17.688  20.191  0.00  0.00    -0.062 A 
ATOM      7  C   UNL     1      45.279  17.334  19.459  0.00  0.00    +0.104 A 
ATOM      8  C   UNL     1      46.387  18.183  19.429  0.00  0.00    -0.199 A 
ATOM      9  C   UNL     1      47.589  17.826  18.652  0.00  0.00    +0.430 A 
ATOM     10  C   UNL     1      48.714  18.770  18.667  0.00  0.00    -0.355 A 
ATOM     11  C   UNL     1      49.889  18.495  17.950  0.00  0.00    +0.344 A 
ATOM     12  O   UNL     1      49.994  17.351  17.225  0.00  0.00    -0.638 OA
ATOM     13  C   UNL     1      50.936  19.399  17.980  0.00  0.00    -0.116 A 
ATOM     16  C   UNL     1      50.822  20.576  18.719  0.00  0.00    +0.199 A 
ATOM     19  C   UNL     1      49.666  20.853  19.430  0.00  0.00    -0.263 A 
ATOM     20  O   UNL     1      47.645  16.787  18.020  0.00  0.00    -0.466 OA
ATOM     21  C   UNL     1      48.603  19.958  19.413  0.00  0.00    +0.281 A 
ENDROOT
BRANCH  13  14
ATOM     14  O   UNL     1      52.078  19.140  17.286  0.00  0.00    -0.306 OA
ATOM     15  C   UNL     1      52.149  19.628  15.946  0.00  0.00    +0.170 C 
ENDBRANCH  13  14
BRANCH  16  17
ATOM     17  O   UNL     1      51.855  21.457  18.743  0.00  0.00    -0.311 OA
ATOM     18  C   UNL     1      52.589  21.564  19.965  0.00  0.00    +0.215 C 
ENDBRANCH  16  17
TORSDOF 2
ENDMDL
MODEL 9
REMARK VINA RESULT:      -4.8      1.804      2.812
REMARK  Name = ZINC05783606
REMARK  5 active torsions:
REMARK  status: ('A' for Active; 'I' for Inactive)
REMARK    1  A    between atoms: C1_1  and  N1_2
REMARK    2  A    between atoms: C12_14  and  O4_20
REMARK    3  A    between atoms: C13_15  and  O3_18
REMARK    4  A    between atoms: O3_18  and  C15_19
REMARK    5  A    between atoms: O4_20  and  C16_21
REMARK                            x       y       z     vdW  Elec       q    Type
REMARK                         _______ _______ _______ _____ _____    ______ ____
ROOT
ATOM      1  C   UNL     1      44.736  14.519  22.113  0.00  0.00    +0.291 C 
ATOM      2  N   UNL     1      44.915  15.510  21.051  0.00  0.00    -0.526 N 
ATOM      3  C   UNL     1      44.343  16.756  21.202  0.00  0.00    +0.225 A 
ATOM      4  C   UNL     1      43.612  17.052  22.350  0.00  0.00    -0.073 A 
ATOM      5  C   UNL     1      43.042  18.297  22.502  0.00  0.00    +0.058 A 
ATOM      6  C   UNL     1      43.186  19.267  21.521  0.00  0.00    -0.062 A 
ATOM      7  C   UNL     1      43.903  18.996  20.377  0.00  0.00    +0.104 A 
ATOM      8  C   UNL     1      44.487  17.739  20.209  0.00  0.00    -0.199 A 
ATOM      9  C   UNL     1      45.261  17.425  18.992  0.00  0.00    +0.430 A 
ATOM     10  C   UNL     1      45.848  16.082  18.888  0.00  0.00    -0.355 A 
ATOM     11  C   UNL     1      46.597  15.715  17.759  0.00  0.00    +0.344 A 
ATOM     12  O   UNL     1      46.794  16.604  16.751  0.00  0.00    -0.638 OA
ATOM     13  C   UNL     1      47.139  14.444  17.681  0.00  0.00    -0.116 A 
ATOM     16  C   UNL     1      46.941  13.536  18.721  0.00  0.00    +0.199 A 
ATOM     19  C   UNL     1      46.202  13.892  19.837  0.00  0.00    -0.263 A 
ATOM     20  O   UNL     1      45.410  18.250  18.109  0.00  0.00    -0.466 OA
ATOM     21  C   UNL     1      45.649  15.162  19.934  0.00  0.00    +0.281 A 
ENDROOT
BRANCH  13  14
ATOM     14  O   UNL     1      47.867  14.080  16.590  0.00  0.00    -0.306 OA
ATOM     15  C   UNL     1      49.277  14.300  16.647  0.00  0.00    +0.170 C 
ENDBRANCH  13  14
BRANCH  16  17
ATOM     17  O   UNL     1      47.476  12.290  18.636  0.00  0.00    -0.311 OA
ATOM     18  C   UNL     1      48.582  12.001  19.495  0.00  0.00    +0.215 C 
ENDBRANCH  16  17
TORSDOF 2
ENDMDL
