MODEL 1
REMARK VINA RESULT:      -5.8      0.000      0.000
REMARK  Name = ZINC14517364
REMARK  3 active torsions:
REMARK  status: ('A' for Active; 'I' for Inactive)
REMARK    1  A    between atoms: C1_1  and  C2_2
REMARK    2  A    between atoms: C2_2  and  C3_4
REMARK    3  A    between atoms: C4_5  and  C5_6
REMARK                            x       y       z     vdW  Elec       q    Type
REMARK                         _______ _______ _______ _____ _____    ______ ____
ROOT
ATOM      5  C   UNL     1      36.201  33.104  11.955  0.00  0.00    -0.072 A 
ATOM      6  C   UNL     1      35.199  32.431  11.233  0.00  0.00    +0.010 A 
ATOM      7  C   UNL     1      34.942  32.765   9.940  0.00  0.00    +0.052 A 
ATOM      8  C   UNL     1      35.675  33.784   9.320  0.00  0.00    -0.092 A 
ATOM      9  C   UNL     1      35.652  34.379   7.986  0.00  0.00    -0.060 A 
ATOM     10  C   UNL     1      36.601  35.332   7.962  0.00  0.00    +0.235 A 
ATOM     11  N   UNL     1      37.224  35.401   9.175  0.00  0.00    -0.594 N 
ATOM     12  H   UNL     1      37.940  36.015   9.401  0.00  0.00    +0.418 HD
ATOM     13  C   UNL     1      36.683  34.467  10.033  0.00  0.00    +0.084 A 
ATOM     14  C   UNL     1      36.941  34.122  11.349  0.00  0.00    +0.035 A 
ENDROOT
BRANCH   5   4
ATOM      3  C   UNL     1      37.729  32.405  13.734  0.00  0.00    -0.122 C 
ATOM      4  C   UNL     1      36.470  32.734  13.350  0.00  0.00    +0.142 C 
BRANCH   3   2
ATOM      1  C   UNL     1      36.944  32.299  16.131  0.00  0.00    +0.060 C 
ATOM      2  C   UNL     1      37.986  32.050  15.071  0.00  0.00    +0.380 C 
ATOM     15  O   UNL     1      39.049  31.543  15.371  0.00  0.00    -0.475 OA
ENDBRANCH   3   2
ENDBRANCH   5   4
TORSDOF 2
ENDMDL
MODEL 2
REMARK VINA RESULT:      -5.7      1.732      2.373
REMARK  Name = ZINC14517364
REMARK  3 active torsions:
REMARK  status: ('A' for Active; 'I' for Inactive)
REMARK    1  A    between atoms: C1_1  and  C2_2
REMARK    2  A    between atoms: C2_2  and  C3_4
REMARK    3  A    between atoms: C4_5  and  C5_6
REMARK                            x       y       z     vdW  Elec       q    Type
REMARK                         _______ _______ _______ _____ _____    ______ ____
ROOT
ATOM      5  C   UNL     1      36.843  33.020  11.913  0.00  0.00    -0.072 A 
ATOM      6  C   UNL     1      36.900  34.273  11.278  0.00  0.00    +0.010 A 
ATOM      7  C   UNL     1      36.240  34.481  10.108  0.00  0.00    +0.052 A 
ATOM      8  C   UNL     1      35.500  33.444   9.526  0.00  0.00    -0.092 A 
ATOM      9  C   UNL     1      34.700  33.331   8.308  0.00  0.00    -0.060 A 
ATOM     10  C   UNL     1      34.215  32.077   8.270  0.00  0.00    +0.235 A 
ATOM     11  N   UNL     1      34.645  31.376   9.360  0.00  0.00    -0.594 N 
ATOM     12  H   UNL     1      34.429  30.450   9.550  0.00  0.00    +0.418 HD
ATOM     13  C   UNL     1      35.435  32.182  10.153  0.00  0.00    +0.084 A 
ATOM     14  C   UNL     1      36.109  31.976  11.345  0.00  0.00    +0.035 A 
ENDROOT
BRANCH   5   4
ATOM      3  C   UNL     1      36.890  32.361  14.269  0.00  0.00    -0.122 C 
ATOM      4  C   UNL     1      37.558  32.808  13.177  0.00  0.00    +0.142 C 
BRANCH   3   2
ATOM      1  C   UNL     1      38.995  31.651  15.467  0.00  0.00    +0.060 C 
ATOM      2  C   UNL     1      37.576  32.158  15.480  0.00  0.00    +0.380 C 
ATOM     15  O   UNL     1      37.024  32.392  16.537  0.00  0.00    -0.475 OA
ENDBRANCH   3   2
ENDBRANCH   5   4
TORSDOF 2
ENDMDL
MODEL 3
REMARK VINA RESULT:      -4.9     16.627     18.942
REMARK  Name = ZINC14517364
REMARK  3 active torsions:
REMARK  status: ('A' for Active; 'I' for Inactive)
REMARK    1  A    between atoms: C1_1  and  C2_2
REMARK    2  A    between atoms: C2_2  and  C3_4
REMARK    3  A    between atoms: C4_5  and  C5_6
REMARK                            x       y       z     vdW  Elec       q    Type
REMARK                         _______ _______ _______ _____ _____    ______ ____
ROOT
ATOM      5  C   UNL     1      48.356  20.711  19.457  0.00  0.00    -0.072 A 
ATOM      6  C   UNL     1      48.365  21.166  20.788  0.00  0.00    +0.010 A 
ATOM      7  C   UNL     1      47.220  21.613  21.369  0.00  0.00    +0.052 A 
ATOM      8  C   UNL     1      46.022  21.622  20.642  0.00  0.00    -0.092 A 
ATOM      9  C   UNL     1      44.654  22.030  20.953  0.00  0.00    -0.060 A 
ATOM     10  C   UNL     1      43.916  21.805  19.851  0.00  0.00    +0.235 A 
ATOM     11  N   UNL     1      44.702  21.294  18.859  0.00  0.00    -0.594 N 
ATOM     12  H   UNL     1      44.395  21.056  17.970  0.00  0.00    +0.418 HD
ATOM     13  C   UNL     1      46.000  21.168  19.307  0.00  0.00    +0.084 A 
ATOM     14  C   UNL     1      47.169  20.715  18.721  0.00  0.00    +0.035 A 
ENDROOT
BRANCH   5   4
ATOM      3  C   UNL     1      50.466  21.113  18.286  0.00  0.00    -0.122 C 
ATOM      4  C   UNL     1      49.598  20.230  18.841  0.00  0.00    +0.142 C 
BRANCH   3   2
ATOM      1  C   UNL     1      51.866  20.793  16.210  0.00  0.00    +0.060 C 
ATOM      2  C   UNL     1      51.657  20.651  17.696  0.00  0.00    +0.380 C 
ATOM     15  O   UNL     1      52.517  20.139  18.384  0.00  0.00    -0.475 OA
ENDBRANCH   3   2
ENDBRANCH   5   4
TORSDOF 2
ENDMDL
MODEL 4
REMARK VINA RESULT:      -4.9     15.820     18.001
REMARK  Name = ZINC14517364
REMARK  3 active torsions:
REMARK  status: ('A' for Active; 'I' for Inactive)
REMARK    1  A    between atoms: C1_1  and  C2_2
REMARK    2  A    between atoms: C2_2  and  C3_4
REMARK    3  A    between atoms: C4_5  and  C5_6
REMARK                            x       y       z     vdW  Elec       q    Type
REMARK                         _______ _______ _______ _____ _____    ______ ____
ROOT
ATOM      5  C   UNL     1      46.662  20.715  19.347  0.00  0.00    -0.072 A 
ATOM      6  C   UNL     1      46.315  19.494  18.741  0.00  0.00    +0.010 A 
ATOM      7  C   UNL     1      45.015  19.213  18.457  0.00  0.00    +0.052 A 
ATOM      8  C   UNL     1      44.013  20.140  18.768  0.00  0.00    -0.092 A 
ATOM      9  C   UNL     1      42.561  20.152  18.608  0.00  0.00    -0.060 A 
ATOM     10  C   UNL     1      42.120  21.326  19.094  0.00  0.00    +0.235 A 
ATOM     11  N   UNL     1      43.171  22.063  19.559  0.00  0.00    -0.594 N 
ATOM     12  H   UNL     1      43.101  22.944  19.959  0.00  0.00    +0.418 HD
ATOM     13  C   UNL     1      44.347  21.368  19.376  0.00  0.00    +0.084 A 
ATOM     14  C   UNL     1      45.673  21.649  19.663  0.00  0.00    +0.035 A 
ENDROOT
BRANCH   5   4
ATOM      3  C   UNL     1      49.047  20.544  18.832  0.00  0.00    -0.122 C 
ATOM      4  C   UNL     1      48.068  21.008  19.647  0.00  0.00    +0.142 C 
BRANCH   3   2
ATOM      1  C   UNL     1      51.371  21.074  17.999  0.00  0.00    +0.060 C 
ATOM      2  C   UNL     1      50.396  20.825  19.120  0.00  0.00    +0.380 C 
ATOM     15  O   UNL     1      50.773  20.868  20.275  0.00  0.00    -0.475 OA
ENDBRANCH   3   2
ENDBRANCH   5   4
TORSDOF 2
ENDMDL
MODEL 5
REMARK VINA RESULT:      -4.7     19.344     20.239
REMARK  Name = ZINC14517364
REMARK  3 active torsions:
REMARK  status: ('A' for Active; 'I' for Inactive)
REMARK    1  A    between atoms: C1_1  and  C2_2
REMARK    2  A    between atoms: C2_2  and  C3_4
REMARK    3  A    between atoms: C4_5  and  C5_6
REMARK                            x       y       z     vdW  Elec       q    Type
REMARK                         _______ _______ _______ _____ _____    ______ ____
ROOT
ATOM      5  C   UNL     1      55.666  33.107   5.274  0.00  0.00    -0.072 A 
ATOM      6  C   UNL     1      54.584  32.341   4.805  0.00  0.00    +0.010 A 
ATOM      7  C   UNL     1      53.316  32.620   5.211  0.00  0.00    +0.052 A 
ATOM      8  C   UNL     1      53.082  33.675   6.102  0.00  0.00    -0.092 A 
ATOM      9  C   UNL     1      51.880  34.224   6.725  0.00  0.00    -0.060 A 
ATOM     10  C   UNL     1      52.272  35.252   7.499  0.00  0.00    +0.235 A 
ATOM     11  N   UNL     1      53.628  35.401   7.427  0.00  0.00    -0.594 N 
ATOM     12  H   UNL     1      54.141  36.072   7.901  0.00  0.00    +0.418 HD
ATOM     13  C   UNL     1      54.158  34.451   6.580  0.00  0.00    +0.084 A 
ATOM     14  C   UNL     1      55.447  34.162   6.163  0.00  0.00    +0.035 A 
ENDROOT
BRANCH   5   4
ATOM      3  C   UNL     1      57.226  31.949   3.787  0.00  0.00    -0.122 C 
ATOM      4  C   UNL     1      57.029  32.797   4.828  0.00  0.00    +0.142 C 
BRANCH   3   2
ATOM      1  C   UNL     1      59.280  30.494   3.968  0.00  0.00    +0.060 C 
ATOM      2  C   UNL     1      58.533  31.652   3.360  0.00  0.00    +0.380 C 
ATOM     15  O   UNL     1      59.059  32.330   2.499  0.00  0.00    -0.475 OA
ENDBRANCH   3   2
ENDBRANCH   5   4
TORSDOF 2
ENDMDL
MODEL 6
REMARK VINA RESULT:      -4.6     19.296     20.203
REMARK  Name = ZINC14517364
REMARK  3 active torsions:
REMARK  status: ('A' for Active; 'I' for Inactive)
REMARK    1  A    between atoms: C1_1  and  C2_2
REMARK    2  A    between atoms: C2_2  and  C3_4
REMARK    3  A    between atoms: C4_5  and  C5_6
REMARK                            x       y       z     vdW  Elec       q    Type
REMARK                         _______ _______ _______ _____ _____    ______ ____
ROOT
ATOM      5  C   UNL     1      55.370  33.211   5.224  0.00  0.00    -0.072 A 
ATOM      6  C   UNL     1      56.699  33.384   5.650  0.00  0.00    +0.010 A 
ATOM      7  C   UNL     1      57.720  32.782   4.981  0.00  0.00    +0.052 A 
ATOM      8  C   UNL     1      57.450  31.983   3.863  0.00  0.00    -0.092 A 
ATOM      9  C   UNL     1      58.286  31.211   2.947  0.00  0.00    -0.060 A 
ATOM     10  C   UNL     1      57.463  30.640   2.048  0.00  0.00    +0.235 A 
ATOM     11  N   UNL     1      56.168  30.979   2.320  0.00  0.00    -0.594 N 
ATOM     12  H   UNL     1      55.396  30.685   1.812  0.00  0.00    +0.418 HD
ATOM     13  C   UNL     1      56.122  31.801   3.425  0.00  0.00    +0.084 A 
ATOM     14  C   UNL     1      55.087  32.417   4.110  0.00  0.00    +0.035 A 
ENDROOT
BRANCH   5   4
ATOM      3  C   UNL     1      53.039  33.316   5.957  0.00  0.00    -0.122 C 
ATOM      4  C   UNL     1      54.278  33.866   5.952  0.00  0.00    +0.142 C 
BRANCH   3   2
ATOM      1  C   UNL     1      52.243  35.241   7.381  0.00  0.00    +0.060 C 
ATOM      2  C   UNL     1      51.992  33.945   6.656  0.00  0.00    +0.380 C 
ATOM     15  O   UNL     1      50.886  33.442   6.674  0.00  0.00    -0.475 OA
ENDBRANCH   3   2
ENDBRANCH   5   4
TORSDOF 2
ENDMDL
MODEL 7
REMARK VINA RESULT:      -4.5     19.413     20.285
REMARK  Name = ZINC14517364
REMARK  3 active torsions:
REMARK  status: ('A' for Active; 'I' for Inactive)
REMARK    1  A    between atoms: C1_1  and  C2_2
REMARK    2  A    between atoms: C2_2  and  C3_4
REMARK    3  A    between atoms: C4_5  and  C5_6
REMARK                            x       y       z     vdW  Elec       q    Type
REMARK                         _______ _______ _______ _____ _____    ______ ____
ROOT
ATOM      5  C   UNL     1      55.169  33.073   5.052  0.00  0.00    -0.072 A 
ATOM      6  C   UNL     1      54.790  32.261   3.968  0.00  0.00    +0.010 A 
ATOM      7  C   UNL     1      55.732  31.607   3.238  0.00  0.00    +0.052 A 
ATOM      8  C   UNL     1      57.088  31.740   3.562  0.00  0.00    -0.092 A 
ATOM      9  C   UNL     1      58.321  31.196   2.998  0.00  0.00    -0.060 A 
ATOM     10  C   UNL     1      59.338  31.675   3.737  0.00  0.00    +0.235 A 
ATOM     11  N   UNL     1      58.857  32.488   4.723  0.00  0.00    -0.594 N 
ATOM     12  H   UNL     1      59.399  32.952   5.378  0.00  0.00    +0.418 HD
ATOM     13  C   UNL     1      57.481  32.551   4.647  0.00  0.00    +0.084 A 
ATOM     14  C   UNL     1      56.517  33.215   5.387  0.00  0.00    +0.035 A 
ENDROOT
BRANCH   5   4
ATOM      3  C   UNL     1      52.896  33.252   5.938  0.00  0.00    -0.122 C 
ATOM      4  C   UNL     1      54.143  33.774   5.834  0.00  0.00    +0.142 C 
BRANCH   3   2
ATOM      1  C   UNL     1      52.244  35.225   7.372  0.00  0.00    +0.060 C 
ATOM      2  C   UNL     1      51.912  33.924   6.688  0.00  0.00    +0.380 C 
ATOM     15  O   UNL     1      50.795  33.455   6.782  0.00  0.00    -0.475 OA
ENDBRANCH   3   2
ENDBRANCH   5   4
TORSDOF 2
ENDMDL
MODEL 8
REMARK VINA RESULT:      -4.3     17.195     19.876
REMARK  Name = ZINC14517364
REMARK  3 active torsions:
REMARK  status: ('A' for Active; 'I' for Inactive)
REMARK    1  A    between atoms: C1_1  and  C2_2
REMARK    2  A    between atoms: C2_2  and  C3_4
REMARK    3  A    between atoms: C4_5  and  C5_6
REMARK                            x       y       z     vdW  Elec       q    Type
REMARK                         _______ _______ _______ _____ _____    ______ ____
ROOT
ATOM      5  C   UNL     1      48.626  20.192  18.937  0.00  0.00    -0.072 A 
ATOM      6  C   UNL     1      49.734  21.024  18.695  0.00  0.00    +0.010 A 
ATOM      7  C   UNL     1      50.855  20.523  18.112  0.00  0.00    +0.052 A 
ATOM      8  C   UNL     1      50.912  19.171  17.748  0.00  0.00    -0.092 A 
ATOM      9  C   UNL     1      51.934  18.333  17.125  0.00  0.00    -0.060 A 
ATOM     10  C   UNL     1      51.418  17.096  17.017  0.00  0.00    +0.235 A 
ATOM     11  N   UNL     1      50.151  17.072  17.527  0.00  0.00    -0.594 N 
ATOM     12  H   UNL     1      49.579  16.291  17.564  0.00  0.00    +0.418 HD
ATOM     13  C   UNL     1      49.807  18.327  17.984  0.00  0.00    +0.084 A 
ATOM     14  C   UNL     1      48.668  18.843  18.579  0.00  0.00    +0.035 A 
ENDROOT
BRANCH   5   4
ATOM      3  C   UNL     1      46.307  20.964  18.825  0.00  0.00    -0.122 C 
ATOM      4  C   UNL     1      47.421  20.745  19.567  0.00  0.00    +0.142 C 
BRANCH   3   2
ATOM      1  C   UNL     1      45.264  22.666  20.371  0.00  0.00    +0.060 C 
ATOM      2  C   UNL     1      45.152  21.495  19.429  0.00  0.00    +0.380 C 
ATOM     15  O   UNL     1      44.065  21.008  19.191  0.00  0.00    -0.475 OA
ENDBRANCH   3   2
ENDBRANCH   5   4
TORSDOF 2
ENDMDL
MODEL 9
REMARK VINA RESULT:      -4.2     19.144     20.073
REMARK  Name = ZINC14517364
REMARK  3 active torsions:
REMARK  status: ('A' for Active; 'I' for Inactive)
REMARK    1  A    between atoms: C1_1  and  C2_2
REMARK    2  A    between atoms: C2_2  and  C3_4
REMARK    3  A    between atoms: C4_5  and  C5_6
REMARK                            x       y       z     vdW  Elec       q    Type
REMARK                         _______ _______ _______ _____ _____    ______ ____
ROOT
ATOM      5  C   UNL     1      55.414  32.960   5.071  0.00  0.00    -0.072 A 
ATOM      6  C   UNL     1      55.002  33.329   6.363  0.00  0.00    +0.010 A 
ATOM      7  C   UNL     1      53.681  33.496   6.642  0.00  0.00    +0.052 A 
ATOM      8  C   UNL     1      52.723  33.302   5.639  0.00  0.00    -0.092 A 
ATOM      9  C   UNL     1      51.266  33.401   5.599  0.00  0.00    -0.060 A 
ATOM     10  C   UNL     1      50.883  33.094   4.347  0.00  0.00    +0.235 A 
ATOM     11  N   UNL     1      51.978  32.814   3.580  0.00  0.00    -0.594 N 
ATOM     12  H   UNL     1      51.955  32.570   2.642  0.00  0.00    +0.418 HD
ATOM     13  C   UNL     1      53.123  32.931   4.338  0.00  0.00    +0.084 A 
ATOM     14  C   UNL     1      54.470  32.763   4.061  0.00  0.00    +0.035 A 
ENDROOT
BRANCH   5   4
ATOM      3  C   UNL     1      57.232  32.003   3.743  0.00  0.00    -0.122 C 
ATOM      4  C   UNL     1      56.842  32.782   4.782  0.00  0.00    +0.142 C 
BRANCH   3   2
ATOM      1  C   UNL     1      59.315  30.590   3.934  0.00  0.00    +0.060 C 
ATOM      2  C   UNL     1      58.602  31.833   3.467  0.00  0.00    +0.380 C 
ATOM     15  O   UNL     1      59.208  32.687   2.852  0.00  0.00    -0.475 OA
ENDBRANCH   3   2
ENDBRANCH   5   4
TORSDOF 2
ENDMDL
