MODEL 1
REMARK VINA RESULT:      -6.7      0.000      0.000
REMARK  Name = ZINC95485967
REMARK  13 active torsions:
REMARK  status: ('A' for Active; 'I' for Inactive)
REMARK    1  A    between atoms: C1_1  and  C2_2
REMARK    2  A    between atoms: C4_4  and  O4_32
REMARK    3  A    between atoms: C7_7  and  C8_8
REMARK    4  A    between atoms: C8_8  and  C9_9
REMARK    5  A    between atoms: C9_9  and  C10_10
REMARK    6  A    between atoms: C11_11  and  C12_12
REMARK    7  A    between atoms: C11_11  and  C13_13
REMARK    8  A    between atoms: C17_17  and  O1_18
REMARK    9  A    between atoms: C21_23  and  C22_25
REMARK   10  A    between atoms: C22_25  and  C23_26
REMARK   11  A    between atoms: C23_26  and  C24_27
REMARK   12  A    between atoms: C25_28  and  C26_29
REMARK   13  A    between atoms: C25_28  and  C27_30
REMARK                            x       y       z     vdW  Elec       q    Type
REMARK                         _______ _______ _______ _____ _____    ______ ____
ROOT
ATOM      1  C   UNL     1      49.870  16.429  17.771  0.00  0.00    +0.099 C 
ATOM      2  C   UNL     1      49.430  17.608  18.598  0.00  0.00    -0.040 A 
ATOM      3  C   UNL     1      50.256  18.078  19.613  0.00  0.00    -0.013 A 
ATOM      4  C   UNL     1      49.879  19.158  20.384  0.00  0.00    +0.143 A 
ATOM      7  C   UNL     1      48.643  19.788  20.135  0.00  0.00    -0.124 A 
ATOM      8  C   UNL     1      47.808  19.299  19.102  0.00  0.00    +0.017 A 
ATOM      9  C   UNL     1      46.569  19.919  18.855  0.00  0.00    +0.017 A 
ATOM     10  C   UNL     1      46.163  20.986  19.597  0.00  0.00    -0.013 A 
ATOM     11  C   UNL     1      44.810  21.582  19.298  0.00  0.00    +0.018 C 
ATOM     18  C   UNL     1      44.695  22.954  19.914  0.00  0.00    +0.376 C 
ATOM     19  O   UNL     1      44.255  23.886  19.285  0.00  0.00    -0.430 OA
ATOM     20  C   UNL     1      45.149  23.123  21.351  0.00  0.00    +0.045 C 
ATOM     21  C   UNL     1      46.592  22.668  21.405  0.00  0.00    +0.409 C 
ATOM     22  O   UNL     1      47.403  23.261  22.085  0.00  0.00    -0.430 OA
ATOM     23  C   UNL     1      46.989  21.495  20.617  0.00  0.00    -0.213 A 
ATOM     24  C   UNL     1      48.225  20.894  20.894  0.00  0.00    +0.218 A 
ATOM     27  C   UNL     1      48.231  18.203  18.335  0.00  0.00    -0.092 A 
ENDROOT
BRANCH   4   5
ATOM      5  O   UNL     1      50.690  19.608  21.374  0.00  0.00    -0.478 OA
ATOM      6  H   UNL     1      51.028  20.503  21.228  0.00  0.00    +0.390 HD
ENDBRANCH   4   5
BRANCH  24  25
ATOM     25  O   UNL     1      49.010  21.377  21.885  0.00  0.00    -0.463 OA
ATOM     26  H   UNL     1      49.788  21.859  21.571  0.00  0.00    +0.399 HD
ENDBRANCH  24  25
BRANCH  11  12
ATOM     12  C   UNL     1      43.719  20.675  19.871  0.00  0.00    +0.062 C 
BRANCH  12  13
ATOM     13  C   UNL     1      42.746  20.284  18.758  0.00  0.00    +0.048 C 
BRANCH  13  14
ATOM     14  C   UNL     1      41.525  21.165  18.826  0.00  0.00    -0.060 C 
ATOM     15  C   UNL     1      40.375  20.728  18.374  0.00  0.00    -0.127 C 
ATOM     16  C   UNL     1      39.126  21.546  18.577  0.00  0.00    +0.073 C 
ATOM     17  C   UNL     1      40.302  19.407  17.653  0.00  0.00    +0.073 C 
ENDBRANCH  13  14
ENDBRANCH  12  13
ENDBRANCH  11  12
BRANCH  27  28
ATOM     28  C   UNL     1      47.359  17.677  17.224  0.00  0.00    +0.079 C 
BRANCH  28  29
ATOM     29  C   UNL     1      45.998  17.270  17.793  0.00  0.00    +0.058 C 
BRANCH  29  30
ATOM     30  C   UNL     1      46.151  16.014  18.611  0.00  0.00    -0.060 C 
ATOM     31  C   UNL     1      45.512  15.892  19.748  0.00  0.00    -0.128 C 
ATOM     32  C   UNL     1      45.550  14.585  20.497  0.00  0.00    +0.072 C 
ATOM     33  C   UNL     1      44.738  17.058  20.307  0.00  0.00    +0.072 C 
ENDBRANCH  29  30
ENDBRANCH  28  29
ENDBRANCH  27  28
TORSDOF 8
ENDMDL
MODEL 2
REMARK VINA RESULT:      -6.5      3.413      7.711
REMARK  Name = ZINC95485967
REMARK  13 active torsions:
REMARK  status: ('A' for Active; 'I' for Inactive)
REMARK    1  A    between atoms: C1_1  and  C2_2
REMARK    2  A    between atoms: C4_4  and  O4_32
REMARK    3  A    between atoms: C7_7  and  C8_8
REMARK    4  A    between atoms: C8_8  and  C9_9
REMARK    5  A    between atoms: C9_9  and  C10_10
REMARK    6  A    between atoms: C11_11  and  C12_12
REMARK    7  A    between atoms: C11_11  and  C13_13
REMARK    8  A    between atoms: C17_17  and  O1_18
REMARK    9  A    between atoms: C21_23  and  C22_25
REMARK   10  A    between atoms: C22_25  and  C23_26
REMARK   11  A    between atoms: C23_26  and  C24_27
REMARK   12  A    between atoms: C25_28  and  C26_29
REMARK   13  A    between atoms: C25_28  and  C27_30
REMARK                            x       y       z     vdW  Elec       q    Type
REMARK                         _______ _______ _______ _____ _____    ______ ____
ROOT
ATOM      1  C   UNL     1      42.631  19.659  20.369  0.00  0.00    +0.099 C 
ATOM      2  C   UNL     1      43.608  18.513  20.418  0.00  0.00    -0.040 A 
ATOM      3  C   UNL     1      43.460  17.528  21.389  0.00  0.00    -0.013 A 
ATOM      4  C   UNL     1      44.339  16.467  21.455  0.00  0.00    +0.143 A 
ATOM      7  C   UNL     1      45.395  16.385  20.525  0.00  0.00    -0.124 A 
ATOM      8  C   UNL     1      45.539  17.395  19.544  0.00  0.00    +0.017 A 
ATOM      9  C   UNL     1      46.598  17.322  18.618  0.00  0.00    +0.017 A 
ATOM     10  C   UNL     1      47.484  16.290  18.655  0.00  0.00    -0.013 A 
ATOM     11  C   UNL     1      48.612  16.291  17.652  0.00  0.00    +0.018 C 
ATOM     18  C   UNL     1      49.242  14.923  17.572  0.00  0.00    +0.376 C 
ATOM     19  O   UNL     1      49.483  14.409  16.506  0.00  0.00    -0.430 OA
ATOM     20  C   UNL     1      49.563  14.216  18.873  0.00  0.00    +0.045 C 
ATOM     21  C   UNL     1      48.266  14.126  19.649  0.00  0.00    +0.409 C 
ATOM     22  O   UNL     1      47.993  13.130  20.285  0.00  0.00    -0.430 OA
ATOM     23  C   UNL     1      47.345  15.269  19.614  0.00  0.00    -0.213 A 
ATOM     24  C   UNL     1      46.308  15.317  20.555  0.00  0.00    +0.218 A 
ATOM     27  C   UNL     1      44.619  18.454  19.505  0.00  0.00    -0.092 A 
ENDROOT
BRANCH   4   5
ATOM      5  O   UNL     1      44.188  15.513  22.407  0.00  0.00    -0.478 OA
ATOM      6  H   UNL     1      43.482  14.878  22.218  0.00  0.00    +0.390 HD
ENDBRANCH   4   5
BRANCH  24  25
ATOM     25  O   UNL     1      46.186  14.342  21.484  0.00  0.00    -0.463 OA
ATOM     26  H   UNL     1      46.487  14.600  22.367  0.00  0.00    +0.399 HD
ENDBRANCH  24  25
BRANCH  11  12
ATOM     12  C   UNL     1      49.669  17.312  18.081  0.00  0.00    +0.062 C 
BRANCH  12  13
ATOM     13  C   UNL     1      50.772  17.378  17.023  0.00  0.00    +0.048 C 
BRANCH  13  14
ATOM     14  C   UNL     1      50.810  18.759  16.422  0.00  0.00    -0.060 C 
ATOM     15  C   UNL     1      51.701  19.628  16.832  0.00  0.00    -0.127 C 
ATOM     16  C   UNL     1      51.838  20.955  16.131  0.00  0.00    +0.073 C 
ATOM     17  C   UNL     1      52.589  19.300  18.005  0.00  0.00    +0.073 C 
ENDBRANCH  13  14
ENDBRANCH  12  13
ENDBRANCH  11  12
BRANCH  27  28
ATOM     28  C   UNL     1      44.753  19.531  18.459  0.00  0.00    +0.079 C 
BRANCH  28  29
ATOM     29  C   UNL     1      45.323  20.797  19.101  0.00  0.00    +0.058 C 
BRANCH  29  30
ATOM     30  C   UNL     1      46.773  20.946  18.716  0.00  0.00    -0.060 C 
ATOM     31  C   UNL     1      47.710  20.764  19.613  0.00  0.00    -0.128 C 
ATOM     32  C   UNL     1      49.159  20.772  19.201  0.00  0.00    +0.072 C 
ATOM     33  C   UNL     1      47.339  20.547  21.058  0.00  0.00    +0.072 C 
ENDBRANCH  29  30
ENDBRANCH  28  29
ENDBRANCH  27  28
TORSDOF 8
ENDMDL
MODEL 3
REMARK VINA RESULT:      -6.3      3.808      6.484
REMARK  Name = ZINC95485967
REMARK  13 active torsions:
REMARK  status: ('A' for Active; 'I' for Inactive)
REMARK    1  A    between atoms: C1_1  and  C2_2
REMARK    2  A    between atoms: C4_4  and  O4_32
REMARK    3  A    between atoms: C7_7  and  C8_8
REMARK    4  A    between atoms: C8_8  and  C9_9
REMARK    5  A    between atoms: C9_9  and  C10_10
REMARK    6  A    between atoms: C11_11  and  C12_12
REMARK    7  A    between atoms: C11_11  and  C13_13
REMARK    8  A    between atoms: C17_17  and  O1_18
REMARK    9  A    between atoms: C21_23  and  C22_25
REMARK   10  A    between atoms: C22_25  and  C23_26
REMARK   11  A    between atoms: C23_26  and  C24_27
REMARK   12  A    between atoms: C25_28  and  C26_29
REMARK   13  A    between atoms: C25_28  and  C27_30
REMARK                            x       y       z     vdW  Elec       q    Type
REMARK                         _______ _______ _______ _____ _____    ______ ____
ROOT
ATOM      1  C   UNL     1      51.128  21.258  18.273  0.00  0.00    +0.099 C 
ATOM      2  C   UNL     1      50.863  19.795  18.028  0.00  0.00    -0.040 A 
ATOM      3  C   UNL     1      51.621  19.112  17.083  0.00  0.00    -0.013 A 
ATOM      4  C   UNL     1      51.402  17.772  16.840  0.00  0.00    +0.143 A 
ATOM      7  C   UNL     1      50.398  17.094  17.561  0.00  0.00    -0.124 A 
ATOM      8  C   UNL     1      49.630  17.799  18.518  0.00  0.00    +0.017 A 
ATOM      9  C   UNL     1      48.621  17.128  19.234  0.00  0.00    +0.017 A 
ATOM     10  C   UNL     1      48.375  15.807  19.019  0.00  0.00    -0.013 A 
ATOM     11  C   UNL     1      47.259  15.159  19.800  0.00  0.00    +0.018 C 
ATOM     18  C   UNL     1      47.382  13.657  19.741  0.00  0.00    +0.376 C 
ATOM     19  O   UNL     1      47.270  12.982  20.737  0.00  0.00    -0.430 OA
ATOM     20  C   UNL     1      47.651  13.023  18.391  0.00  0.00    +0.045 C 
ATOM     21  C   UNL     1      48.922  13.652  17.862  0.00  0.00    +0.409 C 
ATOM     22  O   UNL     1      49.744  12.984  17.269  0.00  0.00    -0.430 OA
ATOM     23  C   UNL     1      49.142  15.086  18.084  0.00  0.00    -0.213 A 
ATOM     24  C   UNL     1      50.148  15.727  17.348  0.00  0.00    +0.218 A 
ATOM     27  C   UNL     1      49.889  19.160  18.741  0.00  0.00    -0.092 A 
ENDROOT
BRANCH   4   5
ATOM      5  O   UNL     1      52.145  17.114  15.915  0.00  0.00    -0.478 OA
ATOM      6  H   UNL     1      51.635  16.506  15.362  0.00  0.00    +0.390 HD
ENDBRANCH   4   5
BRANCH  24  25
ATOM     25  O   UNL     1      50.872  15.035  16.439  0.00  0.00    -0.463 OA
ATOM     26  H   UNL     1      50.384  14.813  15.633  0.00  0.00    +0.399 HD
ENDBRANCH  24  25
BRANCH  11  12
ATOM     12  C   UNL     1      45.914  15.581  19.205  0.00  0.00    +0.062 C 
BRANCH  12  13
ATOM     13  C   UNL     1      44.986  16.051  20.326  0.00  0.00    +0.048 C 
BRANCH  13  14
ATOM     14  C   UNL     1      45.602  17.235  21.025  0.00  0.00    -0.060 C 
ATOM     15  C   UNL     1      44.843  18.077  21.682  0.00  0.00    -0.127 C 
ATOM     16  C   UNL     1      45.469  19.173  22.505  0.00  0.00    +0.073 C 
ATOM     17  C   UNL     1      43.342  17.949  21.614  0.00  0.00    +0.073 C 
ENDBRANCH  13  14
ENDBRANCH  12  13
ENDBRANCH  11  12
BRANCH  27  28
ATOM     28  C   UNL     1      49.087  19.923  19.764  0.00  0.00    +0.079 C 
BRANCH  28  29
ATOM     29  C   UNL     1      48.023  20.763  19.055  0.00  0.00    +0.058 C 
BRANCH  29  30
ATOM     30  C   UNL     1      46.801  19.917  18.804  0.00  0.00    -0.060 C 
ATOM     31  C   UNL     1      45.609  20.457  18.858  0.00  0.00    -0.128 C 
ATOM     32  C   UNL     1      44.397  19.650  18.471  0.00  0.00    +0.072 C 
ATOM     33  C   UNL     1      45.448  21.887  19.309  0.00  0.00    +0.072 C 
ENDBRANCH  29  30
ENDBRANCH  28  29
ENDBRANCH  27  28
TORSDOF 8
ENDMDL
MODEL 4
REMARK VINA RESULT:      -6.3      4.117      6.823
REMARK  Name = ZINC95485967
REMARK  13 active torsions:
REMARK  status: ('A' for Active; 'I' for Inactive)
REMARK    1  A    between atoms: C1_1  and  C2_2
REMARK    2  A    between atoms: C4_4  and  O4_32
REMARK    3  A    between atoms: C7_7  and  C8_8
REMARK    4  A    between atoms: C8_8  and  C9_9
REMARK    5  A    between atoms: C9_9  and  C10_10
REMARK    6  A    between atoms: C11_11  and  C12_12
REMARK    7  A    between atoms: C11_11  and  C13_13
REMARK    8  A    between atoms: C17_17  and  O1_18
REMARK    9  A    between atoms: C21_23  and  C22_25
REMARK   10  A    between atoms: C22_25  and  C23_26
REMARK   11  A    between atoms: C23_26  and  C24_27
REMARK   12  A    between atoms: C25_28  and  C26_29
REMARK   13  A    between atoms: C25_28  and  C27_30
REMARK                            x       y       z     vdW  Elec       q    Type
REMARK                         _______ _______ _______ _____ _____    ______ ____
ROOT
ATOM      1  C   UNL     1      51.305  21.185  17.583  0.00  0.00    +0.099 C 
ATOM      2  C   UNL     1      51.003  19.711  17.497  0.00  0.00    -0.040 A 
ATOM      3  C   UNL     1      51.786  18.899  16.684  0.00  0.00    -0.013 A 
ATOM      4  C   UNL     1      51.534  17.546  16.588  0.00  0.00    +0.143 A 
ATOM      7  C   UNL     1      50.470  16.987  17.326  0.00  0.00    -0.124 A 
ATOM      8  C   UNL     1      49.677  17.824  18.147  0.00  0.00    +0.017 A 
ATOM      9  C   UNL     1      48.609  17.271  18.879  0.00  0.00    +0.017 A 
ATOM     10  C   UNL     1      48.330  15.941  18.808  0.00  0.00    -0.013 A 
ATOM     11  C   UNL     1      47.152  15.423  19.595  0.00  0.00    +0.018 C 
ATOM     18  C   UNL     1      47.226  13.922  19.721  0.00  0.00    +0.376 C 
ATOM     19  O   UNL     1      47.038  13.374  20.781  0.00  0.00    -0.430 OA
ATOM     20  C   UNL     1      47.544  13.123  18.472  0.00  0.00    +0.045 C 
ATOM     21  C   UNL     1      48.863  13.649  17.946  0.00  0.00    +0.409 C 
ATOM     22  O   UNL     1      49.691  12.892  17.483  0.00  0.00    -0.430 OA
ATOM     23  C   UNL     1      49.120  15.093  18.009  0.00  0.00    -0.213 A 
ATOM     24  C   UNL     1      50.185  15.613  17.261  0.00  0.00    +0.218 A 
ATOM     27  C   UNL     1      49.971  19.194  18.223  0.00  0.00    -0.092 A 
ENDROOT
BRANCH   4   5
ATOM      5  O   UNL     1      52.302  16.762  15.791  0.00  0.00    -0.478 OA
ATOM      6  H   UNL     1      52.320  15.832  16.056  0.00  0.00    +0.390 HD
ENDBRANCH   4   5
BRANCH  24  25
ATOM     25  O   UNL     1      50.932  14.797  16.483  0.00  0.00    -0.463 OA
ATOM     26  H   UNL     1      51.682  15.237  16.058  0.00  0.00    +0.399 HD
ENDBRANCH  24  25
BRANCH  11  12
ATOM     12  C   UNL     1      45.856  15.808  18.879  0.00  0.00    +0.062 C 
BRANCH  12  13
ATOM     13  C   UNL     1      45.088  16.825  19.725  0.00  0.00    +0.048 C 
BRANCH  13  14
ATOM     14  C   UNL     1      45.048  18.149  19.006  0.00  0.00    -0.060 C 
ATOM     15  C   UNL     1      45.482  19.232  19.601  0.00  0.00    -0.127 C 
ATOM     16  C   UNL     1      45.582  20.525  18.834  0.00  0.00    +0.073 C 
ATOM     17  C   UNL     1      45.881  19.184  21.054  0.00  0.00    +0.073 C 
ENDBRANCH  13  14
ENDBRANCH  12  13
ENDBRANCH  11  12
BRANCH  27  28
ATOM     28  C   UNL     1      49.143  20.096  19.102  0.00  0.00    +0.079 C 
BRANCH  28  29
ATOM     29  C   UNL     1      49.460  19.809  20.570  0.00  0.00    +0.058 C 
BRANCH  29  30
ATOM     30  C   UNL     1      50.428  20.843  21.086  0.00  0.00    -0.060 C 
ATOM     31  C   UNL     1      51.682  20.522  21.287  0.00  0.00    -0.128 C 
ATOM     32  C   UNL     1      52.680  21.586  21.667  0.00  0.00    +0.072 C 
ATOM     33  C   UNL     1      52.128  19.090  21.139  0.00  0.00    +0.072 C 
ENDBRANCH  29  30
ENDBRANCH  28  29
ENDBRANCH  27  28
TORSDOF 8
ENDMDL
MODEL 5
REMARK VINA RESULT:      -6.3      4.528      9.451
REMARK  Name = ZINC95485967
REMARK  13 active torsions:
REMARK  status: ('A' for Active; 'I' for Inactive)
REMARK    1  A    between atoms: C1_1  and  C2_2
REMARK    2  A    between atoms: C4_4  and  O4_32
REMARK    3  A    between atoms: C7_7  and  C8_8
REMARK    4  A    between atoms: C8_8  and  C9_9
REMARK    5  A    between atoms: C9_9  and  C10_10
REMARK    6  A    between atoms: C11_11  and  C12_12
REMARK    7  A    between atoms: C11_11  and  C13_13
REMARK    8  A    between atoms: C17_17  and  O1_18
REMARK    9  A    between atoms: C21_23  and  C22_25
REMARK   10  A    between atoms: C22_25  and  C23_26
REMARK   11  A    between atoms: C23_26  and  C24_27
REMARK   12  A    between atoms: C25_28  and  C26_29
REMARK   13  A    between atoms: C25_28  and  C27_30
REMARK                            x       y       z     vdW  Elec       q    Type
REMARK                         _______ _______ _______ _____ _____    ______ ____
ROOT
ATOM      1  C   UNL     1      49.230  20.393  19.824  0.00  0.00    +0.099 C 
ATOM      2  C   UNL     1      48.953  19.117  19.071  0.00  0.00    -0.040 A 
ATOM      3  C   UNL     1      47.708  18.929  18.480  0.00  0.00    -0.013 A 
ATOM      4  C   UNL     1      47.428  17.772  17.784  0.00  0.00    +0.143 A 
ATOM      7  C   UNL     1      48.418  16.774  17.673  0.00  0.00    -0.124 A 
ATOM      8  C   UNL     1      49.680  16.975  18.281  0.00  0.00    +0.017 A 
ATOM      9  C   UNL     1      50.669  15.978  18.180  0.00  0.00    +0.017 A 
ATOM     10  C   UNL     1      50.426  14.823  17.502  0.00  0.00    -0.013 A 
ATOM     11  C   UNL     1      51.521  13.785  17.460  0.00  0.00    +0.018 C 
ATOM     18  C   UNL     1      51.246  12.779  16.370  0.00  0.00    +0.376 C 
ATOM     19  O   UNL     1      52.115  12.436  15.604  0.00  0.00    -0.430 OA
ATOM     20  C   UNL     1      49.844  12.214  16.268  0.00  0.00    +0.045 C 
ATOM     21  C   UNL     1      48.911  13.395  16.107  0.00  0.00    +0.409 C 
ATOM     22  O   UNL     1      47.960  13.335  15.356  0.00  0.00    -0.430 OA
ATOM     23  C   UNL     1      49.183  14.615  16.876  0.00  0.00    -0.213 A 
ATOM     24  C   UNL     1      48.174  15.584  16.966  0.00  0.00    +0.218 A 
ATOM     27  C   UNL     1      49.928  18.169  18.975  0.00  0.00    -0.092 A 
ENDROOT
BRANCH   4   5
ATOM      5  O   UNL     1      46.210  17.596  17.212  0.00  0.00    -0.478 OA
ATOM      6  H   UNL     1      45.726  16.828  17.547  0.00  0.00    +0.390 HD
ENDBRANCH   4   5
BRANCH  24  25
ATOM     25  O   UNL     1      46.974  15.375  16.376  0.00  0.00    -0.463 OA
ATOM     26  H   UNL     1      46.422  16.167  16.315  0.00  0.00    +0.399 HD
ENDBRANCH  24  25
BRANCH  11  12
ATOM     12  C   UNL     1      51.588  13.065  18.808  0.00  0.00    +0.062 C 
BRANCH  12  13
ATOM     13  C   UNL     1      52.976  13.261  19.421  0.00  0.00    +0.048 C 
BRANCH  13  14
ATOM     14  C   UNL     1      52.870  14.152  20.632  0.00  0.00    -0.060 C 
ATOM     15  C   UNL     1      53.471  15.317  20.644  0.00  0.00    -0.127 C 
ATOM     16  C   UNL     1      53.243  16.271  21.787  0.00  0.00    +0.073 C 
ATOM     17  C   UNL     1      54.389  15.701  19.512  0.00  0.00    +0.073 C 
ENDBRANCH  13  14
ENDBRANCH  12  13
ENDBRANCH  11  12
BRANCH  27  28
ATOM     28  C   UNL     1      51.270  18.402  19.619  0.00  0.00    +0.079 C 
BRANCH  28  29
ATOM     29  C   UNL     1      52.337  18.558  18.534  0.00  0.00    +0.058 C 
BRANCH  29  30
ATOM     30  C   UNL     1      52.201  19.912  17.886  0.00  0.00    -0.060 C 
ATOM     31  C   UNL     1      51.875  20.002  16.620  0.00  0.00    -0.128 C 
ATOM     32  C   UNL     1      51.600  21.351  16.008  0.00  0.00    +0.072 C 
ATOM     33  C   UNL     1      51.775  18.757  15.777  0.00  0.00    +0.072 C 
ENDBRANCH  29  30
ENDBRANCH  28  29
ENDBRANCH  27  28
TORSDOF 8
ENDMDL
MODEL 6
REMARK VINA RESULT:      -6.2      3.059      7.314
REMARK  Name = ZINC95485967
REMARK  13 active torsions:
REMARK  status: ('A' for Active; 'I' for Inactive)
REMARK    1  A    between atoms: C1_1  and  C2_2
REMARK    2  A    between atoms: C4_4  and  O4_32
REMARK    3  A    between atoms: C7_7  and  C8_8
REMARK    4  A    between atoms: C8_8  and  C9_9
REMARK    5  A    between atoms: C9_9  and  C10_10
REMARK    6  A    between atoms: C11_11  and  C12_12
REMARK    7  A    between atoms: C11_11  and  C13_13
REMARK    8  A    between atoms: C17_17  and  O1_18
REMARK    9  A    between atoms: C21_23  and  C22_25
REMARK   10  A    between atoms: C22_25  and  C23_26
REMARK   11  A    between atoms: C23_26  and  C24_27
REMARK   12  A    between atoms: C25_28  and  C26_29
REMARK   13  A    between atoms: C25_28  and  C27_30
REMARK                            x       y       z     vdW  Elec       q    Type
REMARK                         _______ _______ _______ _____ _____    ______ ____
ROOT
ATOM      1  C   UNL     1      41.902  18.926  22.010  0.00  0.00    +0.099 C 
ATOM      2  C   UNL     1      43.130  18.111  21.698  0.00  0.00    -0.040 A 
ATOM      3  C   UNL     1      43.203  16.791  22.131  0.00  0.00    -0.013 A 
ATOM      4  C   UNL     1      44.314  16.021  21.857  0.00  0.00    +0.143 A 
ATOM      7  C   UNL     1      45.383  16.583  21.129  0.00  0.00    -0.124 A 
ATOM      8  C   UNL     1      45.300  17.929  20.697  0.00  0.00    +0.017 A 
ATOM      9  C   UNL     1      46.368  18.496  19.977  0.00  0.00    +0.017 A 
ATOM     10  C   UNL     1      47.481  17.767  19.691  0.00  0.00    -0.013 A 
ATOM     11  C   UNL     1      48.600  18.449  18.943  0.00  0.00    +0.018 C 
ATOM     18  C   UNL     1      49.549  17.424  18.374  0.00  0.00    +0.376 C 
ATOM     19  O   UNL     1      49.939  17.499  17.233  0.00  0.00    -0.430 OA
ATOM     20  C   UNL     1      50.000  16.298  19.283  0.00  0.00    +0.045 C 
ATOM     21  C   UNL     1      48.745  15.604  19.768  0.00  0.00    +0.409 C 
ATOM     22  O   UNL     1      48.708  14.396  19.879  0.00  0.00    -0.430 OA
ATOM     23  C   UNL     1      47.572  16.423  20.098  0.00  0.00    -0.213 A 
ATOM     24  C   UNL     1      46.530  15.830  20.824  0.00  0.00    +0.218 A 
ATOM     27  C   UNL     1      44.149  18.676  20.989  0.00  0.00    -0.092 A 
ENDROOT
BRANCH   4   5
ATOM      5  O   UNL     1      44.378  14.736  22.285  0.00  0.00    -0.478 OA
ATOM      6  H   UNL     1      43.599  14.449  22.783  0.00  0.00    +0.390 HD
ENDBRANCH   4   5
BRANCH  24  25
ATOM     25  O   UNL     1      46.628  14.543  21.228  0.00  0.00    -0.463 OA
ATOM     26  H   UNL     1      47.032  13.955  20.574  0.00  0.00    +0.399 HD
ENDBRANCH  24  25
BRANCH  11  12
ATOM     12  C   UNL     1      49.361  19.370  19.899  0.00  0.00    +0.062 C 
BRANCH  12  13
ATOM     13  C   UNL     1      49.229  20.818  19.425  0.00  0.00    +0.048 C 
BRANCH  13  14
ATOM     14  C   UNL     1      49.806  20.947  18.039  0.00  0.00    -0.060 C 
ATOM     15  C   UNL     1      51.091  21.151  17.880  0.00  0.00    -0.127 C 
ATOM     16  C   UNL     1      51.692  21.131  16.499  0.00  0.00    +0.073 C 
ATOM     17  C   UNL     1      51.966  21.406  19.080  0.00  0.00    +0.073 C 
ENDBRANCH  13  14
ENDBRANCH  12  13
ENDBRANCH  11  12
BRANCH  27  28
ATOM     28  C   UNL     1      44.040  20.106  20.526  0.00  0.00    +0.079 C 
BRANCH  28  29
ATOM     29  C   UNL     1      43.432  20.144  19.123  0.00  0.00    +0.058 C 
BRANCH  29  30
ATOM     30  C   UNL     1      42.246  21.073  19.114  0.00  0.00    -0.060 C 
ATOM     31  C   UNL     1      41.084  20.646  18.685  0.00  0.00    -0.128 C 
ATOM     32  C   UNL     1      39.867  21.527  18.807  0.00  0.00    +0.072 C 
ATOM     33  C   UNL     1      40.964  19.275  18.071  0.00  0.00    +0.072 C 
ENDBRANCH  29  30
ENDBRANCH  28  29
ENDBRANCH  27  28
TORSDOF 8
ENDMDL
MODEL 7
REMARK VINA RESULT:      -6.2      2.788      6.065
REMARK  Name = ZINC95485967
REMARK  13 active torsions:
REMARK  status: ('A' for Active; 'I' for Inactive)
REMARK    1  A    between atoms: C1_1  and  C2_2
REMARK    2  A    between atoms: C4_4  and  O4_32
REMARK    3  A    between atoms: C7_7  and  C8_8
REMARK    4  A    between atoms: C8_8  and  C9_9
REMARK    5  A    between atoms: C9_9  and  C10_10
REMARK    6  A    between atoms: C11_11  and  C12_12
REMARK    7  A    between atoms: C11_11  and  C13_13
REMARK    8  A    between atoms: C17_17  and  O1_18
REMARK    9  A    between atoms: C21_23  and  C22_25
REMARK   10  A    between atoms: C22_25  and  C23_26
REMARK   11  A    between atoms: C23_26  and  C24_27
REMARK   12  A    between atoms: C25_28  and  C26_29
REMARK   13  A    between atoms: C25_28  and  C27_30
REMARK                            x       y       z     vdW  Elec       q    Type
REMARK                         _______ _______ _______ _____ _____    ______ ____
ROOT
ATOM      1  C   UNL     1      45.227  14.039  21.313  0.00  0.00    +0.099 C 
ATOM      2  C   UNL     1      45.024  15.524  21.472  0.00  0.00    -0.040 A 
ATOM      3  C   UNL     1      43.757  16.014  21.767  0.00  0.00    -0.013 A 
ATOM      4  C   UNL     1      43.544  17.368  21.920  0.00  0.00    +0.143 A 
ATOM      7  C   UNL     1      44.627  18.259  21.775  0.00  0.00    -0.124 A 
ATOM      8  C   UNL     1      45.912  17.750  21.470  0.00  0.00    +0.017 A 
ATOM      9  C   UNL     1      46.994  18.637  21.316  0.00  0.00    +0.017 A 
ATOM     10  C   UNL     1      46.821  19.979  21.457  0.00  0.00    -0.013 A 
ATOM     11  C   UNL     1      48.018  20.873  21.248  0.00  0.00    +0.018 C 
ATOM     18  C   UNL     1      47.754  22.244  21.819  0.00  0.00    +0.376 C 
ATOM     19  O   UNL     1      48.576  22.803  22.505  0.00  0.00    -0.430 OA
ATOM     20  C   UNL     1      46.423  22.897  21.502  0.00  0.00    +0.045 C 
ATOM     21  C   UNL     1      45.349  21.940  21.974  0.00  0.00    +0.409 C 
ATOM     22  O   UNL     1      44.340  22.356  22.505  0.00  0.00    -0.430 OA
ATOM     23  C   UNL     1      45.553  20.500  21.778  0.00  0.00    -0.213 A 
ATOM     24  C   UNL     1      44.453  19.645  21.929  0.00  0.00    +0.218 A 
ATOM     27  C   UNL     1      46.089  16.365  21.330  0.00  0.00    -0.092 A 
ENDROOT
BRANCH   4   5
ATOM      5  O   UNL     1      42.304  17.837  22.207  0.00  0.00    -0.478 OA
ATOM      6  H   UNL     1      42.063  17.765  23.141  0.00  0.00    +0.390 HD
ENDBRANCH   4   5
BRANCH  24  25
ATOM     25  O   UNL     1      43.233  20.151  22.222  0.00  0.00    -0.463 OA
ATOM     26  H   UNL     1      42.527  19.838  21.639  0.00  0.00    +0.399 HD
ENDBRANCH  24  25
BRANCH  11  12
ATOM     12  C   UNL     1      48.304  20.994  19.750  0.00  0.00    +0.062 C 
BRANCH  12  13
ATOM     13  C   UNL     1      49.718  20.490  19.458  0.00  0.00    +0.048 C 
BRANCH  13  14
ATOM     14  C   UNL     1      50.078  20.804  18.029  0.00  0.00    -0.060 C 
ATOM     15  C   UNL     1      51.336  20.902  17.676  0.00  0.00    -0.127 C 
ATOM     16  C   UNL     1      51.701  21.065  16.223  0.00  0.00    +0.073 C 
ATOM     17  C   UNL     1      52.418  20.851  18.724  0.00  0.00    +0.073 C 
ENDBRANCH  13  14
ENDBRANCH  12  13
ENDBRANCH  11  12
BRANCH  27  28
ATOM     28  C   UNL     1      47.453  15.806  21.016  0.00  0.00    +0.079 C 
BRANCH  28  29
ATOM     29  C   UNL     1      47.790  16.078  19.549  0.00  0.00    +0.058 C 
BRANCH  29  30
ATOM     30  C   UNL     1      49.278  16.272  19.403  0.00  0.00    -0.060 C 
ATOM     31  C   UNL     1      49.753  16.937  18.380  0.00  0.00    -0.128 C 
ATOM     32  C   UNL     1      51.224  17.254  18.305  0.00  0.00    +0.072 C 
ATOM     33  C   UNL     1      48.829  17.385  17.276  0.00  0.00    +0.072 C 
ENDBRANCH  29  30
ENDBRANCH  28  29
ENDBRANCH  27  28
TORSDOF 8
ENDMDL
MODEL 8
REMARK VINA RESULT:      -6.0      1.974      3.327
REMARK  Name = ZINC95485967
REMARK  13 active torsions:
REMARK  status: ('A' for Active; 'I' for Inactive)
REMARK    1  A    between atoms: C1_1  and  C2_2
REMARK    2  A    between atoms: C4_4  and  O4_32
REMARK    3  A    between atoms: C7_7  and  C8_8
REMARK    4  A    between atoms: C8_8  and  C9_9
REMARK    5  A    between atoms: C9_9  and  C10_10
REMARK    6  A    between atoms: C11_11  and  C12_12
REMARK    7  A    between atoms: C11_11  and  C13_13
REMARK    8  A    between atoms: C17_17  and  O1_18
REMARK    9  A    between atoms: C21_23  and  C22_25
REMARK   10  A    between atoms: C22_25  and  C23_26
REMARK   11  A    between atoms: C23_26  and  C24_27
REMARK   12  A    between atoms: C25_28  and  C26_29
REMARK   13  A    between atoms: C25_28  and  C27_30
REMARK                            x       y       z     vdW  Elec       q    Type
REMARK                         _______ _______ _______ _____ _____    ______ ____
ROOT
ATOM      1  C   UNL     1      48.849  13.125  16.206  0.00  0.00    +0.099 C 
ATOM      2  C   UNL     1      49.061  14.500  16.785  0.00  0.00    -0.040 A 
ATOM      3  C   UNL     1      50.354  14.982  16.947  0.00  0.00    -0.013 A 
ATOM      4  C   UNL     1      50.577  16.238  17.472  0.00  0.00    +0.143 A 
ATOM      7  C   UNL     1      49.476  17.036  17.846  0.00  0.00    -0.124 A 
ATOM      8  C   UNL     1      48.163  16.534  17.680  0.00  0.00    +0.017 A 
ATOM      9  C   UNL     1      47.062  17.324  18.059  0.00  0.00    +0.017 A 
ATOM     10  C   UNL     1      47.244  18.567  18.582  0.00  0.00    -0.013 A 
ATOM     11  C   UNL     1      46.020  19.346  18.996  0.00  0.00    +0.018 C 
ATOM     18  C   UNL     1      46.362  20.805  19.171  0.00  0.00    +0.376 C 
ATOM     19  O   UNL     1      45.662  21.671  18.705  0.00  0.00    -0.430 OA
ATOM     20  C   UNL     1      47.615  21.147  19.954  0.00  0.00    +0.045 C 
ATOM     21  C   UNL     1      48.762  20.441  19.264  0.00  0.00    +0.409 C 
ATOM     22  O   UNL     1      49.842  20.983  19.146  0.00  0.00    -0.430 OA
ATOM     23  C   UNL     1      48.542  19.089  18.738  0.00  0.00    -0.213 A 
ATOM     24  C   UNL     1      49.660  18.324  18.378  0.00  0.00    +0.218 A 
ATOM     27  C   UNL     1      47.980  15.254  17.135  0.00  0.00    -0.092 A 
ENDROOT
BRANCH   4   5
ATOM      5  O   UNL     1      51.843  16.700  17.629  0.00  0.00    -0.478 OA
ATOM      6  H   UNL     1      51.900  17.527  18.126  0.00  0.00    +0.390 HD
ENDBRANCH   4   5
BRANCH  24  25
ATOM     25  O   UNL     1      50.907  18.822  18.543  0.00  0.00    -0.463 OA
ATOM     26  H   UNL     1      50.938  19.786  18.623  0.00  0.00    +0.399 HD
ENDBRANCH  24  25
BRANCH  11  12
ATOM     12  C   UNL     1      45.486  18.788  20.317  0.00  0.00    +0.062 C 
BRANCH  12  13
ATOM     13  C   UNL     1      44.061  18.271  20.113  0.00  0.00    +0.048 C 
BRANCH  13  14
ATOM     14  C   UNL     1      43.266  19.283  19.329  0.00  0.00    -0.060 C 
ATOM     15  C   UNL     1      42.074  19.640  19.738  0.00  0.00    -0.127 C 
ATOM     16  C   UNL     1      41.341  20.758  19.042  0.00  0.00    +0.073 C 
ATOM     17  C   UNL     1      41.435  18.931  20.904  0.00  0.00    +0.073 C 
ENDBRANCH  13  14
ENDBRANCH  12  13
ENDBRANCH  11  12
BRANCH  27  28
ATOM     28  C   UNL     1      46.588  14.709  16.942  0.00  0.00    +0.079 C 
BRANCH  28  29
ATOM     29  C   UNL     1      46.309  13.636  17.996  0.00  0.00    +0.058 C 
BRANCH  29  30
ATOM     30  C   UNL     1      45.512  14.236  19.125  0.00  0.00    -0.060 C 
ATOM     31  C   UNL     1      46.079  14.445  20.287  0.00  0.00    -0.128 C 
ATOM     32  C   UNL     1      45.327  15.172  21.372  0.00  0.00    +0.072 C 
ATOM     33  C   UNL     1      47.482  13.957  20.540  0.00  0.00    +0.072 C 
ENDBRANCH  29  30
ENDBRANCH  28  29
ENDBRANCH  27  28
TORSDOF 8
ENDMDL
MODEL 9
REMARK VINA RESULT:      -6.0      1.605      2.896
REMARK  Name = ZINC95485967
REMARK  13 active torsions:
REMARK  status: ('A' for Active; 'I' for Inactive)
REMARK    1  A    between atoms: C1_1  and  C2_2
REMARK    2  A    between atoms: C4_4  and  O4_32
REMARK    3  A    between atoms: C7_7  and  C8_8
REMARK    4  A    between atoms: C8_8  and  C9_9
REMARK    5  A    between atoms: C9_9  and  C10_10
REMARK    6  A    between atoms: C11_11  and  C12_12
REMARK    7  A    between atoms: C11_11  and  C13_13
REMARK    8  A    between atoms: C17_17  and  O1_18
REMARK    9  A    between atoms: C21_23  and  C22_25
REMARK   10  A    between atoms: C22_25  and  C23_26
REMARK   11  A    between atoms: C23_26  and  C24_27
REMARK   12  A    between atoms: C25_28  and  C26_29
REMARK   13  A    between atoms: C25_28  and  C27_30
REMARK                            x       y       z     vdW  Elec       q    Type
REMARK                         _______ _______ _______ _____ _____    ______ ____
ROOT
ATOM      1  C   UNL     1      49.826  16.620  17.259  0.00  0.00    +0.099 C 
ATOM      2  C   UNL     1      49.339  17.755  18.123  0.00  0.00    -0.040 A 
ATOM      3  C   UNL     1      50.222  18.376  18.998  0.00  0.00    -0.013 A 
ATOM      4  C   UNL     1      49.804  19.419  19.798  0.00  0.00    +0.143 A 
ATOM      7  C   UNL     1      48.465  19.855  19.722  0.00  0.00    -0.124 A 
ATOM      8  C   UNL     1      47.573  19.213  18.830  0.00  0.00    +0.017 A 
ATOM      9  C   UNL     1      46.234  19.639  18.757  0.00  0.00    +0.017 A 
ATOM     10  C   UNL     1      45.785  20.663  19.533  0.00  0.00    -0.013 A 
ATOM     11  C   UNL     1      44.330  21.048  19.425  0.00  0.00    +0.018 C 
ATOM     18  C   UNL     1      44.103  22.411  20.029  0.00  0.00    +0.376 C 
ATOM     19  O   UNL     1      43.445  23.246  19.456  0.00  0.00    -0.430 OA
ATOM     20  C   UNL     1      44.727  22.698  21.381  0.00  0.00    +0.045 C 
ATOM     21  C   UNL     1      46.214  22.457  21.231  0.00  0.00    +0.409 C 
ATOM     22  O   UNL     1      47.018  23.186  21.774  0.00  0.00    -0.430 OA
ATOM     23  C   UNL     1      46.664  21.324  20.412  0.00  0.00    -0.213 A 
ATOM     24  C   UNL     1      48.001  20.918  20.515  0.00  0.00    +0.218 A 
ATOM     27  C   UNL     1      48.040  18.160  18.028  0.00  0.00    -0.092 A 
ENDROOT
BRANCH   4   5
ATOM      5  O   UNL     1      50.673  20.018  20.650  0.00  0.00    -0.478 OA
ATOM      6  H   UNL     1      51.556  20.152  20.280  0.00  0.00    +0.390 HD
ENDBRANCH   4   5
BRANCH  24  25
ATOM     25  O   UNL     1      48.839  21.546  21.373  0.00  0.00    -0.463 OA
ATOM     26  H   UNL     1      48.473  22.354  21.759  0.00  0.00    +0.399 HD
ENDBRANCH  24  25
BRANCH  11  12
ATOM     12  C   UNL     1      43.478  20.016  20.167  0.00  0.00    +0.062 C 
BRANCH  12  13
ATOM     13  C   UNL     1      44.348  19.270  21.180  0.00  0.00    +0.048 C 
BRANCH  13  14
ATOM     14  C   UNL     1      44.094  17.789  21.067  0.00  0.00    -0.060 C 
ATOM     15  C   UNL     1      45.030  16.935  21.402  0.00  0.00    -0.127 C 
ATOM     16  C   UNL     1      44.728  15.459  21.433  0.00  0.00    +0.073 C 
ATOM     17  C   UNL     1      46.408  17.431  21.758  0.00  0.00    +0.073 C 
ENDBRANCH  13  14
ENDBRANCH  12  13
ENDBRANCH  11  12
BRANCH  27  28
ATOM     28  C   UNL     1      47.105  17.473  17.066  0.00  0.00    +0.079 C 
BRANCH  28  29
ATOM     29  C   UNL     1      46.245  16.462  17.825  0.00  0.00    +0.058 C 
BRANCH  29  30
ATOM     30  C   UNL     1      46.577  15.068  17.357  0.00  0.00    -0.060 C 
ATOM     31  C   UNL     1      47.171  14.230  18.169  0.00  0.00    -0.128 C 
ATOM     32  C   UNL     1      47.377  12.796  17.753  0.00  0.00    +0.072 C 
ATOM     33  C   UNL     1      47.651  14.699  19.519  0.00  0.00    +0.072 C 
ENDBRANCH  29  30
ENDBRANCH  28  29
ENDBRANCH  27  28
TORSDOF 8
ENDMDL
