MODEL 1
REMARK VINA RESULT:      -5.2      0.000      0.000
REMARK  Name = ZINC95486350
REMARK  9 active torsions:
REMARK  status: ('A' for Active; 'I' for Inactive)
REMARK    1  A    between atoms: C4_4  and  C7_7
REMARK    2  A    between atoms: C7_7  and  C8_9
REMARK    3  A    between atoms: C7_7  and  O1_11
REMARK    4  A    between atoms: O1_11  and  C9_12
REMARK    5  A    between atoms: C10_14  and  O6_27
REMARK    6  A    between atoms: C11_16  and  O5_26
REMARK    7  A    between atoms: C12_18  and  O4_25
REMARK    8  A    between atoms: C13_20  and  C14_23
REMARK    9  A    between atoms: C14_23  and  O3_24
REMARK                            x       y       z     vdW  Elec       q    Type
REMARK                         _______ _______ _______ _____ _____    ______ ____
ROOT
ATOM      7  C   UNL     1      44.052  19.770  20.823  0.00  0.00    +0.313 C 
ATOM      8  C   UNL     1      44.981  20.952  21.117  0.00  0.00    +0.139 C 
ATOM     11  C   UNL     1      45.120  21.808  19.855  0.00  0.00    +0.156 C 
ATOM     14  C   UNL     1      43.728  22.260  19.403  0.00  0.00    +0.165 C 
ATOM     17  C   UNL     1      42.848  21.028  19.175  0.00  0.00    +0.204 C 
ATOM     21  O   UNL     1      42.786  20.259  20.378  0.00  0.00    -0.358 OA
ENDROOT
BRANCH   8   9
ATOM      9  O   UNL     1      44.429  21.740  22.173  0.00  0.00    -0.526 OA
ATOM     10  H   UNL     1      44.953  21.732  22.986  0.00  0.00    +0.382 HD
ENDBRANCH   8   9
BRANCH  11  12
ATOM     12  O   UNL     1      45.733  21.038  18.820  0.00  0.00    -0.533 OA
ATOM     13  H   UNL     1      46.225  21.566  18.176  0.00  0.00    +0.384 HD
ENDBRANCH  11  12
BRANCH  14  15
ATOM     15  O   UNL     1      43.142  23.087  20.412  0.00  0.00    -0.529 OA
ATOM     16  H   UNL     1      43.623  23.910  20.574  0.00  0.00    +0.378 HD
ENDBRANCH  14  15
BRANCH   7   6
ATOM      6  O   UNL     1      44.631  18.951  19.805  0.00  0.00    -0.352 OA
BRANCH   6   5
ATOM      5  C   UNL     1      44.692  17.563  20.139  0.00  0.00    +0.359 C 
BRANCH   5   4
ATOM      1  C   UNL     1      46.871  15.462  17.126  0.00  0.00    +0.018 A 
ATOM      2  C   UNL     1      46.678  16.827  17.014  0.00  0.00    +0.005 A 
ATOM      3  C   UNL     1      45.973  17.506  17.989  0.00  0.00    +0.036 A 
ATOM      4  C   UNL     1      45.460  16.822  19.075  0.00  0.00    -0.096 A 
ATOM     24  C   UNL     1      45.653  15.457  19.187  0.00  0.00    +0.051 A 
ATOM     25  C   UNL     1      46.360  14.778  18.212  0.00  0.00    +0.000 A 
ENDBRANCH   5   4
BRANCH   5  22
ATOM     22  C   UNL     1      45.370  17.401  21.437  0.00  0.00    +0.183 C 
ATOM     23  N   UNL     1      45.892  17.276  22.437  0.00  0.00    -0.402 NA
ENDBRANCH   5  22
ENDBRANCH   6   5
ENDBRANCH   7   6
BRANCH  17  18
ATOM     18  C   UNL     1      41.438  21.474  18.781  0.00  0.00    +0.210 C 
BRANCH  18  19
ATOM     19  O   UNL     1      41.485  22.810  18.275  0.00  0.00    -0.568 OA
ATOM     20  H   UNL     1      42.001  22.906  17.464  0.00  0.00    +0.382 HD
ENDBRANCH  18  19
ENDBRANCH  17  18
TORSDOF 9
ENDMDL
MODEL 2
REMARK VINA RESULT:      -5.1      3.606      4.785
REMARK  Name = ZINC95486350
REMARK  9 active torsions:
REMARK  status: ('A' for Active; 'I' for Inactive)
REMARK    1  A    between atoms: C4_4  and  C7_7
REMARK    2  A    between atoms: C7_7  and  C8_9
REMARK    3  A    between atoms: C7_7  and  O1_11
REMARK    4  A    between atoms: O1_11  and  C9_12
REMARK    5  A    between atoms: C10_14  and  O6_27
REMARK    6  A    between atoms: C11_16  and  O5_26
REMARK    7  A    between atoms: C12_18  and  O4_25
REMARK    8  A    between atoms: C13_20  and  C14_23
REMARK    9  A    between atoms: C14_23  and  O3_24
REMARK                            x       y       z     vdW  Elec       q    Type
REMARK                         _______ _______ _______ _____ _____    ______ ____
ROOT
ATOM      7  C   UNL     1      46.137  20.584  18.865  0.00  0.00    +0.313 C 
ATOM      8  C   UNL     1      44.976  19.607  19.076  0.00  0.00    +0.139 C 
ATOM     11  C   UNL     1      44.570  19.619  20.552  0.00  0.00    +0.156 C 
ATOM     14  C   UNL     1      44.206  21.051  20.959  0.00  0.00    +0.165 C 
ATOM     17  C   UNL     1      45.396  21.971  20.676  0.00  0.00    +0.204 C 
ATOM     21  O   UNL     1      45.743  21.889  19.291  0.00  0.00    -0.358 OA
ENDROOT
BRANCH   8   9
ATOM      9  O   UNL     1      43.865  20.006  18.270  0.00  0.00    -0.526 OA
ATOM     10  H   UNL     1      43.895  20.930  17.987  0.00  0.00    +0.382 HD
ENDBRANCH   8   9
BRANCH  11  12
ATOM     12  O   UNL     1      45.659  19.156  21.352  0.00  0.00    -0.533 OA
ATOM     13  H   UNL     1      46.482  19.031  20.860  0.00  0.00    +0.384 HD
ENDBRANCH  11  12
BRANCH  14  15
ATOM     15  O   UNL     1      43.073  21.488  20.205  0.00  0.00    -0.529 OA
ATOM     16  H   UNL     1      42.256  21.542  20.719  0.00  0.00    +0.378 HD
ENDBRANCH  14  15
BRANCH   7   6
ATOM      6  O   UNL     1      47.265  20.153  19.630  0.00  0.00    -0.352 OA
BRANCH   6   5
ATOM      5  C   UNL     1      48.303  19.558  18.848  0.00  0.00    +0.359 C 
BRANCH   5   4
ATOM      1  C   UNL     1      52.034  21.424  19.770  0.00  0.00    +0.018 A 
ATOM      2  C   UNL     1      51.199  21.006  20.791  0.00  0.00    +0.005 A 
ATOM      3  C   UNL     1      49.992  20.403  20.492  0.00  0.00    +0.036 A 
ATOM      4  C   UNL     1      49.619  20.217  19.174  0.00  0.00    -0.096 A 
ATOM     24  C   UNL     1      50.454  20.635  18.154  0.00  0.00    +0.051 A 
ATOM     25  C   UNL     1      51.661  21.237  18.452  0.00  0.00    +0.000 A 
ENDBRANCH   5   4
BRANCH   5  22
ATOM     22  C   UNL     1      48.385  18.120  19.156  0.00  0.00    +0.183 C 
ATOM     23  N   UNL     1      48.448  17.012  19.393  0.00  0.00    -0.402 NA
ENDBRANCH   5  22
ENDBRANCH   6   5
ENDBRANCH   7   6
BRANCH  17  18
ATOM     18  C   UNL     1      45.020  23.413  21.024  0.00  0.00    +0.210 C 
BRANCH  18  19
ATOM     19  O   UNL     1      44.090  23.414  22.108  0.00  0.00    -0.568 OA
ATOM     20  H   UNL     1      43.212  23.744  21.873  0.00  0.00    +0.382 HD
ENDBRANCH  18  19
ENDBRANCH  17  18
TORSDOF 9
ENDMDL
MODEL 3
REMARK VINA RESULT:      -4.9      3.248      4.633
REMARK  Name = ZINC95486350
REMARK  9 active torsions:
REMARK  status: ('A' for Active; 'I' for Inactive)
REMARK    1  A    between atoms: C4_4  and  C7_7
REMARK    2  A    between atoms: C7_7  and  C8_9
REMARK    3  A    between atoms: C7_7  and  O1_11
REMARK    4  A    between atoms: O1_11  and  C9_12
REMARK    5  A    between atoms: C10_14  and  O6_27
REMARK    6  A    between atoms: C11_16  and  O5_26
REMARK    7  A    between atoms: C12_18  and  O4_25
REMARK    8  A    between atoms: C13_20  and  C14_23
REMARK    9  A    between atoms: C14_23  and  O3_24
REMARK                            x       y       z     vdW  Elec       q    Type
REMARK                         _______ _______ _______ _____ _____    ______ ____
ROOT
ATOM      7  C   UNL     1      44.801  21.340  20.815  0.00  0.00    +0.313 C 
ATOM      8  C   UNL     1      43.984  21.437  19.524  0.00  0.00    +0.139 C 
ATOM     11  C   UNL     1      43.672  20.026  19.018  0.00  0.00    +0.156 C 
ATOM     14  C   UNL     1      42.933  19.254  20.116  0.00  0.00    +0.165 C 
ATOM     17  C   UNL     1      43.790  19.240  21.384  0.00  0.00    +0.204 C 
ATOM     21  O   UNL     1      44.070  20.584  21.783  0.00  0.00    -0.358 OA
ENDROOT
BRANCH   8   9
ATOM      9  O   UNL     1      42.764  22.135  19.782  0.00  0.00    -0.526 OA
ATOM     10  H   UNL     1      42.223  21.738  20.478  0.00  0.00    +0.382 HD
ENDBRANCH   8   9
BRANCH  11  12
ATOM     12  O   UNL     1      44.890  19.353  18.696  0.00  0.00    -0.533 OA
ATOM     13  H   UNL     1      45.646  19.944  18.574  0.00  0.00    +0.384 HD
ENDBRANCH  11  12
BRANCH  14  15
ATOM     15  O   UNL     1      41.683  19.891  20.389  0.00  0.00    -0.529 OA
ATOM     16  H   UNL     1      41.534  20.078  21.326  0.00  0.00    +0.378 HD
ENDBRANCH  14  15
BRANCH   7   6
ATOM      6  O   UNL     1      46.045  20.691  20.544  0.00  0.00    -0.352 OA
BRANCH   6   5
ATOM      5  C   UNL     1      47.134  21.167  21.337  0.00  0.00    +0.359 C 
BRANCH   5   4
ATOM      1  C   UNL     1      50.810  20.490  19.270  0.00  0.00    +0.018 A 
ATOM      2  C   UNL     1      49.620  20.534  18.568  0.00  0.00    +0.005 A 
ATOM      3  C   UNL     1      48.431  20.753  19.237  0.00  0.00    +0.036 A 
ATOM      4  C   UNL     1      48.430  20.927  20.608  0.00  0.00    -0.096 A 
ATOM     24  C   UNL     1      49.620  20.883  21.311  0.00  0.00    +0.051 A 
ATOM     25  C   UNL     1      50.810  20.666  20.641  0.00  0.00    +0.000 A 
ENDBRANCH   5   4
BRANCH   5  22
ATOM     22  C   UNL     1      46.968  22.611  21.581  0.00  0.00    +0.183 C 
ATOM     23  N   UNL     1      46.839  23.723  21.768  0.00  0.00    -0.402 NA
ENDBRANCH   5  22
ENDBRANCH   6   5
ENDBRANCH   7   6
BRANCH  17  18
ATOM     18  C   UNL     1      43.033  18.523  22.504  0.00  0.00    +0.210 C 
BRANCH  18  19
ATOM     19  O   UNL     1      42.071  17.633  21.934  0.00  0.00    -0.568 OA
ATOM     20  H   UNL     1      42.459  16.898  21.440  0.00  0.00    +0.382 HD
ENDBRANCH  18  19
ENDBRANCH  17  18
TORSDOF 9
ENDMDL
MODEL 4
REMARK VINA RESULT:      -4.8      5.059      7.426
REMARK  Name = ZINC95486350
REMARK  9 active torsions:
REMARK  status: ('A' for Active; 'I' for Inactive)
REMARK    1  A    between atoms: C4_4  and  C7_7
REMARK    2  A    between atoms: C7_7  and  C8_9
REMARK    3  A    between atoms: C7_7  and  O1_11
REMARK    4  A    between atoms: O1_11  and  C9_12
REMARK    5  A    between atoms: C10_14  and  O6_27
REMARK    6  A    between atoms: C11_16  and  O5_26
REMARK    7  A    between atoms: C12_18  and  O4_25
REMARK    8  A    between atoms: C13_20  and  C14_23
REMARK    9  A    between atoms: C14_23  and  O3_24
REMARK                            x       y       z     vdW  Elec       q    Type
REMARK                         _______ _______ _______ _____ _____    ______ ____
ROOT
ATOM      7  C   UNL     1      49.409  16.419  17.139  0.00  0.00    +0.313 C 
ATOM      8  C   UNL     1      49.036  14.939  17.264  0.00  0.00    +0.139 C 
ATOM     11  C   UNL     1      48.414  14.691  18.641  0.00  0.00    +0.156 C 
ATOM     14  C   UNL     1      47.202  15.612  18.815  0.00  0.00    +0.165 C 
ATOM     17  C   UNL     1      47.646  17.066  18.630  0.00  0.00    +0.204 C 
ATOM     21  O   UNL     1      48.244  17.221  17.341  0.00  0.00    -0.358 OA
ENDROOT
BRANCH   8   9
ATOM      9  O   UNL     1      48.096  14.595  16.244  0.00  0.00    -0.526 OA
ATOM     10  H   UNL     1      48.451  14.653  15.346  0.00  0.00    +0.382 HD
ENDBRANCH   8   9
BRANCH  11  12
ATOM     12  O   UNL     1      49.377  14.970  19.659  0.00  0.00    -0.533 OA
ATOM     13  H   UNL     1      50.243  15.236  19.319  0.00  0.00    +0.384 HD
ENDBRANCH  11  12
BRANCH  14  15
ATOM     15  O   UNL     1      46.211  15.286  17.837  0.00  0.00    -0.529 OA
ATOM     16  H   UNL     1      45.360  15.722  17.981  0.00  0.00    +0.378 HD
ENDBRANCH  14  15
BRANCH   7   6
ATOM      6  O   UNL     1      50.391  16.748  18.125  0.00  0.00    -0.352 OA
BRANCH   6   5
ATOM      5  C   UNL     1      51.651  17.144  17.580  0.00  0.00    +0.359 C 
BRANCH   5   4
ATOM      1  C   UNL     1      51.486  21.258  16.443  0.00  0.00    +0.018 A 
ATOM      2  C   UNL     1      51.171  20.886  17.737  0.00  0.00    +0.005 A 
ATOM      3  C   UNL     1      51.223  19.554  18.104  0.00  0.00    +0.036 A 
ATOM      4  C   UNL     1      51.591  18.596  17.179  0.00  0.00    -0.096 A 
ATOM     24  C   UNL     1      51.907  18.968  15.885  0.00  0.00    +0.051 A 
ATOM     25  C   UNL     1      51.855  20.300  15.518  0.00  0.00    +0.000 A 
ENDBRANCH   5   4
BRANCH   5  22
ATOM     22  C   UNL     1      52.703  16.958  18.593  0.00  0.00    +0.183 C 
ATOM     23  N   UNL     1      53.515  16.814  19.374  0.00  0.00    -0.402 NA
ENDBRANCH   5  22
ENDBRANCH   6   5
ENDBRANCH   7   6
BRANCH  17  18
ATOM     18  C   UNL     1      46.429  17.988  18.742  0.00  0.00    +0.210 C 
BRANCH  18  19
ATOM     19  O   UNL     1      45.853  18.175  17.448  0.00  0.00    -0.568 OA
ATOM     20  H   UNL     1      46.289  18.855  16.917  0.00  0.00    +0.382 HD
ENDBRANCH  18  19
ENDBRANCH  17  18
TORSDOF 9
ENDMDL
MODEL 5
REMARK VINA RESULT:      -4.8      1.624      2.097
REMARK  Name = ZINC95486350
REMARK  9 active torsions:
REMARK  status: ('A' for Active; 'I' for Inactive)
REMARK    1  A    between atoms: C4_4  and  C7_7
REMARK    2  A    between atoms: C7_7  and  C8_9
REMARK    3  A    between atoms: C7_7  and  O1_11
REMARK    4  A    between atoms: O1_11  and  C9_12
REMARK    5  A    between atoms: C10_14  and  O6_27
REMARK    6  A    between atoms: C11_16  and  O5_26
REMARK    7  A    between atoms: C12_18  and  O4_25
REMARK    8  A    between atoms: C13_20  and  C14_23
REMARK    9  A    between atoms: C14_23  and  O3_24
REMARK                            x       y       z     vdW  Elec       q    Type
REMARK                         _______ _______ _______ _____ _____    ______ ____
ROOT
ATOM      7  C   UNL     1      44.809  18.530  20.833  0.00  0.00    +0.313 C 
ATOM      8  C   UNL     1      45.433  19.807  20.262  0.00  0.00    +0.139 C 
ATOM     11  C   UNL     1      44.672  20.219  19.000  0.00  0.00    +0.156 C 
ATOM     14  C   UNL     1      43.191  20.401  19.347  0.00  0.00    +0.165 C 
ATOM     17  C   UNL     1      42.653  19.102  19.952  0.00  0.00    +0.204 C 
ATOM     21  O   UNL     1      43.425  18.759  21.106  0.00  0.00    -0.358 OA
ENDROOT
BRANCH   8   9
ATOM      9  O   UNL     1      45.354  20.852  21.233  0.00  0.00    -0.526 OA
ATOM     10  H   UNL     1      44.676  21.516  21.043  0.00  0.00    +0.382 HD
ENDBRANCH   8   9
BRANCH  11  12
ATOM     12  O   UNL     1      44.809  19.202  18.005  0.00  0.00    -0.533 OA
ATOM     13  H   UNL     1      43.978  18.767  17.771  0.00  0.00    +0.384 HD
ENDBRANCH  11  12
BRANCH  14  15
ATOM     15  O   UNL     1      43.049  21.465  20.292  0.00  0.00    -0.529 OA
ATOM     16  H   UNL     1      43.874  21.712  20.732  0.00  0.00    +0.378 HD
ENDBRANCH  14  15
BRANCH   7   6
ATOM      6  O   UNL     1      44.939  17.471  19.882  0.00  0.00    -0.352 OA
BRANCH   6   5
ATOM      5  C   UNL     1      45.106  16.180  20.471  0.00  0.00    +0.359 C 
BRANCH   5   4
ATOM      1  C   UNL     1      46.279  13.380  17.465  0.00  0.00    +0.018 A 
ATOM      2  C   UNL     1      46.622  14.714  17.339  0.00  0.00    +0.005 A 
ATOM      3  C   UNL     1      46.242  15.620  18.312  0.00  0.00    +0.036 A 
ATOM      4  C   UNL     1      45.519  15.192  19.410  0.00  0.00    -0.096 A 
ATOM     24  C   UNL     1      45.176  13.859  19.536  0.00  0.00    +0.051 A 
ATOM     25  C   UNL     1      45.557  12.953  18.564  0.00  0.00    +0.000 A 
ENDBRANCH   5   4
BRANCH   5  22
ATOM     22  C   UNL     1      46.147  16.246  21.511  0.00  0.00    +0.183 C 
ATOM     23  N   UNL     1      46.950  16.297  22.312  0.00  0.00    -0.402 NA
ENDBRANCH   5  22
ENDBRANCH   6   5
ENDBRANCH   7   6
BRANCH  17  18
ATOM     18  C   UNL     1      41.190  19.296  20.358  0.00  0.00    +0.210 C 
BRANCH  18  19
ATOM     19  O   UNL     1      41.093  19.343  21.782  0.00  0.00    -0.568 OA
ATOM     20  H   UNL     1      40.740  20.175  22.125  0.00  0.00    +0.382 HD
ENDBRANCH  18  19
ENDBRANCH  17  18
TORSDOF 9
ENDMDL
MODEL 6
REMARK VINA RESULT:      -4.8      4.882      7.332
REMARK  Name = ZINC95486350
REMARK  9 active torsions:
REMARK  status: ('A' for Active; 'I' for Inactive)
REMARK    1  A    between atoms: C4_4  and  C7_7
REMARK    2  A    between atoms: C7_7  and  C8_9
REMARK    3  A    between atoms: C7_7  and  O1_11
REMARK    4  A    between atoms: O1_11  and  C9_12
REMARK    5  A    between atoms: C10_14  and  O6_27
REMARK    6  A    between atoms: C11_16  and  O5_26
REMARK    7  A    between atoms: C12_18  and  O4_25
REMARK    8  A    between atoms: C13_20  and  C14_23
REMARK    9  A    between atoms: C14_23  and  O3_24
REMARK                            x       y       z     vdW  Elec       q    Type
REMARK                         _______ _______ _______ _____ _____    ______ ____
ROOT
ATOM      7  C   UNL     1      48.034  16.369  18.645  0.00  0.00    +0.313 C 
ATOM      8  C   UNL     1      46.544  16.432  18.298  0.00  0.00    +0.139 C 
ATOM     11  C   UNL     1      46.363  16.157  16.802  0.00  0.00    +0.156 C 
ATOM     14  C   UNL     1      46.981  14.796  16.467  0.00  0.00    +0.165 C 
ATOM     17  C   UNL     1      48.454  14.796  16.884  0.00  0.00    +0.204 C 
ATOM     21  O   UNL     1      48.553  15.089  18.279  0.00  0.00    -0.358 OA
ENDROOT
BRANCH   8   9
ATOM      9  O   UNL     1      45.836  15.449  19.056  0.00  0.00    -0.526 OA
ATOM     10  H   UNL     1      44.940  15.274  18.735  0.00  0.00    +0.382 HD
ENDBRANCH   8   9
BRANCH  11  12
ATOM     12  O   UNL     1      47.015  17.179  16.046  0.00  0.00    -0.533 OA
ATOM     13  H   UNL     1      47.046  18.037  16.490  0.00  0.00    +0.384 HD
ENDBRANCH  11  12
BRANCH  14  15
ATOM     15  O   UNL     1      46.283  13.767  17.173  0.00  0.00    -0.529 OA
ATOM     16  H   UNL     1      45.344  13.952  17.311  0.00  0.00    +0.378 HD
ENDBRANCH  14  15
BRANCH   7   6
ATOM      6  O   UNL     1      48.733  17.389  17.928  0.00  0.00    -0.352 OA
BRANCH   6   5
ATOM      5  C   UNL     1      49.706  18.086  18.709  0.00  0.00    +0.359 C 
BRANCH   5   4
ATOM      1  C   UNL     1      51.912  20.748  16.201  0.00  0.00    +0.018 A 
ATOM      2  C   UNL     1      51.320  21.220  17.359  0.00  0.00    +0.005 A 
ATOM      3  C   UNL     1      50.606  20.358  18.170  0.00  0.00    +0.036 A 
ATOM      4  C   UNL     1      50.483  19.026  17.824  0.00  0.00    -0.096 A 
ATOM     24  C   UNL     1      51.074  18.554  16.666  0.00  0.00    +0.051 A 
ATOM     25  C   UNL     1      51.789  19.415  15.856  0.00  0.00    +0.000 A 
ENDBRANCH   5   4
BRANCH   5  22
ATOM     22  C   UNL     1      49.026  18.856  19.765  0.00  0.00    +0.183 C 
ATOM     23  N   UNL     1      48.502  19.449  20.580  0.00  0.00    -0.402 NA
ENDBRANCH   5  22
ENDBRANCH   6   5
ENDBRANCH   7   6
BRANCH  17  18
ATOM     18  C   UNL     1      49.063  13.420  16.606  0.00  0.00    +0.210 C 
BRANCH  18  19
ATOM     19  O   UNL     1      48.521  12.895  15.393  0.00  0.00    -0.568 OA
ATOM     20  H   UNL     1      49.082  13.034  14.619  0.00  0.00    +0.382 HD
ENDBRANCH  18  19
ENDBRANCH  17  18
TORSDOF 9
ENDMDL
MODEL 7
REMARK VINA RESULT:      -4.7     21.419     22.820
REMARK  Name = ZINC95486350
REMARK  9 active torsions:
REMARK  status: ('A' for Active; 'I' for Inactive)
REMARK    1  A    between atoms: C4_4  and  C7_7
REMARK    2  A    between atoms: C7_7  and  C8_9
REMARK    3  A    between atoms: C7_7  and  O1_11
REMARK    4  A    between atoms: O1_11  and  C9_12
REMARK    5  A    between atoms: C10_14  and  O6_27
REMARK    6  A    between atoms: C11_16  and  O5_26
REMARK    7  A    between atoms: C12_18  and  O4_25
REMARK    8  A    between atoms: C13_20  and  C14_23
REMARK    9  A    between atoms: C14_23  and  O3_24
REMARK                            x       y       z     vdW  Elec       q    Type
REMARK                         _______ _______ _______ _____ _____    ______ ____
ROOT
ATOM      7  C   UNL     1      54.480  32.960   5.189  0.00  0.00    +0.313 C 
ATOM      8  C   UNL     1      54.810  34.360   5.713  0.00  0.00    +0.139 C 
ATOM     11  C   UNL     1      53.597  35.273   5.511  0.00  0.00    +0.156 C 
ATOM     14  C   UNL     1      52.386  34.657   6.220  0.00  0.00    +0.165 C 
ATOM     17  C   UNL     1      52.149  33.246   5.676  0.00  0.00    +0.204 C 
ATOM     21  O   UNL     1      53.327  32.458   5.868  0.00  0.00    -0.358 OA
ENDROOT
BRANCH   8   9
ATOM      9  O   UNL     1      55.128  34.287   7.104  0.00  0.00    -0.526 OA
ATOM     10  H   UNL     1      56.011  33.938   7.288  0.00  0.00    +0.382 HD
ENDBRANCH   8   9
BRANCH  11  12
ATOM     12  O   UNL     1      53.321  35.399   4.115  0.00  0.00    -0.533 OA
ATOM     13  H   UNL     1      53.162  34.557   3.667  0.00  0.00    +0.384 HD
ENDBRANCH  11  12
BRANCH  14  15
ATOM     15  O   UNL     1      52.637  34.593   7.626  0.00  0.00    -0.529 OA
ATOM     16  H   UNL     1      52.233  35.312   8.130  0.00  0.00    +0.378 HD
ENDBRANCH  14  15
BRANCH   7   6
ATOM      6  O   UNL     1      54.216  33.026   3.786  0.00  0.00    -0.352 OA
BRANCH   6   5
ATOM      5  C   UNL     1      54.382  31.782   3.104  0.00  0.00    +0.359 C 
BRANCH   5   4
ATOM      1  C   UNL     1      52.087  31.813  -0.498  0.00  0.00    +0.018 A 
ATOM      2  C   UNL     1      51.464  32.015   0.720  0.00  0.00    +0.005 A 
ATOM      3  C   UNL     1      52.207  32.004   1.885  0.00  0.00    +0.036 A 
ATOM      4  C   UNL     1      53.572  31.792   1.833  0.00  0.00    -0.096 A 
ATOM     24  C   UNL     1      54.194  31.591   0.615  0.00  0.00    +0.051 A 
ATOM     25  C   UNL     1      53.451  31.603  -0.550  0.00  0.00    +0.000 A 
ENDBRANCH   5   4
BRANCH   5  22
ATOM     22  C   UNL     1      55.805  31.589   2.776  0.00  0.00    +0.183 C 
ATOM     23  N   UNL     1      56.903  31.440   2.524  0.00  0.00    -0.402 NA
ENDBRANCH   5  22
ENDBRANCH   6   5
ENDBRANCH   7   6
BRANCH  17  18
ATOM     18  C   UNL     1      50.978  32.602   6.422  0.00  0.00    +0.210 C 
BRANCH  18  19
ATOM     19  O   UNL     1      50.139  33.624   6.964  0.00  0.00    -0.568 OA
ATOM     20  H   UNL     1      50.622  34.337   7.403  0.00  0.00    +0.382 HD
ENDBRANCH  18  19
ENDBRANCH  17  18
TORSDOF 9
ENDMDL
MODEL 8
REMARK VINA RESULT:      -4.7      4.016      5.335
REMARK  Name = ZINC95486350
REMARK  9 active torsions:
REMARK  status: ('A' for Active; 'I' for Inactive)
REMARK    1  A    between atoms: C4_4  and  C7_7
REMARK    2  A    between atoms: C7_7  and  C8_9
REMARK    3  A    between atoms: C7_7  and  O1_11
REMARK    4  A    between atoms: O1_11  and  C9_12
REMARK    5  A    between atoms: C10_14  and  O6_27
REMARK    6  A    between atoms: C11_16  and  O5_26
REMARK    7  A    between atoms: C12_18  and  O4_25
REMARK    8  A    between atoms: C13_20  and  C14_23
REMARK    9  A    between atoms: C14_23  and  O3_24
REMARK                            x       y       z     vdW  Elec       q    Type
REMARK                         _______ _______ _______ _____ _____    ______ ____
ROOT
ATOM      7  C   UNL     1      47.611  19.211  20.213  0.00  0.00    +0.313 C 
ATOM      8  C   UNL     1      46.379  20.050  20.566  0.00  0.00    +0.139 C 
ATOM     11  C   UNL     1      45.618  20.392  19.282  0.00  0.00    +0.156 C 
ATOM     14  C   UNL     1      45.249  19.092  18.559  0.00  0.00    +0.165 C 
ATOM     17  C   UNL     1      46.523  18.290  18.284  0.00  0.00    +0.204 C 
ATOM     21  O   UNL     1      47.199  18.033  19.517  0.00  0.00    -0.358 OA
ENDROOT
BRANCH   8   9
ATOM      9  O   UNL     1      45.531  19.307  21.443  0.00  0.00    -0.526 OA
ATOM     10  H   UNL     1      44.926  19.853  21.963  0.00  0.00    +0.382 HD
ENDBRANCH   8   9
BRANCH  11  12
ATOM     12  O   UNL     1      46.445  21.192  18.435  0.00  0.00    -0.533 OA
ATOM     13  H   UNL     1      46.259  22.139  18.485  0.00  0.00    +0.384 HD
ENDBRANCH  11  12
BRANCH  14  15
ATOM     15  O   UNL     1      44.367  18.323  19.381  0.00  0.00    -0.529 OA
ATOM     16  H   UNL     1      44.076  18.781  20.181  0.00  0.00    +0.378 HD
ENDBRANCH  14  15
BRANCH   7   6
ATOM      6  O   UNL     1      48.486  19.975  19.381  0.00  0.00    -0.352 OA
BRANCH   6   5
ATOM      5  C   UNL     1      49.862  19.608  19.492  0.00  0.00    +0.359 C 
BRANCH   5   4
ATOM      1  C   UNL     1      51.778  20.077  15.703  0.00  0.00    +0.018 A 
ATOM      2  C   UNL     1      51.538  21.183  16.498  0.00  0.00    +0.005 A 
ATOM      3  C   UNL     1      50.918  21.031  17.724  0.00  0.00    +0.036 A 
ATOM      4  C   UNL     1      50.537  19.774  18.155  0.00  0.00    -0.096 A 
ATOM     24  C   UNL     1      50.776  18.668  17.360  0.00  0.00    +0.051 A 
ATOM     25  C   UNL     1      51.398  18.820  16.135  0.00  0.00    +0.000 A 
ENDBRANCH   5   4
BRANCH   5  22
ATOM     22  C   UNL     1      50.521  20.473  20.485  0.00  0.00    +0.183 C 
ATOM     23  N   UNL     1      51.030  21.140  21.251  0.00  0.00    -0.402 NA
ENDBRANCH   5  22
ENDBRANCH   6   5
ENDBRANCH   7   6
BRANCH  17  18
ATOM     18  C   UNL     1      46.157  16.963  17.617  0.00  0.00    +0.210 C 
BRANCH  18  19
ATOM     19  O   UNL     1      45.856  15.992  18.621  0.00  0.00    -0.568 OA
ATOM     20  H   UNL     1      46.017  16.296  19.524  0.00  0.00    +0.382 HD
ENDBRANCH  18  19
ENDBRANCH  17  18
TORSDOF 9
ENDMDL
MODEL 9
REMARK VINA RESULT:      -4.7      4.385      7.044
REMARK  Name = ZINC95486350
REMARK  9 active torsions:
REMARK  status: ('A' for Active; 'I' for Inactive)
REMARK    1  A    between atoms: C4_4  and  C7_7
REMARK    2  A    between atoms: C7_7  and  C8_9
REMARK    3  A    between atoms: C7_7  and  O1_11
REMARK    4  A    between atoms: O1_11  and  C9_12
REMARK    5  A    between atoms: C10_14  and  O6_27
REMARK    6  A    between atoms: C11_16  and  O5_26
REMARK    7  A    between atoms: C12_18  and  O4_25
REMARK    8  A    between atoms: C13_20  and  C14_23
REMARK    9  A    between atoms: C14_23  and  O3_24
REMARK                            x       y       z     vdW  Elec       q    Type
REMARK                         _______ _______ _______ _____ _____    ______ ____
ROOT
ATOM      7  C   UNL     1      47.490  17.132  18.887  0.00  0.00    +0.313 C 
ATOM      8  C   UNL     1      46.107  16.970  18.249  0.00  0.00    +0.139 C 
ATOM     11  C   UNL     1      46.260  16.304  16.879  0.00  0.00    +0.156 C 
ATOM     14  C   UNL     1      46.981  14.963  17.053  0.00  0.00    +0.165 C 
ATOM     17  C   UNL     1      48.329  15.202  17.737  0.00  0.00    +0.204 C 
ATOM     21  O   UNL     1      48.118  15.852  18.992  0.00  0.00    -0.358 OA
ENDROOT
BRANCH   8   9
ATOM      9  O   UNL     1      45.287  16.156  19.089  0.00  0.00    -0.526 OA
ATOM     10  H   UNL     1      45.535  15.222  19.097  0.00  0.00    +0.382 HD
ENDBRANCH   8   9
BRANCH  11  12
ATOM     12  O   UNL     1      47.025  17.150  16.018  0.00  0.00    -0.533 OA
ATOM     13  H   UNL     1      46.592  17.988  15.805  0.00  0.00    +0.384 HD
ENDBRANCH  11  12
BRANCH  14  15
ATOM     15  O   UNL     1      46.183  14.093  17.860  0.00  0.00    -0.529 OA
ATOM     16  H   UNL     1      45.887  14.489  18.691  0.00  0.00    +0.378 HD
ENDBRANCH  14  15
BRANCH   7   6
ATOM      6  O   UNL     1      48.292  17.991  18.074  0.00  0.00    -0.352 OA
BRANCH   6   5
ATOM      5  C   UNL     1      49.277  18.727  18.801  0.00  0.00    +0.359 C 
BRANCH   5   4
ATOM      1  C   UNL     1      52.174  20.303  16.086  0.00  0.00    +0.018 A 
ATOM      2  C   UNL     1      51.752  18.991  15.963  0.00  0.00    +0.005 A 
ATOM      3  C   UNL     1      50.815  18.482  16.842  0.00  0.00    +0.036 A 
ATOM      4  C   UNL     1      50.300  19.282  17.844  0.00  0.00    -0.096 A 
ATOM     24  C   UNL     1      50.722  20.594  17.967  0.00  0.00    +0.051 A 
ATOM     25  C   UNL     1      51.658  21.103  17.087  0.00  0.00    +0.000 A 
ENDBRANCH   5   4
BRANCH   5  22
ATOM     22  C   UNL     1      48.627  19.836  19.522  0.00  0.00    +0.183 C 
ATOM     23  N   UNL     1      48.126  20.690  20.077  0.00  0.00    -0.402 NA
ENDBRANCH   5  22
ENDBRANCH   6   5
ENDBRANCH   7   6
BRANCH  17  18
ATOM     18  C   UNL     1      49.029  13.861  17.969  0.00  0.00    +0.210 C 
BRANCH  18  19
ATOM     19  O   UNL     1      48.641  13.335  19.239  0.00  0.00    -0.568 OA
ATOM     20  H   UNL     1      48.221  13.982  19.822  0.00  0.00    +0.382 HD
ENDBRANCH  18  19
ENDBRANCH  17  18
TORSDOF 9
ENDMDL
