MODEL 1
REMARK VINA RESULT:      -6.9      0.000      0.000
REMARK  Name = ZINC14819779
REMARK  8 active torsions:
REMARK  status: ('A' for Active; 'I' for Inactive)
REMARK    1  A    between atoms: C1_1  and  C2_2
REMARK    2  A    between atoms: C2_2  and  C19_24
REMARK    3  A    between atoms: C3_3  and  C4_4
REMARK    4  A    between atoms: C4_4  and  C5_5
REMARK    5  A    between atoms: C10_11  and  O5_23
REMARK    6  A    between atoms: C16_18  and  O4_21
REMARK    7  A    between atoms: C17_19  and  O3_20
REMARK    8  A    between atoms: O4_21  and  C18_22
REMARK                            x       y       z     vdW  Elec       q    Type
REMARK                         _______ _______ _______ _____ _____    ______ ____
ROOT
ATOM      6  C   UNL     1      47.858  20.229  19.834  0.00  0.00    -0.120 A 
ATOM      7  C   UNL     1      46.889  21.154  19.564  0.00  0.00    +0.138 A 
ATOM      8  C   UNL     1      45.547  20.770  19.547  0.00  0.00    -0.223 A 
ATOM      9  C   UNL     1      44.484  21.753  19.258  0.00  0.00    +0.441 A 
ATOM     10  C   UNL     1      43.097  21.252  19.262  0.00  0.00    -0.263 A 
ATOM     11  C   UNL     1      42.022  22.112  19.004  0.00  0.00    +0.204 A 
ATOM     14  C   UNL     1      40.731  21.610  19.010  0.00  0.00    -0.038 A 
ATOM     15  C   UNL     1      40.508  20.271  19.281  0.00  0.00    +0.115 A 
ATOM     16  C   UNL     1      41.562  19.418  19.542  0.00  0.00    -0.009 A 
ATOM     17  C   UNL     1      42.867  19.894  19.537  0.00  0.00    +0.179 A 
ATOM     18  O   UNL     1      43.890  19.054  19.793  0.00  0.00    -0.218 OA
ATOM     19  O   UNL     1      44.740  22.920  19.026  0.00  0.00    -0.432 OA
ATOM     20  C   UNL     1      45.184  19.439  19.806  0.00  0.00    +0.157 A 
ATOM     21  C   UNL     1      46.183  18.508  20.078  0.00  0.00    +0.044 A 
ATOM     24  C   UNL     1      47.514  18.906  20.091  0.00  0.00    +0.163 A 
ENDROOT
BRANCH  11  12
ATOM     12  O   UNL     1      42.244  23.425  18.745  0.00  0.00    -0.477 OA
ATOM     13  H   UNL     1      43.137  23.617  18.426  0.00  0.00    +0.402 HD
ENDBRANCH  11  12
BRANCH  21  22
ATOM     22  O   UNL     1      45.857  17.211  20.331  0.00  0.00    -0.310 OA
ATOM     23  C   UNL     1      45.742  16.339  19.205  0.00  0.00    +0.226 C 
ENDBRANCH  21  22
BRANCH  24  25
ATOM     25  O   UNL     1      48.486  17.996  20.358  0.00  0.00    -0.472 OA
ATOM     26  H   UNL     1      49.360  18.386  20.501  0.00  0.00    +0.395 HD
ENDBRANCH  24  25
BRANCH   6   5
ATOM      5  C   UNL     1      49.307  20.644  19.851  0.00  0.00    +0.127 C 
BRANCH   5   4
ATOM      1  C   UNL     1      52.016  21.243  19.370  0.00  0.00    +0.074 C 
ATOM      2  C   UNL     1      51.069  21.056  18.213  0.00  0.00    -0.127 C 
ATOM      3  C   UNL     1      51.572  21.188  16.799  0.00  0.00    +0.075 C 
ATOM      4  C   UNL     1      49.808  20.777  18.437  0.00  0.00    -0.049 C 
ENDBRANCH   5   4
ENDBRANCH   6   5
TORSDOF 5
ENDMDL
MODEL 2
REMARK VINA RESULT:      -5.9      2.018      7.313
REMARK  Name = ZINC14819779
REMARK  8 active torsions:
REMARK  status: ('A' for Active; 'I' for Inactive)
REMARK    1  A    between atoms: C1_1  and  C2_2
REMARK    2  A    between atoms: C2_2  and  C19_24
REMARK    3  A    between atoms: C3_3  and  C4_4
REMARK    4  A    between atoms: C4_4  and  C5_5
REMARK    5  A    between atoms: C10_11  and  O5_23
REMARK    6  A    between atoms: C16_18  and  O4_21
REMARK    7  A    between atoms: C17_19  and  O3_20
REMARK    8  A    between atoms: O4_21  and  C18_22
REMARK                            x       y       z     vdW  Elec       q    Type
REMARK                         _______ _______ _______ _____ _____    ______ ____
ROOT
ATOM      6  C   UNL     1      43.796  21.481  19.566  0.00  0.00    -0.120 A 
ATOM      7  C   UNL     1      44.547  20.517  18.953  0.00  0.00    +0.138 A 
ATOM      8  C   UNL     1      45.916  20.432  19.212  0.00  0.00    -0.223 A 
ATOM      9  C   UNL     1      46.745  19.398  18.561  0.00  0.00    +0.441 A 
ATOM     10  C   UNL     1      48.180  19.388  18.898  0.00  0.00    -0.263 A 
ATOM     11  C   UNL     1      49.044  18.441  18.334  0.00  0.00    +0.204 A 
ATOM     14  C   UNL     1      50.389  18.462  18.666  0.00  0.00    -0.038 A 
ATOM     15  C   UNL     1      50.869  19.406  19.557  0.00  0.00    +0.115 A 
ATOM     16  C   UNL     1      50.024  20.340  20.122  0.00  0.00    -0.009 A 
ATOM     17  C   UNL     1      48.671  20.344  19.802  0.00  0.00    +0.179 A 
ATOM     18  O   UNL     1      47.852  21.260  20.358  0.00  0.00    -0.218 OA
ATOM     19  O   UNL     1      46.267  18.592  17.784  0.00  0.00    -0.432 OA
ATOM     20  C   UNL     1      46.529  21.331  20.099  0.00  0.00    +0.157 A 
ATOM     21  C   UNL     1      45.752  22.308  20.714  0.00  0.00    +0.044 A 
ATOM     24  C   UNL     1      44.391  22.380  20.446  0.00  0.00    +0.163 A 
ENDROOT
BRANCH  11  12
ATOM     12  O   UNL     1      48.568  17.514  17.465  0.00  0.00    -0.477 OA
ATOM     13  H   UNL     1      48.042  17.885  16.744  0.00  0.00    +0.402 HD
ENDBRANCH  11  12
BRANCH  21  22
ATOM     22  O   UNL     1      46.324  23.192  21.576  0.00  0.00    -0.310 OA
ATOM     23  C   UNL     1      46.357  24.563  21.174  0.00  0.00    +0.226 C 
ENDBRANCH  21  22
BRANCH  24  25
ATOM     25  O   UNL     1      43.635  23.334  21.047  0.00  0.00    -0.472 OA
ATOM     26  H   UNL     1      42.753  23.031  21.305  0.00  0.00    +0.395 HD
ENDBRANCH  24  25
BRANCH   6   5
ATOM      5  C   UNL     1      42.318  21.573  19.284  0.00  0.00    +0.127 C 
BRANCH   5   4
ATOM      1  C   UNL     1      39.634  21.317  18.473  0.00  0.00    +0.074 C 
ATOM      2  C   UNL     1      40.623  20.224  18.159  0.00  0.00    -0.127 C 
ATOM      3  C   UNL     1      40.176  18.995  17.411  0.00  0.00    +0.075 C 
ATOM      4  C   UNL     1      41.872  20.343  18.536  0.00  0.00    -0.049 C 
ENDBRANCH   5   4
ENDBRANCH   6   5
TORSDOF 5
ENDMDL
MODEL 3
REMARK VINA RESULT:      -5.7      3.489      5.346
REMARK  Name = ZINC14819779
REMARK  8 active torsions:
REMARK  status: ('A' for Active; 'I' for Inactive)
REMARK    1  A    between atoms: C1_1  and  C2_2
REMARK    2  A    between atoms: C2_2  and  C19_24
REMARK    3  A    between atoms: C3_3  and  C4_4
REMARK    4  A    between atoms: C4_4  and  C5_5
REMARK    5  A    between atoms: C10_11  and  O5_23
REMARK    6  A    between atoms: C16_18  and  O4_21
REMARK    7  A    between atoms: C17_19  and  O3_20
REMARK    8  A    between atoms: O4_21  and  C18_22
REMARK                            x       y       z     vdW  Elec       q    Type
REMARK                         _______ _______ _______ _____ _____    ______ ____
ROOT
ATOM      6  C   UNL     1      48.336  19.512  19.872  0.00  0.00    -0.120 A 
ATOM      7  C   UNL     1      48.344  18.594  18.859  0.00  0.00    +0.138 A 
ATOM      8  C   UNL     1      47.594  17.422  18.977  0.00  0.00    -0.223 A 
ATOM      9  C   UNL     1      47.589  16.417  17.895  0.00  0.00    +0.441 A 
ATOM     10  C   UNL     1      46.767  15.213  18.112  0.00  0.00    -0.263 A 
ATOM     11  C   UNL     1      46.695  14.207  17.140  0.00  0.00    +0.204 A 
ATOM     14  C   UNL     1      45.919  13.085  17.375  0.00  0.00    -0.038 A 
ATOM     15  C   UNL     1      45.211  12.967  18.559  0.00  0.00    +0.115 A 
ATOM     16  C   UNL     1      45.272  13.955  19.521  0.00  0.00    -0.009 A 
ATOM     17  C   UNL     1      46.048  15.090  19.312  0.00  0.00    +0.179 A 
ATOM     18  O   UNL     1      46.101  16.051  20.256  0.00  0.00    -0.218 OA
ATOM     19  O   UNL     1      48.232  16.575  16.874  0.00  0.00    -0.432 OA
ATOM     20  C   UNL     1      46.830  17.179  20.130  0.00  0.00    +0.157 A 
ATOM     21  C   UNL     1      46.833  18.124  21.152  0.00  0.00    +0.044 A 
ATOM     24  C   UNL     1      47.584  19.284  21.020  0.00  0.00    +0.163 A 
ENDROOT
BRANCH  11  12
ATOM     12  O   UNL     1      47.386  14.330  15.978  0.00  0.00    -0.477 OA
ATOM     13  H   UNL     1      47.192  15.141  15.490  0.00  0.00    +0.402 HD
ENDBRANCH  11  12
BRANCH  21  22
ATOM     22  O   UNL     1      46.101  17.910  22.280  0.00  0.00    -0.310 OA
ATOM     23  C   UNL     1      44.755  18.391  22.281  0.00  0.00    +0.226 C 
ENDBRANCH  21  22
BRANCH  24  25
ATOM     25  O   UNL     1      47.585  20.204  22.019  0.00  0.00    -0.472 OA
ATOM     26  H   UNL     1      48.468  20.442  22.332  0.00  0.00    +0.395 HD
ENDBRANCH  24  25
BRANCH   6   5
ATOM      5  C   UNL     1      49.146  20.777  19.744  0.00  0.00    +0.127 C 
BRANCH   5   4
ATOM      1  C   UNL     1      51.910  21.158  19.361  0.00  0.00    +0.074 C 
ATOM      2  C   UNL     1      50.991  21.054  18.171  0.00  0.00    -0.127 C 
ATOM      3  C   UNL     1      51.553  21.153  16.776  0.00  0.00    +0.075 C 
ATOM      4  C   UNL     1      49.706  20.876  18.349  0.00  0.00    -0.049 C 
ENDBRANCH   5   4
ENDBRANCH   6   5
TORSDOF 5
ENDMDL
MODEL 4
REMARK VINA RESULT:      -5.6      2.984      7.195
REMARK  Name = ZINC14819779
REMARK  8 active torsions:
REMARK  status: ('A' for Active; 'I' for Inactive)
REMARK    1  A    between atoms: C1_1  and  C2_2
REMARK    2  A    between atoms: C2_2  and  C19_24
REMARK    3  A    between atoms: C3_3  and  C4_4
REMARK    4  A    between atoms: C4_4  and  C5_5
REMARK    5  A    between atoms: C10_11  and  O5_23
REMARK    6  A    between atoms: C16_18  and  O4_21
REMARK    7  A    between atoms: C17_19  and  O3_20
REMARK    8  A    between atoms: O4_21  and  C18_22
REMARK                            x       y       z     vdW  Elec       q    Type
REMARK                         _______ _______ _______ _____ _____    ______ ____
ROOT
ATOM      6  C   UNL     1      46.640  17.999  20.654  0.00  0.00    -0.120 A 
ATOM      7  C   UNL     1      47.616  18.949  20.530  0.00  0.00    +0.138 A 
ATOM      8  C   UNL     1      48.514  18.888  19.463  0.00  0.00    -0.223 A 
ATOM      9  C   UNL     1      49.575  19.903  19.310  0.00  0.00    +0.441 A 
ATOM     10  C   UNL     1      50.475  19.753  18.152  0.00  0.00    -0.263 A 
ATOM     11  C   UNL     1      51.508  20.671  17.922  0.00  0.00    +0.204 A 
ATOM     14  C   UNL     1      52.341  20.500  16.828  0.00  0.00    -0.038 A 
ATOM     15  C   UNL     1      52.143  19.436  15.965  0.00  0.00    +0.115 A 
ATOM     16  C   UNL     1      51.124  18.530  16.182  0.00  0.00    -0.009 A 
ATOM     17  C   UNL     1      50.278  18.675  17.275  0.00  0.00    +0.179 A 
ATOM     18  O   UNL     1      49.285  17.786  17.478  0.00  0.00    -0.218 OA
ATOM     19  O   UNL     1      49.702  20.818  20.103  0.00  0.00    -0.432 OA
ATOM     20  C   UNL     1      48.423  17.857  18.514  0.00  0.00    +0.157 A 
ATOM     21  C   UNL     1      47.424  16.897  18.655  0.00  0.00    +0.044 A 
ATOM     24  C   UNL     1      46.538  16.972  19.722  0.00  0.00    +0.163 A 
ENDROOT
BRANCH  11  12
ATOM     12  O   UNL     1      51.695  21.716  18.768  0.00  0.00    -0.477 OA
ATOM     13  H   UNL     1      52.501  21.653  19.298  0.00  0.00    +0.402 HD
ENDBRANCH  11  12
BRANCH  21  22
ATOM     22  O   UNL     1      47.316  15.887  17.749  0.00  0.00    -0.310 OA
ATOM     23  C   UNL     1      46.521  16.139  16.588  0.00  0.00    +0.226 C 
ENDBRANCH  21  22
BRANCH  24  25
ATOM     25  O   UNL     1      45.565  16.034  19.856  0.00  0.00    -0.472 OA
ATOM     26  H   UNL     1      45.766  15.351  20.511  0.00  0.00    +0.395 HD
ENDBRANCH  24  25
BRANCH   6   5
ATOM      5  C   UNL     1      45.671  18.066  21.807  0.00  0.00    +0.127 C 
BRANCH   5   4
ATOM      1  C   UNL     1      43.167  16.873  22.292  0.00  0.00    +0.074 C 
ATOM      2  C   UNL     1      43.244  18.204  21.589  0.00  0.00    -0.127 C 
ATOM      3  C   UNL     1      41.981  18.896  21.146  0.00  0.00    +0.075 C 
ATOM      4  C   UNL     1      44.409  18.759  21.363  0.00  0.00    -0.049 C 
ENDBRANCH   5   4
ENDBRANCH   6   5
TORSDOF 5
ENDMDL
MODEL 5
REMARK VINA RESULT:      -5.6      2.389      6.510
REMARK  Name = ZINC14819779
REMARK  8 active torsions:
REMARK  status: ('A' for Active; 'I' for Inactive)
REMARK    1  A    between atoms: C1_1  and  C2_2
REMARK    2  A    between atoms: C2_2  and  C19_24
REMARK    3  A    between atoms: C3_3  and  C4_4
REMARK    4  A    between atoms: C4_4  and  C5_5
REMARK    5  A    between atoms: C10_11  and  O5_23
REMARK    6  A    between atoms: C16_18  and  O4_21
REMARK    7  A    between atoms: C17_19  and  O3_20
REMARK    8  A    between atoms: O4_21  and  C18_22
REMARK                            x       y       z     vdW  Elec       q    Type
REMARK                         _______ _______ _______ _____ _____    ______ ____
ROOT
ATOM      6  C   UNL     1      45.554  20.251  19.938  0.00  0.00    -0.120 A 
ATOM      7  C   UNL     1      46.858  20.593  19.708  0.00  0.00    +0.138 A 
ATOM      8  C   UNL     1      47.721  19.676  19.107  0.00  0.00    -0.223 A 
ATOM      9  C   UNL     1      49.133  20.025  18.849  0.00  0.00    +0.441 A 
ATOM     10  C   UNL     1      49.966  18.991  18.210  0.00  0.00    -0.263 A 
ATOM     11  C   UNL     1      51.315  19.232  17.922  0.00  0.00    +0.204 A 
ATOM     14  C   UNL     1      52.074  18.238  17.326  0.00  0.00    -0.038 A 
ATOM     15  C   UNL     1      51.496  17.020  17.009  0.00  0.00    +0.115 A 
ATOM     16  C   UNL     1      50.166  16.776  17.284  0.00  0.00    -0.009 A 
ATOM     17  C   UNL     1      49.384  17.754  17.887  0.00  0.00    +0.179 A 
ATOM     18  O   UNL     1      48.085  17.507  18.152  0.00  0.00    -0.218 OA
ATOM     19  O   UNL     1      49.586  21.113  19.151  0.00  0.00    -0.432 OA
ATOM     20  C   UNL     1      47.260  18.403  18.734  0.00  0.00    +0.157 A 
ATOM     21  C   UNL     1      45.931  18.070  18.976  0.00  0.00    +0.044 A 
ATOM     24  C   UNL     1      45.084  18.993  19.576  0.00  0.00    +0.163 A 
ENDROOT
BRANCH  11  12
ATOM     12  O   UNL     1      51.876  20.429  18.230  0.00  0.00    -0.477 OA
ATOM     13  H   UNL     1      51.821  21.082  17.519  0.00  0.00    +0.402 HD
ENDBRANCH  11  12
BRANCH  21  22
ATOM     22  O   UNL     1      45.461  16.841  18.625  0.00  0.00    -0.310 OA
ATOM     23  C   UNL     1      45.511  15.818  19.622  0.00  0.00    +0.226 C 
ENDBRANCH  21  22
BRANCH  24  25
ATOM     25  O   UNL     1      43.787  18.665  19.810  0.00  0.00    -0.472 OA
ATOM     26  H   UNL     1      43.354  18.223  19.067  0.00  0.00    +0.395 HD
ENDBRANCH  24  25
BRANCH   6   5
ATOM      5  C   UNL     1      44.623  21.242  20.589  0.00  0.00    +0.127 C 
BRANCH   5   4
ATOM      1  C   UNL     1      45.598  23.851  20.999  0.00  0.00    +0.074 C 
ATOM      2  C   UNL     1      44.739  23.548  19.798  0.00  0.00    -0.127 C 
ATOM      3  C   UNL     1      44.403  24.641  18.818  0.00  0.00    +0.075 C 
ATOM      4  C   UNL     1      44.285  22.334  19.607  0.00  0.00    -0.049 C 
ENDBRANCH   5   4
ENDBRANCH   6   5
TORSDOF 5
ENDMDL
MODEL 6
REMARK VINA RESULT:      -5.6      3.690      7.927
REMARK  Name = ZINC14819779
REMARK  8 active torsions:
REMARK  status: ('A' for Active; 'I' for Inactive)
REMARK    1  A    between atoms: C1_1  and  C2_2
REMARK    2  A    between atoms: C2_2  and  C19_24
REMARK    3  A    between atoms: C3_3  and  C4_4
REMARK    4  A    between atoms: C4_4  and  C5_5
REMARK    5  A    between atoms: C10_11  and  O5_23
REMARK    6  A    between atoms: C16_18  and  O4_21
REMARK    7  A    between atoms: C17_19  and  O3_20
REMARK    8  A    between atoms: O4_21  and  C18_22
REMARK                            x       y       z     vdW  Elec       q    Type
REMARK                         _______ _______ _______ _____ _____    ______ ____
ROOT
ATOM      6  C   UNL     1      48.225  15.148  19.742  0.00  0.00    -0.120 A 
ATOM      7  C   UNL     1      49.113  15.407  18.735  0.00  0.00    +0.138 A 
ATOM      8  C   UNL     1      49.524  16.718  18.490  0.00  0.00    -0.223 A 
ATOM      9  C   UNL     1      50.482  17.020  17.408  0.00  0.00    +0.441 A 
ATOM     10  C   UNL     1      50.855  18.435  17.227  0.00  0.00    -0.263 A 
ATOM     11  C   UNL     1      51.761  18.816  16.229  0.00  0.00    +0.204 A 
ATOM     14  C   UNL     1      52.087  20.154  16.080  0.00  0.00    -0.038 A 
ATOM     15  C   UNL     1      51.528  21.103  16.919  0.00  0.00    +0.115 A 
ATOM     16  C   UNL     1      50.638  20.735  17.908  0.00  0.00    -0.009 A 
ATOM     17  C   UNL     1      50.290  19.399  18.076  0.00  0.00    +0.179 A 
ATOM     18  O   UNL     1      49.420  19.049  19.045  0.00  0.00    -0.218 OA
ATOM     19  O   UNL     1      50.942  16.143  16.700  0.00  0.00    -0.432 OA
ATOM     20  C   UNL     1      49.031  17.776  19.271  0.00  0.00    +0.157 A 
ATOM     21  C   UNL     1      48.127  17.496  20.291  0.00  0.00    +0.044 A 
ATOM     24  C   UNL     1      47.728  16.186  20.523  0.00  0.00    +0.163 A 
ENDROOT
BRANCH  11  12
ATOM     12  O   UNL     1      52.312  17.883  15.412  0.00  0.00    -0.477 OA
ATOM     13  H   UNL     1      52.916  18.247  14.752  0.00  0.00    +0.402 HD
ENDBRANCH  11  12
BRANCH  21  22
ATOM     22  O   UNL     1      47.634  18.505  21.062  0.00  0.00    -0.310 OA
ATOM     23  C   UNL     1      46.455  19.163  20.593  0.00  0.00    +0.226 C 
ENDBRANCH  21  22
BRANCH  24  25
ATOM     25  O   UNL     1      46.846  15.917  21.519  0.00  0.00    -0.472 OA
ATOM     26  H   UNL     1      45.919  15.964  21.246  0.00  0.00    +0.395 HD
ENDBRANCH  24  25
BRANCH   6   5
ATOM      5  C   UNL     1      47.782  13.732  20.005  0.00  0.00    +0.127 C 
BRANCH   5   4
ATOM      1  C   UNL     1      45.063  13.306  19.409  0.00  0.00    +0.074 C 
ATOM      2  C   UNL     1      46.125  12.880  18.428  0.00  0.00    -0.127 C 
ATOM      3  C   UNL     1      45.732  12.226  17.128  0.00  0.00    +0.075 C 
ATOM      4  C   UNL     1      47.391  13.078  18.705  0.00  0.00    -0.049 C 
ENDBRANCH   5   4
ENDBRANCH   6   5
TORSDOF 5
ENDMDL
MODEL 7
REMARK VINA RESULT:      -5.4      4.351      7.413
REMARK  Name = ZINC14819779
REMARK  8 active torsions:
REMARK  status: ('A' for Active; 'I' for Inactive)
REMARK    1  A    between atoms: C1_1  and  C2_2
REMARK    2  A    between atoms: C2_2  and  C19_24
REMARK    3  A    between atoms: C3_3  and  C4_4
REMARK    4  A    between atoms: C4_4  and  C5_5
REMARK    5  A    between atoms: C10_11  and  O5_23
REMARK    6  A    between atoms: C16_18  and  O4_21
REMARK    7  A    between atoms: C17_19  and  O3_20
REMARK    8  A    between atoms: O4_21  and  C18_22
REMARK                            x       y       z     vdW  Elec       q    Type
REMARK                         _______ _______ _______ _____ _____    ______ ____
ROOT
ATOM      6  C   UNL     1      49.049  17.126  18.183  0.00  0.00    -0.120 A 
ATOM      7  C   UNL     1      49.383  16.022  17.448  0.00  0.00    +0.138 A 
ATOM      8  C   UNL     1      48.439  15.015  17.239  0.00  0.00    -0.223 A 
ATOM      9  C   UNL     1      48.778  13.815  16.448  0.00  0.00    +0.441 A 
ATOM     10  C   UNL     1      47.715  12.807  16.283  0.00  0.00    -0.263 A 
ATOM     11  C   UNL     1      47.942  11.638  15.545  0.00  0.00    +0.204 A 
ATOM     14  C   UNL     1      46.925  10.707  15.412  0.00  0.00    -0.038 A 
ATOM     15  C   UNL     1      45.691  10.939  15.996  0.00  0.00    +0.115 A 
ATOM     16  C   UNL     1      45.457  12.091  16.720  0.00  0.00    -0.009 A 
ATOM     17  C   UNL     1      46.462  13.039  16.874  0.00  0.00    +0.179 A 
ATOM     18  O   UNL     1      46.225  14.161  17.583  0.00  0.00    -0.218 OA
ATOM     19  O   UNL     1      49.882  13.664  15.958  0.00  0.00    -0.432 OA
ATOM     20  C   UNL     1      47.147  15.127  17.777  0.00  0.00    +0.157 A 
ATOM     21  C   UNL     1      46.824  16.257  18.524  0.00  0.00    +0.044 A 
ATOM     24  C   UNL     1      47.774  17.250  18.723  0.00  0.00    +0.163 A 
ENDROOT
BRANCH  11  12
ATOM     12  O   UNL     1      49.151  11.417  14.969  0.00  0.00    -0.477 OA
ATOM     13  H   UNL     1      49.165  10.664  14.364  0.00  0.00    +0.402 HD
ENDBRANCH  11  12
BRANCH  21  22
ATOM     22  O   UNL     1      45.578  16.388  19.057  0.00  0.00    -0.310 OA
ATOM     23  C   UNL     1      45.357  15.801  20.341  0.00  0.00    +0.226 C 
ENDBRANCH  21  22
BRANCH  24  25
ATOM     25  O   UNL     1      47.455  18.351  19.452  0.00  0.00    -0.472 OA
ATOM     26  H   UNL     1      46.533  18.375  19.743  0.00  0.00    +0.395 HD
ENDBRANCH  24  25
BRANCH   6   5
ATOM      5  C   UNL     1      50.070  18.212  18.409  0.00  0.00    +0.127 C 
BRANCH   5   4
ATOM      1  C   UNL     1      51.010  20.793  17.792  0.00  0.00    +0.074 C 
ATOM      2  C   UNL     1      51.281  19.648  16.851  0.00  0.00    -0.127 C 
ATOM      3  C   UNL     1      52.056  19.884  15.580  0.00  0.00    +0.075 C 
ATOM      4  C   UNL     1      50.844  18.446  17.138  0.00  0.00    -0.049 C 
ENDBRANCH   5   4
ENDBRANCH   6   5
TORSDOF 5
ENDMDL
MODEL 8
REMARK VINA RESULT:      -5.3      2.310      6.790
REMARK  Name = ZINC14819779
REMARK  8 active torsions:
REMARK  status: ('A' for Active; 'I' for Inactive)
REMARK    1  A    between atoms: C1_1  and  C2_2
REMARK    2  A    between atoms: C2_2  and  C19_24
REMARK    3  A    between atoms: C3_3  and  C4_4
REMARK    4  A    between atoms: C4_4  and  C5_5
REMARK    5  A    between atoms: C10_11  and  O5_23
REMARK    6  A    between atoms: C16_18  and  O4_21
REMARK    7  A    between atoms: C17_19  and  O3_20
REMARK    8  A    between atoms: O4_21  and  C18_22
REMARK                            x       y       z     vdW  Elec       q    Type
REMARK                         _______ _______ _______ _____ _____    ______ ____
ROOT
ATOM      6  C   UNL     1      45.796  18.912  20.126  0.00  0.00    -0.120 A 
ATOM      7  C   UNL     1      46.912  19.684  19.956  0.00  0.00    +0.138 A 
ATOM      8  C   UNL     1      47.944  19.240  19.129  0.00  0.00    -0.223 A 
ATOM      9  C   UNL     1      49.158  20.058  18.931  0.00  0.00    +0.441 A 
ATOM     10  C   UNL     1      50.193  19.505  18.040  0.00  0.00    -0.263 A 
ATOM     11  C   UNL     1      51.376  20.211  17.788  0.00  0.00    +0.204 A 
ATOM     14  C   UNL     1      52.333  19.663  16.950  0.00  0.00    -0.038 A 
ATOM     15  C   UNL     1      52.113  18.430  16.358  0.00  0.00    +0.115 A 
ATOM     16  C   UNL     1      50.948  17.730  16.597  0.00  0.00    -0.009 A 
ATOM     17  C   UNL     1      49.974  18.255  17.438  0.00  0.00    +0.179 A 
ATOM     18  O   UNL     1      48.838  17.564  17.665  0.00  0.00    -0.218 OA
ATOM     19  O   UNL     1      49.297  21.136  19.479  0.00  0.00    -0.432 OA
ATOM     20  C   UNL     1      47.847  18.005  18.468  0.00  0.00    +0.157 A 
ATOM     21  C   UNL     1      46.705  17.231  18.652  0.00  0.00    +0.044 A 
ATOM     24  C   UNL     1      45.686  17.686  19.478  0.00  0.00    +0.163 A 
ENDROOT
BRANCH  11  12
ATOM     12  O   UNL     1      51.586  21.421  18.365  0.00  0.00    -0.477 OA
ATOM     13  H   UNL     1      52.364  21.454  18.938  0.00  0.00    +0.402 HD
ENDBRANCH  11  12
BRANCH  21  22
ATOM     22  O   UNL     1      46.587  16.029  18.023  0.00  0.00    -0.310 OA
ATOM     23  C   UNL     1      47.090  14.883  18.713  0.00  0.00    +0.226 C 
ENDBRANCH  21  22
BRANCH  24  25
ATOM     25  O   UNL     1      44.573  16.928  19.656  0.00  0.00    -0.472 OA
ATOM     26  H   UNL     1      43.927  17.005  18.940  0.00  0.00    +0.395 HD
ENDBRANCH  24  25
BRANCH   6   5
ATOM      5  C   UNL     1      44.682  19.391  21.020  0.00  0.00    +0.127 C 
BRANCH   5   4
ATOM      1  C   UNL     1      42.934  20.363  19.037  0.00  0.00    +0.074 C 
ATOM      2  C   UNL     1      43.684  21.328  19.919  0.00  0.00    -0.127 C 
ATOM      3  C   UNL     1      43.499  22.812  19.739  0.00  0.00    +0.075 C 
ATOM      4  C   UNL     1      44.497  20.876  20.842  0.00  0.00    -0.049 C 
ENDBRANCH   5   4
ENDBRANCH   6   5
TORSDOF 5
ENDMDL
MODEL 9
REMARK VINA RESULT:      -5.2      2.347      5.099
REMARK  Name = ZINC14819779
REMARK  8 active torsions:
REMARK  status: ('A' for Active; 'I' for Inactive)
REMARK    1  A    between atoms: C1_1  and  C2_2
REMARK    2  A    between atoms: C2_2  and  C19_24
REMARK    3  A    between atoms: C3_3  and  C4_4
REMARK    4  A    between atoms: C4_4  and  C5_5
REMARK    5  A    between atoms: C10_11  and  O5_23
REMARK    6  A    between atoms: C16_18  and  O4_21
REMARK    7  A    between atoms: C17_19  and  O3_20
REMARK    8  A    between atoms: O4_21  and  C18_22
REMARK                            x       y       z     vdW  Elec       q    Type
REMARK                         _______ _______ _______ _____ _____    ______ ____
ROOT
ATOM      6  C   UNL     1      47.409  17.301  17.685  0.00  0.00    -0.120 A 
ATOM      7  C   UNL     1      46.273  18.045  17.843  0.00  0.00    +0.138 A 
ATOM      8  C   UNL     1      46.301  19.199  18.628  0.00  0.00    -0.223 A 
ATOM      9  C   UNL     1      45.086  20.017  18.811  0.00  0.00    +0.441 A 
ATOM     10  C   UNL     1      45.215  21.217  19.658  0.00  0.00    -0.263 A 
ATOM     11  C   UNL     1      44.117  22.057  19.885  0.00  0.00    +0.204 A 
ATOM     14  C   UNL     1      44.269  23.174  20.690  0.00  0.00    -0.038 A 
ATOM     15  C   UNL     1      45.500  23.461  21.254  0.00  0.00    +0.115 A 
ATOM     16  C   UNL     1      46.588  22.642  21.031  0.00  0.00    -0.009 A 
ATOM     17  C   UNL     1      46.462  21.511  20.232  0.00  0.00    +0.179 A 
ATOM     18  O   UNL     1      47.530  20.716  20.019  0.00  0.00    -0.218 OA
ATOM     19  O   UNL     1      44.028  19.715  18.290  0.00  0.00    -0.432 OA
ATOM     20  C   UNL     1      47.490  19.603  19.257  0.00  0.00    +0.157 A 
ATOM     21  C   UNL     1      48.637  18.834  19.088  0.00  0.00    +0.044 A 
ATOM     24  C   UNL     1      48.593  17.688  18.304  0.00  0.00    +0.163 A 
ENDROOT
BRANCH  11  12
ATOM     12  O   UNL     1      42.913  21.775  19.326  0.00  0.00    -0.477 OA
ATOM     13  H   UNL     1      42.634  22.412  18.655  0.00  0.00    +0.402 HD
ENDBRANCH  11  12
BRANCH  21  22
ATOM     22  O   UNL     1      49.801  19.204  19.689  0.00  0.00    -0.310 OA
ATOM     23  C   UNL     1      50.637  20.120  18.977  0.00  0.00    +0.226 C 
ENDBRANCH  21  22
BRANCH  24  25
ATOM     25  O   UNL     1      49.715  16.941  18.140  0.00  0.00    -0.472 OA
ATOM     26  H   UNL     1      50.099  16.622  18.969  0.00  0.00    +0.395 HD
ENDBRANCH  24  25
BRANCH   6   5
ATOM      5  C   UNL     1      47.378  16.054  16.838  0.00  0.00    +0.127 C 
BRANCH   5   4
ATOM      1  C   UNL     1      47.467  13.384  15.949  0.00  0.00    +0.074 C 
ATOM      2  C   UNL     1      46.576  13.765  17.103  0.00  0.00    -0.127 C 
ATOM      3  C   UNL     1      45.732  12.716  17.782  0.00  0.00    +0.075 C 
ATOM      4  C   UNL     1      46.534  15.007  17.517  0.00  0.00    -0.049 C 
ENDBRANCH   5   4
ENDBRANCH   6   5
TORSDOF 5
ENDMDL
