MODEL 1
REMARK VINA RESULT:      -6.5      0.000      0.000
REMARK  Name = ZINC00001785
REMARK  4 active torsions:
REMARK  status: ('A' for Active; 'I' for Inactive)
REMARK    1  A    between atoms: C3_3  and  O5_21
REMARK    2  A    between atoms: C6_6  and  C7_7
REMARK    3  A    between atoms: C11_13  and  O4_20
REMARK    4  A    between atoms: C13_15  and  O3_19
REMARK                            x       y       z     vdW  Elec       q    Type
REMARK                         _______ _______ _______ _____ _____    ______ ____
ROOT
ATOM      9  C   UNL     1      43.710  18.824  20.907  0.00  0.00    +0.238 C 
ATOM     10  C   UNL     1      44.866  19.691  20.387  0.00  0.00    +0.039 C 
ATOM     11  C   UNL     1      44.313  21.085  20.152  0.00  0.00    +0.399 C 
ATOM     12  C   UNL     1      42.973  21.168  19.562  0.00  0.00    -0.292 A 
ATOM     13  C   UNL     1      42.480  22.388  19.072  0.00  0.00    +0.222 A 
ATOM     16  C   UNL     1      41.207  22.441  18.532  0.00  0.00    -0.073 A 
ATOM     17  C   UNL     1      40.427  21.292  18.473  0.00  0.00    +0.198 A 
ATOM     20  C   UNL     1      40.912  20.081  18.950  0.00  0.00    -0.053 A 
ATOM     21  C   UNL     1      42.183  20.005  19.493  0.00  0.00    +0.214 A 
ATOM     22  O   UNL     1      44.948  22.080  20.437  0.00  0.00    -0.425 OA
ATOM     23  O   UNL     1      42.655  18.820  19.946  0.00  0.00    -0.298 OA
ENDROOT
BRANCH   9   8
ATOM      1  C   UNL     1      44.955  16.788  20.157  0.00  0.00    +0.049 A 
ATOM      2  C   UNL     1      45.403  15.495  20.357  0.00  0.00    -0.010 A 
ATOM      3  C   UNL     1      45.091  14.830  21.533  0.00  0.00    +0.117 A 
ATOM      6  C   UNL     1      44.330  15.462  22.505  0.00  0.00    -0.013 A 
ATOM      7  C   UNL     1      43.885  16.753  22.300  0.00  0.00    +0.060 A 
ATOM      8  C   UNL     1      44.196  17.416  21.127  0.00  0.00    -0.103 A 
BRANCH   3   4
ATOM      4  O   UNL     1      45.530  13.559  21.731  0.00  0.00    -0.499 OA
ATOM      5  H   UNL     1      44.884  12.982  22.161  0.00  0.00    +0.395 HD
ENDBRANCH   3   4
ENDBRANCH   9   8
BRANCH  13  14
ATOM     14  O   UNL     1      43.245  23.506  19.130  0.00  0.00    -0.476 OA
ATOM     15  H   UNL     1      44.067  23.396  19.627  0.00  0.00    +0.401 HD
ENDBRANCH  13  14
BRANCH  17  18
ATOM     18  O   UNL     1      39.179  21.354  17.945  0.00  0.00    -0.490 OA
ATOM     19  H   UNL     1      38.732  22.199  18.092  0.00  0.00    +0.403 HD
ENDBRANCH  17  18
TORSDOF 4
ENDMDL
MODEL 2
REMARK VINA RESULT:      -6.1      1.344      1.947
REMARK  Name = ZINC00001785
REMARK  4 active torsions:
REMARK  status: ('A' for Active; 'I' for Inactive)
REMARK    1  A    between atoms: C3_3  and  O5_21
REMARK    2  A    between atoms: C6_6  and  C7_7
REMARK    3  A    between atoms: C11_13  and  O4_20
REMARK    4  A    between atoms: C13_15  and  O3_19
REMARK                            x       y       z     vdW  Elec       q    Type
REMARK                         _______ _______ _______ _____ _____    ______ ____
ROOT
ATOM      9  C   UNL     1      44.655  18.761  20.027  0.00  0.00    +0.238 C 
ATOM     10  C   UNL     1      45.835  19.718  19.796  0.00  0.00    +0.039 C 
ATOM     11  C   UNL     1      45.334  21.124  20.069  0.00  0.00    +0.399 C 
ATOM     12  C   UNL     1      43.985  21.445  19.588  0.00  0.00    -0.292 A 
ATOM     13  C   UNL     1      43.532  22.774  19.561  0.00  0.00    +0.222 A 
ATOM     16  C   UNL     1      42.251  23.048  19.115  0.00  0.00    -0.073 A 
ATOM     17  C   UNL     1      41.424  22.013  18.695  0.00  0.00    +0.198 A 
ATOM     20  C   UNL     1      41.870  20.697  18.713  0.00  0.00    -0.053 A 
ATOM     21  C   UNL     1      43.148  20.401  19.154  0.00  0.00    +0.214 A 
ATOM     22  O   UNL     1      46.014  21.941  20.655  0.00  0.00    -0.425 OA
ATOM     23  O   UNL     1      43.581  19.118  19.158  0.00  0.00    -0.298 OA
ENDROOT
BRANCH   9   8
ATOM      1  C   UNL     1      44.780  16.335  20.624  0.00  0.00    +0.049 A 
ATOM      2  C   UNL     1      45.176  15.037  20.360  0.00  0.00    -0.010 A 
ATOM      3  C   UNL     1      45.884  14.753  19.202  0.00  0.00    +0.117 A 
ATOM      6  C   UNL     1      46.194  15.772  18.312  0.00  0.00    -0.013 A 
ATOM      7  C   UNL     1      45.795  17.067  18.582  0.00  0.00    +0.060 A 
ATOM      8  C   UNL     1      45.089  17.348  19.736  0.00  0.00    -0.103 A 
BRANCH   3   4
ATOM      4  O   UNL     1      46.276  13.478  18.940  0.00  0.00    -0.499 OA
ATOM      5  H   UNL     1      45.800  13.064  18.207  0.00  0.00    +0.395 HD
ENDBRANCH   3   4
ENDBRANCH   9   8
BRANCH  13  14
ATOM     14  O   UNL     1      44.342  23.781  19.971  0.00  0.00    -0.476 OA
ATOM     15  H   UNL     1      44.654  23.689  20.882  0.00  0.00    +0.401 HD
ENDBRANCH  13  14
BRANCH  17  18
ATOM     18  O   UNL     1      40.169  22.291  18.262  0.00  0.00    -0.490 OA
ATOM     19  H   UNL     1      39.557  21.545  18.325  0.00  0.00    +0.403 HD
ENDBRANCH  17  18
TORSDOF 4
ENDMDL
MODEL 3
REMARK VINA RESULT:      -6.1      5.479      8.369
REMARK  Name = ZINC00001785
REMARK  4 active torsions:
REMARK  status: ('A' for Active; 'I' for Inactive)
REMARK    1  A    between atoms: C3_3  and  O5_21
REMARK    2  A    between atoms: C6_6  and  C7_7
REMARK    3  A    between atoms: C11_13  and  O4_20
REMARK    4  A    between atoms: C13_15  and  O3_19
REMARK                            x       y       z     vdW  Elec       q    Type
REMARK                         _______ _______ _______ _____ _____    ______ ____
ROOT
ATOM      9  C   UNL     1      48.600  20.435  19.989  0.00  0.00    +0.238 C 
ATOM     10  C   UNL     1      48.130  19.033  19.571  0.00  0.00    +0.039 C 
ATOM     11  C   UNL     1      49.333  18.308  18.996  0.00  0.00    +0.399 C 
ATOM     12  C   UNL     1      50.229  19.098  18.144  0.00  0.00    -0.292 A 
ATOM     13  C   UNL     1      51.214  18.469  17.365  0.00  0.00    +0.222 A 
ATOM     16  C   UNL     1      52.054  19.238  16.580  0.00  0.00    -0.073 A 
ATOM     17  C   UNL     1      51.919  20.621  16.563  0.00  0.00    +0.198 A 
ATOM     20  C   UNL     1      50.942  21.248  17.327  0.00  0.00    -0.053 A 
ATOM     21  C   UNL     1      50.090  20.497  18.118  0.00  0.00    +0.214 A 
ATOM     22  O   UNL     1      49.542  17.135  19.228  0.00  0.00    -0.425 OA
ATOM     23  O   UNL     1      49.132  21.112  18.851  0.00  0.00    -0.298 OA
ENDROOT
BRANCH   9   8
ATOM      1  C   UNL     1      46.250  21.278  19.828  0.00  0.00    +0.049 A 
ATOM      2  C   UNL     1      45.178  21.992  20.330  0.00  0.00    -0.010 A 
ATOM      3  C   UNL     1      45.292  22.643  21.550  0.00  0.00    +0.117 A 
ATOM      6  C   UNL     1      46.481  22.578  22.261  0.00  0.00    -0.013 A 
ATOM      7  C   UNL     1      47.549  21.863  21.754  0.00  0.00    +0.060 A 
ATOM      8  C   UNL     1      47.434  21.214  20.539  0.00  0.00    -0.103 A 
BRANCH   3   4
ATOM      4  O   UNL     1      44.240  23.346  22.045  0.00  0.00    -0.499 OA
ATOM      5  H   UNL     1      43.499  23.431  21.430  0.00  0.00    +0.395 HD
ENDBRANCH   3   4
ENDBRANCH   9   8
BRANCH  13  14
ATOM     14  O   UNL     1      51.341  17.119  17.383  0.00  0.00    -0.476 OA
ATOM     15  H   UNL     1      51.968  16.774  16.732  0.00  0.00    +0.401 HD
ENDBRANCH  13  14
BRANCH  17  18
ATOM     18  O   UNL     1      52.750  21.368  15.792  0.00  0.00    -0.490 OA
ATOM     19  H   UNL     1      53.261  20.853  15.153  0.00  0.00    +0.403 HD
ENDBRANCH  17  18
TORSDOF 4
ENDMDL
MODEL 4
REMARK VINA RESULT:      -6.0      2.723      4.349
REMARK  Name = ZINC00001785
REMARK  4 active torsions:
REMARK  status: ('A' for Active; 'I' for Inactive)
REMARK    1  A    between atoms: C3_3  and  O5_21
REMARK    2  A    between atoms: C6_6  and  C7_7
REMARK    3  A    between atoms: C11_13  and  O4_20
REMARK    4  A    between atoms: C13_15  and  O3_19
REMARK                            x       y       z     vdW  Elec       q    Type
REMARK                         _______ _______ _______ _____ _____    ______ ____
ROOT
ATOM      9  C   UNL     1      45.115  19.000  19.389  0.00  0.00    +0.238 C 
ATOM     10  C   UNL     1      44.864  18.634  20.860  0.00  0.00    +0.039 C 
ATOM     11  C   UNL     1      43.369  18.432  21.025  0.00  0.00    +0.399 C 
ATOM     12  C   UNL     1      42.498  19.374  20.314  0.00  0.00    -0.292 A 
ATOM     13  C   UNL     1      41.124  19.435  20.600  0.00  0.00    +0.222 A 
ATOM     16  C   UNL     1      40.322  20.324  19.906  0.00  0.00    -0.073 A 
ATOM     17  C   UNL     1      40.877  21.150  18.937  0.00  0.00    +0.198 A 
ATOM     20  C   UNL     1      42.236  21.099  18.654  0.00  0.00    -0.053 A 
ATOM     21  C   UNL     1      43.056  20.219  19.337  0.00  0.00    +0.214 A 
ATOM     22  O   UNL     1      42.918  17.538  21.710  0.00  0.00    -0.425 OA
ATOM     23  O   UNL     1      44.382  20.182  19.066  0.00  0.00    -0.298 OA
ENDROOT
BRANCH   9   8
ATOM      1  C   UNL     1      47.107  20.513  19.353  0.00  0.00    +0.049 A 
ATOM      2  C   UNL     1      48.457  20.741  19.157  0.00  0.00    -0.010 A 
ATOM      3  C   UNL     1      49.287  19.694  18.783  0.00  0.00    +0.117 A 
ATOM      6  C   UNL     1      48.761  18.423  18.605  0.00  0.00    -0.013 A 
ATOM      7  C   UNL     1      47.412  18.202  18.802  0.00  0.00    +0.060 A 
ATOM      8  C   UNL     1      46.586  19.245  19.175  0.00  0.00    -0.103 A 
BRANCH   3   4
ATOM      4  O   UNL     1      50.614  19.916  18.590  0.00  0.00    -0.499 OA
ATOM      5  H   UNL     1      50.994  20.574  19.188  0.00  0.00    +0.395 HD
ENDBRANCH   3   4
ENDBRANCH   9   8
BRANCH  13  14
ATOM     14  O   UNL     1      40.588  18.628  21.549  0.00  0.00    -0.476 OA
ATOM     15  H   UNL     1      39.872  18.063  21.226  0.00  0.00    +0.401 HD
ENDBRANCH  13  14
BRANCH  17  18
ATOM     18  O   UNL     1      40.082  22.016  18.258  0.00  0.00    -0.490 OA
ATOM     19  H   UNL     1      39.174  21.707  18.141  0.00  0.00    +0.403 HD
ENDBRANCH  17  18
TORSDOF 4
ENDMDL
MODEL 5
REMARK VINA RESULT:      -5.9      1.363      3.092
REMARK  Name = ZINC00001785
REMARK  4 active torsions:
REMARK  status: ('A' for Active; 'I' for Inactive)
REMARK    1  A    between atoms: C3_3  and  O5_21
REMARK    2  A    between atoms: C6_6  and  C7_7
REMARK    3  A    between atoms: C11_13  and  O4_20
REMARK    4  A    between atoms: C13_15  and  O3_19
REMARK                            x       y       z     vdW  Elec       q    Type
REMARK                         _______ _______ _______ _____ _____    ______ ____
ROOT
ATOM      9  C   UNL     1      43.976  18.797  19.899  0.00  0.00    +0.238 C 
ATOM     10  C   UNL     1      42.455  18.974  19.772  0.00  0.00    +0.039 C 
ATOM     11  C   UNL     1      42.213  20.312  19.097  0.00  0.00    +0.399 C 
ATOM     12  C   UNL     1      43.079  21.422  19.512  0.00  0.00    -0.292 A 
ATOM     13  C   UNL     1      42.775  22.742  19.144  0.00  0.00    +0.222 A 
ATOM     16  C   UNL     1      43.615  23.769  19.538  0.00  0.00    -0.073 A 
ATOM     17  C   UNL     1      44.747  23.491  20.293  0.00  0.00    +0.198 A 
ATOM     20  C   UNL     1      45.049  22.187  20.665  0.00  0.00    -0.053 A 
ATOM     21  C   UNL     1      44.222  21.146  20.284  0.00  0.00    +0.214 A 
ATOM     22  O   UNL     1      41.348  20.456  18.258  0.00  0.00    -0.425 OA
ATOM     23  O   UNL     1      44.515  19.878  20.659  0.00  0.00    -0.298 OA
ENDROOT
BRANCH   9   8
ATOM      1  C   UNL     1      43.696  17.218  21.820  0.00  0.00    +0.049 A 
ATOM      2  C   UNL     1      43.968  16.023  22.460  0.00  0.00    -0.010 A 
ATOM      3  C   UNL     1      44.821  15.102  21.872  0.00  0.00    +0.117 A 
ATOM      6  C   UNL     1      45.400  15.382  20.643  0.00  0.00    -0.013 A 
ATOM      7  C   UNL     1      45.125  16.577  20.007  0.00  0.00    +0.060 A 
ATOM      8  C   UNL     1      44.274  17.494  20.595  0.00  0.00    -0.103 A 
BRANCH   3   4
ATOM      4  O   UNL     1      45.090  13.927  22.500  0.00  0.00    -0.499 OA
ATOM      5  H   UNL     1      45.997  13.855  22.827  0.00  0.00    +0.395 HD
ENDBRANCH   3   4
ENDBRANCH   9   8
BRANCH  13  14
ATOM     14  O   UNL     1      41.668  23.009  18.408  0.00  0.00    -0.476 OA
ATOM     15  H   UNL     1      41.287  23.883  18.572  0.00  0.00    +0.401 HD
ENDBRANCH  13  14
BRANCH  17  18
ATOM     18  O   UNL     1      45.567  24.504  20.672  0.00  0.00    -0.490 OA
ATOM     19  H   UNL     1      45.201  25.385  20.515  0.00  0.00    +0.403 HD
ENDBRANCH  17  18
TORSDOF 4
ENDMDL
MODEL 6
REMARK VINA RESULT:      -5.8      5.385      8.312
REMARK  Name = ZINC00001785
REMARK  4 active torsions:
REMARK  status: ('A' for Active; 'I' for Inactive)
REMARK    1  A    between atoms: C3_3  and  O5_21
REMARK    2  A    between atoms: C6_6  and  C7_7
REMARK    3  A    between atoms: C11_13  and  O4_20
REMARK    4  A    between atoms: C13_15  and  O3_19
REMARK                            x       y       z     vdW  Elec       q    Type
REMARK                         _______ _______ _______ _____ _____    ______ ____
ROOT
ATOM      9  C   UNL     1      49.172  17.546  18.174  0.00  0.00    +0.238 C 
ATOM     10  C   UNL     1      47.951  18.232  18.804  0.00  0.00    +0.039 C 
ATOM     11  C   UNL     1      47.048  17.138  19.343  0.00  0.00    +0.399 C 
ATOM     12  C   UNL     1      46.904  15.938  18.511  0.00  0.00    -0.292 A 
ATOM     13  C   UNL     1      45.906  14.990  18.789  0.00  0.00    +0.222 A 
ATOM     16  C   UNL     1      45.800  13.860  17.997  0.00  0.00    -0.073 A 
ATOM     17  C   UNL     1      46.674  13.671  16.934  0.00  0.00    +0.198 A 
ATOM     20  C   UNL     1      47.660  14.608  16.651  0.00  0.00    -0.053 A 
ATOM     21  C   UNL     1      47.782  15.746  17.429  0.00  0.00    +0.214 A 
ATOM     22  O   UNL     1      46.474  17.250  20.406  0.00  0.00    -0.425 OA
ATOM     23  O   UNL     1      48.736  16.662  17.141  0.00  0.00    -0.298 OA
ENDROOT
BRANCH   9   8
ATOM      1  C   UNL     1      50.827  18.302  16.457  0.00  0.00    +0.049 A 
ATOM      2  C   UNL     1      51.671  19.257  15.920  0.00  0.00    -0.010 A 
ATOM      3  C   UNL     1      51.775  20.503  16.520  0.00  0.00    +0.117 A 
ATOM      6  C   UNL     1      51.034  20.787  17.657  0.00  0.00    -0.013 A 
ATOM      7  C   UNL     1      50.193  19.829  18.190  0.00  0.00    +0.060 A 
ATOM      8  C   UNL     1      50.090  18.588  17.591  0.00  0.00    -0.103 A 
BRANCH   3   4
ATOM      4  O   UNL     1      52.604  21.443  15.993  0.00  0.00    -0.499 OA
ATOM      5  H   UNL     1      52.625  21.451  15.027  0.00  0.00    +0.395 HD
ENDBRANCH   3   4
ENDBRANCH   9   8
BRANCH  13  14
ATOM     14  O   UNL     1      45.054  15.179  19.827  0.00  0.00    -0.476 OA
ATOM     15  H   UNL     1      44.470  14.427  19.999  0.00  0.00    +0.401 HD
ENDBRANCH  13  14
BRANCH  17  18
ATOM     18  O   UNL     1      46.565  12.558  16.165  0.00  0.00    -0.490 OA
ATOM     19  H   UNL     1      47.160  12.548  15.403  0.00  0.00    +0.403 HD
ENDBRANCH  17  18
TORSDOF 4
ENDMDL
MODEL 7
REMARK VINA RESULT:      -5.7      4.236      6.186
REMARK  Name = ZINC00001785
REMARK  4 active torsions:
REMARK  status: ('A' for Active; 'I' for Inactive)
REMARK    1  A    between atoms: C3_3  and  O5_21
REMARK    2  A    between atoms: C6_6  and  C7_7
REMARK    3  A    between atoms: C11_13  and  O4_20
REMARK    4  A    between atoms: C13_15  and  O3_19
REMARK                            x       y       z     vdW  Elec       q    Type
REMARK                         _______ _______ _______ _____ _____    ______ ____
ROOT
ATOM      9  C   UNL     1      48.003  20.045  19.159  0.00  0.00    +0.238 C 
ATOM     10  C   UNL     1      47.766  18.890  20.144  0.00  0.00    +0.039 C 
ATOM     11  C   UNL     1      46.310  18.480  20.014  0.00  0.00    +0.399 C 
ATOM     12  C   UNL     1      45.334  19.566  19.862  0.00  0.00    -0.292 A 
ATOM     13  C   UNL     1      43.959  19.315  19.991  0.00  0.00    +0.222 A 
ATOM     16  C   UNL     1      43.059  20.354  19.829  0.00  0.00    -0.073 A 
ATOM     17  C   UNL     1      43.518  21.634  19.545  0.00  0.00    +0.198 A 
ATOM     20  C   UNL     1      44.878  21.889  19.422  0.00  0.00    -0.053 A 
ATOM     21  C   UNL     1      45.795  20.865  19.582  0.00  0.00    +0.214 A 
ATOM     22  O   UNL     1      45.971  17.315  20.037  0.00  0.00    -0.425 OA
ATOM     23  O   UNL     1      47.120  21.122  19.473  0.00  0.00    -0.298 OA
ENDROOT
BRANCH   9   8
ATOM      1  C   UNL     1      50.008  20.679  20.514  0.00  0.00    +0.049 A 
ATOM      2  C   UNL     1      51.318  21.110  20.618  0.00  0.00    -0.010 A 
ATOM      3  C   UNL     1      52.051  21.378  19.471  0.00  0.00    +0.117 A 
ATOM      6  C   UNL     1      51.468  21.213  18.223  0.00  0.00    -0.013 A 
ATOM      7  C   UNL     1      50.159  20.782  18.125  0.00  0.00    +0.060 A 
ATOM      8  C   UNL     1      49.430  20.516  19.269  0.00  0.00    -0.103 A 
BRANCH   3   4
ATOM      4  O   UNL     1      53.338  21.802  19.571  0.00  0.00    -0.499 OA
ATOM      5  H   UNL     1      53.495  22.676  19.189  0.00  0.00    +0.395 HD
ENDBRANCH   3   4
ENDBRANCH   9   8
BRANCH  13  14
ATOM     14  O   UNL     1      43.515  18.064  20.270  0.00  0.00    -0.476 OA
ATOM     15  H   UNL     1      44.079  17.360  19.922  0.00  0.00    +0.401 HD
ENDBRANCH  13  14
BRANCH  17  18
ATOM     18  O   UNL     1      42.628  22.646  19.385  0.00  0.00    -0.490 OA
ATOM     19  H   UNL     1      42.110  22.843  20.177  0.00  0.00    +0.403 HD
ENDBRANCH  17  18
TORSDOF 4
ENDMDL
MODEL 8
REMARK VINA RESULT:      -5.6      5.093      8.111
REMARK  Name = ZINC00001785
REMARK  4 active torsions:
REMARK  status: ('A' for Active; 'I' for Inactive)
REMARK    1  A    between atoms: C3_3  and  O5_21
REMARK    2  A    between atoms: C6_6  and  C7_7
REMARK    3  A    between atoms: C11_13  and  O4_20
REMARK    4  A    between atoms: C13_15  and  O3_19
REMARK                            x       y       z     vdW  Elec       q    Type
REMARK                         _______ _______ _______ _____ _____    ______ ____
ROOT
ATOM      9  C   UNL     1      47.509  19.491  19.206  0.00  0.00    +0.238 C 
ATOM     10  C   UNL     1      47.526  18.468  18.060  0.00  0.00    +0.039 C 
ATOM     11  C   UNL     1      48.922  17.872  18.010  0.00  0.00    +0.399 C 
ATOM     12  C   UNL     1      50.039  18.800  18.222  0.00  0.00    -0.292 A 
ATOM     13  C   UNL     1      51.358  18.407  17.945  0.00  0.00    +0.222 A 
ATOM     16  C   UNL     1      52.394  19.297  18.166  0.00  0.00    -0.073 A 
ATOM     17  C   UNL     1      52.127  20.569  18.656  0.00  0.00    +0.198 A 
ATOM     20  C   UNL     1      50.823  20.966  18.926  0.00  0.00    -0.053 A 
ATOM     21  C   UNL     1      49.771  20.092  18.711  0.00  0.00    +0.214 A 
ATOM     22  O   UNL     1      49.104  16.690  17.804  0.00  0.00    -0.425 OA
ATOM     23  O   UNL     1      48.501  20.487  18.965  0.00  0.00    -0.298 OA
ENDROOT
BRANCH   9   8
ATOM      1  C   UNL     1      45.042  19.476  18.793  0.00  0.00    +0.049 A 
ATOM      2  C   UNL     1      43.794  20.069  18.861  0.00  0.00    -0.010 A 
ATOM      3  C   UNL     1      43.659  21.331  19.421  0.00  0.00    +0.117 A 
ATOM      6  C   UNL     1      44.774  21.995  19.910  0.00  0.00    -0.013 A 
ATOM      7  C   UNL     1      46.018  21.397  19.839  0.00  0.00    +0.060 A 
ATOM      8  C   UNL     1      46.151  20.139  19.281  0.00  0.00    -0.103 A 
BRANCH   3   4
ATOM      4  O   UNL     1      42.434  21.916  19.488  0.00  0.00    -0.499 OA
ATOM      5  H   UNL     1      42.456  22.846  19.752  0.00  0.00    +0.395 HD
ENDBRANCH   3   4
ENDBRANCH   9   8
BRANCH  13  14
ATOM     14  O   UNL     1      51.615  17.165  17.465  0.00  0.00    -0.476 OA
ATOM     15  H   UNL     1      51.540  17.091  16.504  0.00  0.00    +0.401 HD
ENDBRANCH  13  14
BRANCH  17  18
ATOM     18  O   UNL     1      53.149  21.434  18.873  0.00  0.00    -0.490 OA
ATOM     19  H   UNL     1      53.845  21.084  19.445  0.00  0.00    +0.403 HD
ENDBRANCH  17  18
TORSDOF 4
ENDMDL
MODEL 9
REMARK VINA RESULT:      -5.4      4.445      8.017
REMARK  Name = ZINC00001785
REMARK  4 active torsions:
REMARK  status: ('A' for Active; 'I' for Inactive)
REMARK    1  A    between atoms: C3_3  and  O5_21
REMARK    2  A    between atoms: C6_6  and  C7_7
REMARK    3  A    between atoms: C11_13  and  O4_20
REMARK    4  A    between atoms: C13_15  and  O3_19
REMARK                            x       y       z     vdW  Elec       q    Type
REMARK                         _______ _______ _______ _____ _____    ______ ____
ROOT
ATOM      9  C   UNL     1      47.056  19.696  19.556  0.00  0.00    +0.238 C 
ATOM     10  C   UNL     1      46.183  19.204  18.392  0.00  0.00    +0.039 C 
ATOM     11  C   UNL     1      46.761  17.881  17.924  0.00  0.00    +0.399 C 
ATOM     12  C   UNL     1      48.224  17.786  17.874  0.00  0.00    -0.292 A 
ATOM     13  C   UNL     1      48.849  16.712  17.221  0.00  0.00    +0.222 A 
ATOM     16  C   UNL     1      50.231  16.639  17.199  0.00  0.00    -0.073 A 
ATOM     17  C   UNL     1      50.990  17.625  17.818  0.00  0.00    +0.198 A 
ATOM     20  C   UNL     1      50.376  18.693  18.460  0.00  0.00    -0.053 A 
ATOM     21  C   UNL     1      48.996  18.786  18.492  0.00  0.00    +0.214 A 
ATOM     22  O   UNL     1      46.049  16.950  17.606  0.00  0.00    -0.425 OA
ATOM     23  O   UNL     1      48.404  19.836  19.109  0.00  0.00    -0.298 OA
ENDROOT
BRANCH   9   8
ATOM      1  C   UNL     1      45.463  21.621  19.416  0.00  0.00    +0.049 A 
ATOM      2  C   UNL     1      44.993  22.843  19.859  0.00  0.00    -0.010 A 
ATOM      3  C   UNL     1      45.606  23.473  20.931  0.00  0.00    +0.117 A 
ATOM      6  C   UNL     1      46.691  22.876  21.556  0.00  0.00    -0.013 A 
ATOM      7  C   UNL     1      47.158  21.655  21.109  0.00  0.00    +0.060 A 
ATOM      8  C   UNL     1      46.545  21.028  20.040  0.00  0.00    -0.103 A 
BRANCH   3   4
ATOM      4  O   UNL     1      45.145  24.675  21.368  0.00  0.00    -0.499 OA
ATOM      5  H   UNL     1      44.211  24.671  21.616  0.00  0.00    +0.395 HD
ENDBRANCH   3   4
ENDBRANCH   9   8
BRANCH  13  14
ATOM     14  O   UNL     1      48.106  15.752  16.617  0.00  0.00    -0.476 OA
ATOM     15  H   UNL     1      48.264  15.671  15.666  0.00  0.00    +0.401 HD
ENDBRANCH  13  14
BRANCH  17  18
ATOM     18  O   UNL     1      52.344  17.544  17.795  0.00  0.00    -0.490 OA
ATOM     19  H   UNL     1      52.764  17.731  18.645  0.00  0.00    +0.403 HD
ENDBRANCH  17  18
TORSDOF 4
ENDMDL
