MODEL 1
REMARK VINA RESULT:      -6.3      0.000      0.000
REMARK  Name = ZINC14645876
REMARK  8 active torsions:
REMARK  status: ('A' for Active; 'I' for Inactive)
REMARK    1  A    between atoms: C1_1  and  O1_2
REMARK    2  A    between atoms: O1_2  and  C2_3
REMARK    3  A    between atoms: C6_7  and  O3_10
REMARK    4  A    between atoms: C7_8  and  O2_9
REMARK    5  A    between atoms: C9_13  and  C11_16
REMARK    6  A    between atoms: C15_20  and  O7_24
REMARK    7  A    between atoms: C16_21  and  O6_22
REMARK    8  A    between atoms: O6_22  and  C17_23
REMARK                            x       y       z     vdW  Elec       q    Type
REMARK                         _______ _______ _______ _____ _____    ______ ____
ROOT
ATOM      3  C   UNL     1      46.215  14.043  17.955  0.00  0.00    +0.185 A 
ATOM      4  C   UNL     1      45.673  14.562  19.119  0.00  0.00    -0.080 A 
ATOM      5  C   UNL     1      45.542  15.936  19.274  0.00  0.00    +0.196 A 
ATOM      6  C   UNL     1      45.956  16.788  18.234  0.00  0.00    -0.273 A 
ATOM      7  C   UNL     1      45.803  18.240  18.417  0.00  0.00    +0.433 A 
ATOM      8  C   UNL     1      45.220  18.691  19.693  0.00  0.00    -0.231 A 
ATOM     19  C   UNL     1      44.862  17.759  20.613  0.00  0.00    +0.328 A 
ATOM     20  O   UNL     1      46.142  19.032  17.555  0.00  0.00    -0.424 OA
ATOM     21  C   UNL     1      46.499  16.259  17.057  0.00  0.00    +0.215 A 
ATOM     24  O   UNL     1      45.019  16.449  20.406  0.00  0.00    -0.217 OA
ATOM     25  C   UNL     1      46.626  14.885  16.923  0.00  0.00    +0.019 A 
ENDROOT
BRANCH   8   9
ATOM      9  C   UNL     1      45.028  20.136  19.968  0.00  0.00    -0.034 A 
ATOM     10  C   UNL     1      45.991  20.848  20.680  0.00  0.00    +0.031 A 
ATOM     11  C   UNL     1      45.813  22.193  20.929  0.00  0.00    +0.029 A 
ATOM     12  C   UNL     1      44.673  22.839  20.484  0.00  0.00    +0.010 A 
ATOM     13  C   UNL     1      43.704  22.141  19.780  0.00  0.00    +0.089 A 
ATOM     16  C   UNL     1      43.877  20.788  19.518  0.00  0.00    +0.097 A 
BRANCH  13  14
ATOM     14  O   UNL     1      42.587  22.781  19.344  0.00  0.00    -0.484 OA
ATOM     15  H   UNL     1      41.979  23.037  20.051  0.00  0.00    +0.386 HD
ENDBRANCH  13  14
BRANCH  16  17
ATOM     17  O   UNL     1      42.929  20.099  18.828  0.00  0.00    -0.318 OA
ATOM     18  C   UNL     1      41.786  19.655  19.562  0.00  0.00    +0.218 C 
ENDBRANCH  16  17
ENDBRANCH   8   9
BRANCH   3   2
ATOM      1  C   UNL     1      47.520  12.098  18.362  0.00  0.00    +0.255 C 
ATOM      2  O   UNL     1      46.344  12.698  17.815  0.00  0.00    -0.292 OA
ENDBRANCH   3   2
BRANCH  21  22
ATOM     22  O   UNL     1      46.897  17.085  16.056  0.00  0.00    -0.459 OA
ATOM     23  H   UNL     1      46.355  17.025  15.257  0.00  0.00    +0.402 HD
ENDBRANCH  21  22
BRANCH  25  26
ATOM     26  O   UNL     1      47.153  14.359  15.783  0.00  0.00    -0.466 OA
ATOM     27  H   UNL     1      47.975  13.870  15.920  0.00  0.00    +0.386 HD
ENDBRANCH  25  26
TORSDOF 6
ENDMDL
MODEL 2
REMARK VINA RESULT:      -5.8      1.167      2.499
REMARK  Name = ZINC14645876
REMARK  8 active torsions:
REMARK  status: ('A' for Active; 'I' for Inactive)
REMARK    1  A    between atoms: C1_1  and  O1_2
REMARK    2  A    between atoms: O1_2  and  C2_3
REMARK    3  A    between atoms: C6_7  and  O3_10
REMARK    4  A    between atoms: C7_8  and  O2_9
REMARK    5  A    between atoms: C9_13  and  C11_16
REMARK    6  A    between atoms: C15_20  and  O7_24
REMARK    7  A    between atoms: C16_21  and  O6_22
REMARK    8  A    between atoms: O6_22  and  C17_23
REMARK                            x       y       z     vdW  Elec       q    Type
REMARK                         _______ _______ _______ _____ _____    ______ ____
ROOT
ATOM      3  C   UNL     1      46.094  14.062  18.823  0.00  0.00    +0.185 A 
ATOM      4  C   UNL     1      46.351  15.159  18.017  0.00  0.00    -0.080 A 
ATOM      5  C   UNL     1      45.972  16.430  18.428  0.00  0.00    +0.196 A 
ATOM      6  C   UNL     1      45.337  16.589  19.674  0.00  0.00    -0.273 A 
ATOM      7  C   UNL     1      44.951  17.945  20.093  0.00  0.00    +0.433 A 
ATOM      8  C   UNL     1      45.263  19.043  19.162  0.00  0.00    -0.231 A 
ATOM     19  C   UNL     1      45.880  18.749  17.989  0.00  0.00    +0.328 A 
ATOM     20  O   UNL     1      44.398  18.151  21.160  0.00  0.00    -0.424 OA
ATOM     21  C   UNL     1      45.085  15.479  20.488  0.00  0.00    +0.215 A 
ATOM     24  O   UNL     1      46.215  17.501  17.647  0.00  0.00    -0.217 OA
ATOM     25  C   UNL     1      45.466  14.217  20.057  0.00  0.00    +0.019 A 
ENDROOT
BRANCH   8   9
ATOM      9  C   UNL     1      44.910  20.444  19.498  0.00  0.00    -0.034 A 
ATOM     10  C   UNL     1      45.840  21.267  20.132  0.00  0.00    +0.031 A 
ATOM     11  C   UNL     1      45.511  22.572  20.438  0.00  0.00    +0.029 A 
ATOM     12  C   UNL     1      44.256  23.066  20.130  0.00  0.00    +0.010 A 
ATOM     13  C   UNL     1      43.320  22.255  19.506  0.00  0.00    +0.089 A 
ATOM     16  C   UNL     1      43.643  20.942  19.187  0.00  0.00    +0.097 A 
BRANCH  13  14
ATOM     14  O   UNL     1      42.089  22.745  19.204  0.00  0.00    -0.484 OA
ATOM     15  H   UNL     1      42.100  23.649  18.858  0.00  0.00    +0.386 HD
ENDBRANCH  13  14
BRANCH  16  17
ATOM     17  O   UNL     1      42.729  20.143  18.575  0.00  0.00    -0.318 OA
ATOM     18  C   UNL     1      41.672  19.626  19.387  0.00  0.00    +0.218 C 
ENDBRANCH  16  17
ENDBRANCH   8   9
BRANCH   3   2
ATOM      1  C   UNL     1      45.799  12.299  17.257  0.00  0.00    +0.255 C 
ATOM      2  O   UNL     1      46.464  12.822  18.409  0.00  0.00    -0.292 OA
ENDBRANCH   3   2
BRANCH  21  22
ATOM     22  O   UNL     1      44.473  15.636  21.689  0.00  0.00    -0.459 OA
ATOM     23  H   UNL     1      44.098  14.821  22.050  0.00  0.00    +0.402 HD
ENDBRANCH  21  22
BRANCH  25  26
ATOM     26  O   UNL     1      45.225  13.130  20.840  0.00  0.00    -0.466 OA
ATOM     27  H   UNL     1      44.418  12.651  20.610  0.00  0.00    +0.386 HD
ENDBRANCH  25  26
TORSDOF 6
ENDMDL
MODEL 3
REMARK VINA RESULT:      -5.7      1.588      2.079
REMARK  Name = ZINC14645876
REMARK  8 active torsions:
REMARK  status: ('A' for Active; 'I' for Inactive)
REMARK    1  A    between atoms: C1_1  and  O1_2
REMARK    2  A    between atoms: O1_2  and  C2_3
REMARK    3  A    between atoms: C6_7  and  O3_10
REMARK    4  A    between atoms: C7_8  and  O2_9
REMARK    5  A    between atoms: C9_13  and  C11_16
REMARK    6  A    between atoms: C15_20  and  O7_24
REMARK    7  A    between atoms: C16_21  and  O6_22
REMARK    8  A    between atoms: O6_22  and  C17_23
REMARK                            x       y       z     vdW  Elec       q    Type
REMARK                         _______ _______ _______ _____ _____    ______ ____
ROOT
ATOM      3  C   UNL     1      45.490  14.717  20.462  0.00  0.00    +0.185 A 
ATOM      4  C   UNL     1      44.846  15.607  21.305  0.00  0.00    -0.080 A 
ATOM      5  C   UNL     1      44.646  16.922  20.909  0.00  0.00    +0.196 A 
ATOM      6  C   UNL     1      45.094  17.334  19.640  0.00  0.00    -0.273 A 
ATOM      7  C   UNL     1      44.866  18.731  19.238  0.00  0.00    +0.433 A 
ATOM      8  C   UNL     1      44.177  19.598  20.209  0.00  0.00    -0.231 A 
ATOM     19  C   UNL     1      43.797  19.071  21.401  0.00  0.00    +0.328 A 
ATOM     20  O   UNL     1      45.230  19.150  18.153  0.00  0.00    -0.424 OA
ATOM     21  C   UNL     1      45.740  16.430  18.789  0.00  0.00    +0.215 A 
ATOM     24  O   UNL     1      44.024  17.795  21.727  0.00  0.00    -0.217 OA
ATOM     25  C   UNL     1      45.934  15.122  19.205  0.00  0.00    +0.019 A 
ENDROOT
BRANCH   8   9
ATOM      9  C   UNL     1      43.904  21.022  19.892  0.00  0.00    -0.034 A 
ATOM     10  C   UNL     1      44.794  22.013  20.301  0.00  0.00    +0.031 A 
ATOM     11  C   UNL     1      44.541  23.335  19.999  0.00  0.00    +0.029 A 
ATOM     12  C   UNL     1      43.399  23.685  19.301  0.00  0.00    +0.010 A 
ATOM     13  C   UNL     1      42.503  22.708  18.893  0.00  0.00    +0.089 A 
ATOM     16  C   UNL     1      42.752  21.373  19.186  0.00  0.00    +0.097 A 
BRANCH  13  14
ATOM     14  O   UNL     1      41.383  23.057  18.206  0.00  0.00    -0.484 OA
ATOM     15  H   UNL     1      41.514  23.123  17.250  0.00  0.00    +0.386 HD
ENDBRANCH  13  14
BRANCH  16  17
ATOM     17  O   UNL     1      41.875  20.412  18.789  0.00  0.00    -0.318 OA
ATOM     18  C   UNL     1      40.781  20.129  19.664  0.00  0.00    +0.218 C 
ENDBRANCH  16  17
ENDBRANCH   8   9
BRANCH   3   2
ATOM      1  C   UNL     1      46.211  13.236  22.176  0.00  0.00    +0.255 C 
ATOM      2  O   UNL     1      45.686  13.433  20.861  0.00  0.00    -0.292 OA
ENDBRANCH   3   2
BRANCH  21  22
ATOM     22  O   UNL     1      46.170  16.831  17.565  0.00  0.00    -0.459 OA
ATOM     23  H   UNL     1      45.708  17.607  17.220  0.00  0.00    +0.402 HD
ENDBRANCH  21  22
BRANCH  25  26
ATOM     26  O   UNL     1      46.561  14.234  18.385  0.00  0.00    -0.466 OA
ATOM     27  H   UNL     1      47.523  14.328  18.366  0.00  0.00    +0.386 HD
ENDBRANCH  25  26
TORSDOF 6
ENDMDL
MODEL 4
REMARK VINA RESULT:      -5.6      2.366      6.866
REMARK  Name = ZINC14645876
REMARK  8 active torsions:
REMARK  status: ('A' for Active; 'I' for Inactive)
REMARK    1  A    between atoms: C1_1  and  O1_2
REMARK    2  A    between atoms: O1_2  and  C2_3
REMARK    3  A    between atoms: C6_7  and  O3_10
REMARK    4  A    between atoms: C7_8  and  O2_9
REMARK    5  A    between atoms: C9_13  and  C11_16
REMARK    6  A    between atoms: C15_20  and  O7_24
REMARK    7  A    between atoms: C16_21  and  O6_22
REMARK    8  A    between atoms: O6_22  and  C17_23
REMARK                            x       y       z     vdW  Elec       q    Type
REMARK                         _______ _______ _______ _____ _____    ______ ____
ROOT
ATOM      3  C   UNL     1      41.179  20.119  19.823  0.00  0.00    +0.185 A 
ATOM      4  C   UNL     1      42.212  20.186  18.903  0.00  0.00    -0.080 A 
ATOM      5  C   UNL     1      43.386  19.477  19.120  0.00  0.00    +0.196 A 
ATOM      6  C   UNL     1      43.507  18.684  20.276  0.00  0.00    -0.273 A 
ATOM      7  C   UNL     1      44.757  17.936  20.483  0.00  0.00    +0.433 A 
ATOM      8  C   UNL     1      45.796  18.079  19.449  0.00  0.00    -0.231 A 
ATOM     19  C   UNL     1      45.548  18.879  18.381  0.00  0.00    +0.328 A 
ATOM     20  O   UNL     1      44.925  17.231  21.464  0.00  0.00    -0.424 OA
ATOM     21  C   UNL     1      42.458  18.614  21.201  0.00  0.00    +0.215 A 
ATOM     24  O   UNL     1      44.398  19.542  18.232  0.00  0.00    -0.217 OA
ATOM     25  C   UNL     1      41.296  19.334  20.969  0.00  0.00    +0.019 A 
ENDROOT
BRANCH   8   9
ATOM      9  C   UNL     1      47.090  17.363  19.572  0.00  0.00    -0.034 A 
ATOM     10  C   UNL     1      48.184  17.992  20.165  0.00  0.00    +0.031 A 
ATOM     11  C   UNL     1      49.384  17.322  20.284  0.00  0.00    +0.029 A 
ATOM     12  C   UNL     1      49.512  16.030  19.806  0.00  0.00    +0.010 A 
ATOM     13  C   UNL     1      48.433  15.396  19.208  0.00  0.00    +0.089 A 
ATOM     16  C   UNL     1      47.218  16.059  19.089  0.00  0.00    +0.097 A 
BRANCH  13  14
ATOM     14  O   UNL     1      48.563  14.126  18.741  0.00  0.00    -0.484 OA
ATOM     15  H   UNL     1      48.767  13.474  19.426  0.00  0.00    +0.386 HD
ENDBRANCH  13  14
BRANCH  16  17
ATOM     17  O   UNL     1      46.157  15.442  18.504  0.00  0.00    -0.318 OA
ATOM     18  C   UNL     1      45.463  14.466  19.284  0.00  0.00    +0.218 C 
ENDBRANCH  16  17
ENDBRANCH   8   9
BRANCH   3   2
ATOM      1  C   UNL     1      39.908  21.472  18.339  0.00  0.00    +0.255 C 
ATOM      2  O   UNL     1      40.037  20.821  19.605  0.00  0.00    -0.292 OA
ENDBRANCH   3   2
BRANCH  21  22
ATOM     22  O   UNL     1      42.578  17.848  22.315  0.00  0.00    -0.459 OA
ATOM     23  H   UNL     1      41.988  17.082  22.331  0.00  0.00    +0.402 HD
ENDBRANCH  21  22
BRANCH  25  26
ATOM     26  O   UNL     1      40.270  19.273  21.861  0.00  0.00    -0.466 OA
ATOM     27  H   UNL     1      40.523  18.931  22.729  0.00  0.00    +0.386 HD
ENDBRANCH  25  26
TORSDOF 6
ENDMDL
MODEL 5
REMARK VINA RESULT:      -5.5      2.978      4.838
REMARK  Name = ZINC14645876
REMARK  8 active torsions:
REMARK  status: ('A' for Active; 'I' for Inactive)
REMARK    1  A    between atoms: C1_1  and  O1_2
REMARK    2  A    between atoms: O1_2  and  C2_3
REMARK    3  A    between atoms: C6_7  and  O3_10
REMARK    4  A    between atoms: C7_8  and  O2_9
REMARK    5  A    between atoms: C9_13  and  C11_16
REMARK    6  A    between atoms: C15_20  and  O7_24
REMARK    7  A    between atoms: C16_21  and  O6_22
REMARK    8  A    between atoms: O6_22  and  C17_23
REMARK                            x       y       z     vdW  Elec       q    Type
REMARK                         _______ _______ _______ _____ _____    ______ ____
ROOT
ATOM      3  C   UNL     1      50.203  19.667  18.722  0.00  0.00    +0.185 A 
ATOM      4  C   UNL     1      49.367  20.570  19.359  0.00  0.00    -0.080 A 
ATOM      5  C   UNL     1      47.999  20.340  19.406  0.00  0.00    +0.196 A 
ATOM      6  C   UNL     1      47.476  19.176  18.811  0.00  0.00    -0.273 A 
ATOM      7  C   UNL     1      46.024  18.949  18.879  0.00  0.00    +0.433 A 
ATOM      8  C   UNL     1      45.223  19.971  19.573  0.00  0.00    -0.231 A 
ATOM     19  C   UNL     1      45.856  21.048  20.103  0.00  0.00    +0.328 A 
ATOM     20  O   UNL     1      45.509  17.961  18.383  0.00  0.00    -0.424 OA
ATOM     21  C   UNL     1      48.325  18.264  18.174  0.00  0.00    +0.215 A 
ATOM     24  O   UNL     1      47.179  21.216  20.020  0.00  0.00    -0.217 OA
ATOM     25  C   UNL     1      49.687  18.514  18.133  0.00  0.00    +0.019 A 
ENDROOT
BRANCH   8   9
ATOM      9  C   UNL     1      43.751  19.827  19.690  0.00  0.00    -0.034 A 
ATOM     10  C   UNL     1      42.913  20.401  18.735  0.00  0.00    +0.031 A 
ATOM     11  C   UNL     1      41.545  20.261  18.843  0.00  0.00    +0.029 A 
ATOM     12  C   UNL     1      40.997  19.562  19.904  0.00  0.00    +0.010 A 
ATOM     13  C   UNL     1      41.820  18.992  20.864  0.00  0.00    +0.089 A 
ATOM     16  C   UNL     1      43.199  19.122  20.762  0.00  0.00    +0.097 A 
BRANCH  13  14
ATOM     14  O   UNL     1      41.276  18.305  21.905  0.00  0.00    -0.484 OA
ATOM     15  H   UNL     1      40.545  17.725  21.653  0.00  0.00    +0.386 HD
ENDBRANCH  13  14
BRANCH  16  17
ATOM     17  O   UNL     1      44.009  18.565  21.701  0.00  0.00    -0.318 OA
ATOM     18  C   UNL     1      44.240  17.158  21.607  0.00  0.00    +0.218 C 
ENDBRANCH  16  17
ENDBRANCH   8   9
BRANCH   3   2
ATOM      1  C   UNL     1      51.985  21.190  19.113  0.00  0.00    +0.255 C 
ATOM      2  O   UNL     1      51.539  19.904  18.677  0.00  0.00    -0.292 OA
ENDBRANCH   3   2
BRANCH  21  22
ATOM     22  O   UNL     1      47.817  17.142  17.601  0.00  0.00    -0.459 OA
ATOM     23  H   UNL     1      48.244  16.896  16.770  0.00  0.00    +0.402 HD
ENDBRANCH  21  22
BRANCH  25  26
ATOM     26  O   UNL     1      50.522  17.633  17.515  0.00  0.00    -0.466 OA
ATOM     27  H   UNL     1      50.155  16.744  17.420  0.00  0.00    +0.386 HD
ENDBRANCH  25  26
TORSDOF 6
ENDMDL
MODEL 6
REMARK VINA RESULT:      -5.4      1.390      2.171
REMARK  Name = ZINC14645876
REMARK  8 active torsions:
REMARK  status: ('A' for Active; 'I' for Inactive)
REMARK    1  A    between atoms: C1_1  and  O1_2
REMARK    2  A    between atoms: O1_2  and  C2_3
REMARK    3  A    between atoms: C6_7  and  O3_10
REMARK    4  A    between atoms: C7_8  and  O2_9
REMARK    5  A    between atoms: C9_13  and  C11_16
REMARK    6  A    between atoms: C15_20  and  O7_24
REMARK    7  A    between atoms: C16_21  and  O6_22
REMARK    8  A    between atoms: O6_22  and  C17_23
REMARK                            x       y       z     vdW  Elec       q    Type
REMARK                         _______ _______ _______ _____ _____    ______ ____
ROOT
ATOM      3  C   UNL     1      46.258  14.292  18.003  0.00  0.00    +0.185 A 
ATOM      4  C   UNL     1      45.638  14.788  19.138  0.00  0.00    -0.080 A 
ATOM      5  C   UNL     1      45.464  16.157  19.295  0.00  0.00    +0.196 A 
ATOM      6  C   UNL     1      45.912  17.028  18.284  0.00  0.00    -0.273 A 
ATOM      7  C   UNL     1      45.711  18.473  18.468  0.00  0.00    +0.433 A 
ATOM      8  C   UNL     1      45.047  18.900  19.712  0.00  0.00    -0.231 A 
ATOM     19  C   UNL     1      44.664  17.952  20.605  0.00  0.00    +0.328 A 
ATOM     20  O   UNL     1      46.076  19.280  17.630  0.00  0.00    -0.424 OA
ATOM     21  C   UNL     1      46.533  16.521  17.136  0.00  0.00    +0.215 A 
ATOM     24  O   UNL     1      44.866  16.648  20.399  0.00  0.00    -0.217 OA
ATOM     25  C   UNL     1      46.702  15.152  17.001  0.00  0.00    +0.019 A 
ENDROOT
BRANCH   8   9
ATOM      9  C   UNL     1      44.802  20.337  19.985  0.00  0.00    -0.034 A 
ATOM     10  C   UNL     1      43.638  20.949  19.523  0.00  0.00    +0.031 A 
ATOM     11  C   UNL     1      43.410  22.284  19.783  0.00  0.00    +0.029 A 
ATOM     12  C   UNL     1      44.339  23.026  20.491  0.00  0.00    +0.010 A 
ATOM     13  C   UNL     1      45.504  22.430  20.950  0.00  0.00    +0.089 A 
ATOM     16  C   UNL     1      45.741  21.084  20.700  0.00  0.00    +0.097 A 
BRANCH  13  14
ATOM     14  O   UNL     1      46.413  23.163  21.647  0.00  0.00    -0.484 OA
ATOM     15  H   UNL     1      46.450  24.094  21.387  0.00  0.00    +0.386 HD
ENDBRANCH  13  14
BRANCH  16  17
ATOM     17  O   UNL     1      46.882  20.497  21.148  0.00  0.00    -0.318 OA
ATOM     18  C   UNL     1      48.058  20.674  20.355  0.00  0.00    +0.218 C 
ENDBRANCH  16  17
ENDBRANCH   8   9
BRANCH   3   2
ATOM      1  C   UNL     1      45.357  12.221  17.260  0.00  0.00    +0.255 C 
ATOM      2  O   UNL     1      46.428  12.952  17.862  0.00  0.00    -0.292 OA
ENDBRANCH   3   2
BRANCH  21  22
ATOM     22  O   UNL     1      46.963  17.364  16.163  0.00  0.00    -0.459 OA
ATOM     23  H   UNL     1      46.263  17.675  15.573  0.00  0.00    +0.402 HD
ENDBRANCH  21  22
BRANCH  25  26
ATOM     26  O   UNL     1      47.304  14.648  15.889  0.00  0.00    -0.466 OA
ATOM     27  H   UNL     1      48.124  15.100  15.646  0.00  0.00    +0.386 HD
ENDBRANCH  25  26
TORSDOF 6
ENDMDL
MODEL 7
REMARK VINA RESULT:      -5.4      2.884      6.847
REMARK  Name = ZINC14645876
REMARK  8 active torsions:
REMARK  status: ('A' for Active; 'I' for Inactive)
REMARK    1  A    between atoms: C1_1  and  O1_2
REMARK    2  A    between atoms: O1_2  and  C2_3
REMARK    3  A    between atoms: C6_7  and  O3_10
REMARK    4  A    between atoms: C7_8  and  O2_9
REMARK    5  A    between atoms: C9_13  and  C11_16
REMARK    6  A    between atoms: C15_20  and  O7_24
REMARK    7  A    between atoms: C16_21  and  O6_22
REMARK    8  A    between atoms: O6_22  and  C17_23
REMARK                            x       y       z     vdW  Elec       q    Type
REMARK                         _______ _______ _______ _____ _____    ______ ____
ROOT
ATOM      3  C   UNL     1      41.167  20.147  19.821  0.00  0.00    +0.185 A 
ATOM      4  C   UNL     1      42.194  20.230  18.896  0.00  0.00    -0.080 A 
ATOM      5  C   UNL     1      43.370  19.518  19.094  0.00  0.00    +0.196 A 
ATOM      6  C   UNL     1      43.498  18.706  20.236  0.00  0.00    -0.273 A 
ATOM      7  C   UNL     1      44.750  17.956  20.423  0.00  0.00    +0.433 A 
ATOM      8  C   UNL     1      45.782  18.116  19.385  0.00  0.00    -0.231 A 
ATOM     19  C   UNL     1      45.527  18.933  18.331  0.00  0.00    +0.328 A 
ATOM     20  O   UNL     1      44.924  17.235  21.391  0.00  0.00    -0.424 OA
ATOM     21  C   UNL     1      42.456  18.622  21.166  0.00  0.00    +0.215 A 
ATOM     24  O   UNL     1      44.375  19.597  18.200  0.00  0.00    -0.217 OA
ATOM     25  C   UNL     1      41.292  19.344  20.953  0.00  0.00    +0.019 A 
ENDROOT
BRANCH   8   9
ATOM      9  C   UNL     1      47.077  17.399  19.488  0.00  0.00    -0.034 A 
ATOM     10  C   UNL     1      47.227  16.138  18.912  0.00  0.00    +0.031 A 
ATOM     11  C   UNL     1      48.433  15.476  19.004  0.00  0.00    +0.029 A 
ATOM     12  C   UNL     1      49.496  16.053  19.678  0.00  0.00    +0.010 A 
ATOM     13  C   UNL     1      49.357  17.303  20.261  0.00  0.00    +0.089 A 
ATOM     16  C   UNL     1      48.148  17.982  20.168  0.00  0.00    +0.097 A 
BRANCH  13  14
ATOM     14  O   UNL     1      50.404  17.866  20.921  0.00  0.00    -0.484 OA
ATOM     15  H   UNL     1      50.726  17.341  21.667  0.00  0.00    +0.386 HD
ENDBRANCH  13  14
BRANCH  16  17
ATOM     17  O   UNL     1      48.008  19.208  20.739  0.00  0.00    -0.318 OA
ATOM     18  C   UNL     1      48.503  20.327  20.001  0.00  0.00    +0.218 C 
ENDBRANCH  16  17
ENDBRANCH   8   9
BRANCH   3   2
ATOM      1  C   UNL     1      39.841  21.440  18.331  0.00  0.00    +0.255 C 
ATOM      2  O   UNL     1      40.023  20.852  19.621  0.00  0.00    -0.292 OA
ENDBRANCH   3   2
BRANCH  21  22
ATOM     22  O   UNL     1      42.583  17.837  22.267  0.00  0.00    -0.459 OA
ATOM     23  H   UNL     1      42.332  16.915  22.124  0.00  0.00    +0.402 HD
ENDBRANCH  21  22
BRANCH  25  26
ATOM     26  O   UNL     1      40.271  19.269  21.851  0.00  0.00    -0.466 OA
ATOM     27  H   UNL     1      40.421  18.634  22.564  0.00  0.00    +0.386 HD
ENDBRANCH  25  26
TORSDOF 6
ENDMDL
MODEL 8
REMARK VINA RESULT:      -5.3      2.805      6.491
REMARK  Name = ZINC14645876
REMARK  8 active torsions:
REMARK  status: ('A' for Active; 'I' for Inactive)
REMARK    1  A    between atoms: C1_1  and  O1_2
REMARK    2  A    between atoms: O1_2  and  C2_3
REMARK    3  A    between atoms: C6_7  and  O3_10
REMARK    4  A    between atoms: C7_8  and  O2_9
REMARK    5  A    between atoms: C9_13  and  C11_16
REMARK    6  A    between atoms: C15_20  and  O7_24
REMARK    7  A    between atoms: C16_21  and  O6_22
REMARK    8  A    between atoms: O6_22  and  C17_23
REMARK                            x       y       z     vdW  Elec       q    Type
REMARK                         _______ _______ _______ _____ _____    ______ ____
ROOT
ATOM      3  C   UNL     1      41.601  20.109  19.803  0.00  0.00    +0.185 A 
ATOM      4  C   UNL     1      42.565  20.820  19.108  0.00  0.00    -0.080 A 
ATOM      5  C   UNL     1      43.912  20.585  19.347  0.00  0.00    +0.196 A 
ATOM      6  C   UNL     1      44.284  19.611  20.293  0.00  0.00    -0.273 A 
ATOM      7  C   UNL     1      45.716  19.374  20.526  0.00  0.00    +0.433 A 
ATOM      8  C   UNL     1      46.661  20.186  19.740  0.00  0.00    -0.231 A 
ATOM     19  C   UNL     1      46.167  21.092  18.859  0.00  0.00    +0.328 A 
ATOM     20  O   UNL     1      46.104  18.545  21.332  0.00  0.00    -0.424 OA
ATOM     21  C   UNL     1      43.306  18.891  20.990  0.00  0.00    +0.215 A 
ATOM     24  O   UNL     1      44.856  21.276  18.677  0.00  0.00    -0.217 OA
ATOM     25  C   UNL     1      41.966  19.144  20.740  0.00  0.00    +0.019 A 
ENDROOT
BRANCH   8   9
ATOM      9  C   UNL     1      48.126  20.017  19.908  0.00  0.00    -0.034 A 
ATOM     10  C   UNL     1      48.817  20.790  20.840  0.00  0.00    +0.031 A 
ATOM     11  C   UNL     1      50.178  20.626  20.998  0.00  0.00    +0.029 A 
ATOM     12  C   UNL     1      50.864  19.705  20.227  0.00  0.00    +0.010 A 
ATOM     13  C   UNL     1      50.189  18.935  19.292  0.00  0.00    +0.089 A 
ATOM     16  C   UNL     1      48.818  19.087  19.129  0.00  0.00    +0.097 A 
BRANCH  13  14
ATOM     14  O   UNL     1      50.868  18.031  18.537  0.00  0.00    -0.484 OA
ATOM     15  H   UNL     1      51.184  18.382  17.694  0.00  0.00    +0.386 HD
ENDBRANCH  13  14
BRANCH  16  17
ATOM     17  O   UNL     1      48.152  18.334  18.213  0.00  0.00    -0.318 OA
ATOM     18  C   UNL     1      47.807  17.001  18.596  0.00  0.00    +0.218 C 
ENDBRANCH  16  17
ENDBRANCH   8   9
BRANCH   3   2
ATOM      1  C   UNL     1      39.974  21.417  18.667  0.00  0.00    +0.255 C 
ATOM      2  O   UNL     1      40.285  20.350  19.565  0.00  0.00    -0.292 OA
ENDBRANCH   3   2
BRANCH  21  22
ATOM     22  O   UNL     1      43.668  17.952  21.901  0.00  0.00    -0.459 OA
ATOM     23  H   UNL     1      44.591  17.676  21.836  0.00  0.00    +0.402 HD
ENDBRANCH  21  22
BRANCH  25  26
ATOM     26  O   UNL     1      41.007  18.450  21.412  0.00  0.00    -0.466 OA
ATOM     27  H   UNL     1      40.822  18.790  22.297  0.00  0.00    +0.386 HD
ENDBRANCH  25  26
TORSDOF 6
ENDMDL
MODEL 9
REMARK VINA RESULT:      -5.3      3.126      4.610
REMARK  Name = ZINC14645876
REMARK  8 active torsions:
REMARK  status: ('A' for Active; 'I' for Inactive)
REMARK    1  A    between atoms: C1_1  and  O1_2
REMARK    2  A    between atoms: O1_2  and  C2_3
REMARK    3  A    between atoms: C6_7  and  O3_10
REMARK    4  A    between atoms: C7_8  and  O2_9
REMARK    5  A    between atoms: C9_13  and  C11_16
REMARK    6  A    between atoms: C15_20  and  O7_24
REMARK    7  A    between atoms: C16_21  and  O6_22
REMARK    8  A    between atoms: O6_22  and  C17_23
REMARK                            x       y       z     vdW  Elec       q    Type
REMARK                         _______ _______ _______ _____ _____    ______ ____
ROOT
ATOM      3  C   UNL     1      50.441  18.218  17.591  0.00  0.00    +0.185 A 
ATOM      4  C   UNL     1      49.260  17.580  17.247  0.00  0.00    -0.080 A 
ATOM      5  C   UNL     1      48.120  17.761  18.019  0.00  0.00    +0.196 A 
ATOM      6  C   UNL     1      48.177  18.605  19.143  0.00  0.00    -0.273 A 
ATOM      7  C   UNL     1      46.956  18.787  19.943  0.00  0.00    +0.433 A 
ATOM      8  C   UNL     1      45.754  18.061  19.496  0.00  0.00    -0.231 A 
ATOM     19  C   UNL     1      45.838  17.278  18.391  0.00  0.00    +0.328 A 
ATOM     20  O   UNL     1      46.938  19.505  20.928  0.00  0.00    -0.424 OA
ATOM     21  C   UNL     1      49.371  19.252  19.484  0.00  0.00    +0.215 A 
ATOM     24  O   UNL     1      46.969  17.140  17.693  0.00  0.00    -0.217 OA
ATOM     25  C   UNL     1      50.499  19.055  18.704  0.00  0.00    +0.019 A 
ENDROOT
BRANCH   8   9
ATOM      9  C   UNL     1      44.476  18.182  20.240  0.00  0.00    -0.034 A 
ATOM     10  C   UNL     1      44.191  17.309  21.288  0.00  0.00    +0.031 A 
ATOM     11  C   UNL     1      43.005  17.428  21.982  0.00  0.00    +0.029 A 
ATOM     12  C   UNL     1      42.089  18.405  21.636  0.00  0.00    +0.010 A 
ATOM     13  C   UNL     1      42.359  19.276  20.591  0.00  0.00    +0.089 A 
ATOM     16  C   UNL     1      43.553  19.169  19.890  0.00  0.00    +0.097 A 
BRANCH  13  14
ATOM     14  O   UNL     1      41.456  20.236  20.255  0.00  0.00    -0.484 OA
ATOM     15  H   UNL     1      41.856  21.063  19.951  0.00  0.00    +0.386 HD
ENDBRANCH  13  14
BRANCH  16  17
ATOM     17  O   UNL     1      43.822  20.022  18.865  0.00  0.00    -0.318 OA
ATOM     18  C   UNL     1      44.363  21.299  19.208  0.00  0.00    +0.218 C 
ENDBRANCH  16  17
ENDBRANCH   8   9
BRANCH   3   2
ATOM      1  C   UNL     1      51.764  18.946  15.756  0.00  0.00    +0.255 C 
ATOM      2  O   UNL     1      51.552  18.031  16.833  0.00  0.00    -0.292 OA
ENDBRANCH   3   2
BRANCH  21  22
ATOM     22  O   UNL     1      49.422  20.066  20.569  0.00  0.00    -0.459 OA
ATOM     23  H   UNL     1      50.266  20.044  21.039  0.00  0.00    +0.402 HD
ENDBRANCH  21  22
BRANCH  25  26
ATOM     26  O   UNL     1      51.666  19.679  19.026  0.00  0.00    -0.466 OA
ATOM     27  H   UNL     1      51.570  20.372  19.693  0.00  0.00    +0.386 HD
ENDBRANCH  25  26
TORSDOF 6
ENDMDL
