MODEL 1
REMARK VINA RESULT:      -6.4      0.000      0.000
REMARK  Name = ZINC05839739
REMARK  4 active torsions:
REMARK  status: ('A' for Active; 'I' for Inactive)
REMARK    1  A    between atoms: C1_1  and  C2_2
REMARK    2  A    between atoms: C12_15  and  O5_27
REMARK    3  A    between atoms: C18_22  and  C19_23
REMARK    4  A    between atoms: C18_22  and  C20_24
REMARK                            x       y       z     vdW  Elec       q    Type
REMARK                         _______ _______ _______ _____ _____    ______ ____
ROOT
ATOM      1  C   UNL     1      48.516  21.166  20.638  0.00  0.00    +0.080 C 
ATOM      2  C   UNL     1      47.360  20.219  20.964  0.00  0.00    +0.115 C 
ATOM      3  C   UNL     1      47.848  18.853  21.512  0.00  0.00    +0.034 C 
ATOM      4  C   UNL     1      46.766  18.383  22.505  0.00  0.00    +0.021 C 
ATOM      5  C   UNL     1      45.658  19.473  22.465  0.00  0.00    +0.049 C 
ATOM      6  C   UNL     1      44.757  19.099  21.269  0.00  0.00    -0.137 C 
ATOM      9  C   UNL     1      43.290  19.295  21.655  0.00  0.00    +0.073 C 
ATOM     10  C   UNL     1      45.126  20.029  20.086  0.00  0.00    +0.142 C 
ATOM     11  C   UNL     1      44.320  19.695  18.864  0.00  0.00    +0.413 C 
ATOM     12  O   UNL     1      44.782  18.977  18.003  0.00  0.00    -0.401 OA
ATOM     13  C   UNL     1      42.962  20.249  18.722  0.00  0.00    -0.133 A 
ATOM     14  C   UNL     1      41.929  19.526  18.139  0.00  0.00    +0.099 A 
ATOM     15  C   UNL     1      40.677  20.100  18.020  0.00  0.00    +0.019 A 
ATOM     16  C   UNL     1      40.442  21.392  18.479  0.00  0.00    +0.135 A 
ATOM     19  C   UNL     1      41.467  22.128  19.070  0.00  0.00    +0.053 A 
ATOM     20  C   UNL     1      42.719  21.563  19.194  0.00  0.00    -0.101 A 
ATOM     21  C   UNL     1      43.864  22.281  19.818  0.00  0.00    +0.449 C 
ATOM     22  O   UNL     1      43.983  23.490  19.743  0.00  0.00    -0.420 OA
ATOM     23  C   UNL     1      44.836  21.453  20.526  0.00  0.00    -0.229 C 
ATOM     24  C   UNL     1      45.544  21.830  21.597  0.00  0.00    +0.123 C 
ATOM     25  O   UNL     1      46.530  19.955  19.819  0.00  0.00    -0.333 OA
ATOM     26  C   UNL     1      46.468  20.748  22.114  0.00  0.00    +0.022 C 
ENDROOT
BRANCH   6   7
ATOM      7  C   UNL     1      44.994  17.660  20.890  0.00  0.00    +0.461 C 
ATOM      8  O   UNL     1      44.068  16.887  20.850  0.00  0.00    -0.443 OA
ENDBRANCH   6   7
BRANCH  16  17
ATOM     17  O   UNL     1      39.207  21.938  18.351  0.00  0.00    -0.492 OA
ATOM     18  H   UNL     1      38.753  21.697  17.532  0.00  0.00    +0.401 HD
ENDBRANCH  16  17
TORSDOF 2
ENDMDL
MODEL 2
REMARK VINA RESULT:      -5.8      3.381      5.945
REMARK  Name = ZINC05839739
REMARK  4 active torsions:
REMARK  status: ('A' for Active; 'I' for Inactive)
REMARK    1  A    between atoms: C1_1  and  C2_2
REMARK    2  A    between atoms: C12_15  and  O5_27
REMARK    3  A    between atoms: C18_22  and  C19_23
REMARK    4  A    between atoms: C18_22  and  C20_24
REMARK                            x       y       z     vdW  Elec       q    Type
REMARK                         _______ _______ _______ _____ _____    ______ ____
ROOT
ATOM      1  C   UNL     1      50.492  15.350  18.933  0.00  0.00    +0.080 C 
ATOM      2  C   UNL     1      50.782  16.850  19.012  0.00  0.00    +0.115 C 
ATOM      3  C   UNL     1      52.265  17.151  19.351  0.00  0.00    +0.034 C 
ATOM      4  C   UNL     1      52.606  18.470  18.628  0.00  0.00    +0.021 C 
ATOM      5  C   UNL     1      51.291  18.918  17.930  0.00  0.00    +0.049 C 
ATOM      6  C   UNL     1      50.495  19.686  19.007  0.00  0.00    -0.137 C 
ATOM      9  C   UNL     1      49.863  20.931  18.383  0.00  0.00    +0.073 C 
ATOM     10  C   UNL     1      49.390  18.741  19.546  0.00  0.00    +0.142 C 
ATOM     11  C   UNL     1      48.598  19.403  20.636  0.00  0.00    +0.413 C 
ATOM     12  O   UNL     1      48.869  19.199  21.800  0.00  0.00    -0.401 OA
ATOM     13  C   UNL     1      47.488  20.302  20.275  0.00  0.00    -0.133 A 
ATOM     14  C   UNL     1      47.198  21.446  21.011  0.00  0.00    +0.099 A 
ATOM     15  C   UNL     1      46.137  22.247  20.634  0.00  0.00    +0.019 A 
ATOM     16  C   UNL     1      45.358  21.921  19.529  0.00  0.00    +0.135 A 
ATOM     19  C   UNL     1      45.638  20.780  18.780  0.00  0.00    +0.053 A 
ATOM     20  C   UNL     1      46.697  19.975  19.147  0.00  0.00    -0.101 A 
ATOM     21  C   UNL     1      47.064  18.743  18.396  0.00  0.00    +0.449 C 
ATOM     22  O   UNL     1      46.230  18.063  17.829  0.00  0.00    -0.420 OA
ATOM     23  C   UNL     1      48.483  18.398  18.379  0.00  0.00    -0.229 C 
ATOM     24  C   UNL     1      49.119  17.778  17.379  0.00  0.00    +0.123 C 
ATOM     25  O   UNL     1      49.969  17.512  19.997  0.00  0.00    -0.333 OA
ATOM     26  C   UNL     1      50.593  17.562  17.650  0.00  0.00    +0.022 C 
ENDROOT
BRANCH   6   7
ATOM      7  C   UNL     1      51.420  20.091  20.124  0.00  0.00    +0.461 C 
ATOM      8  O   UNL     1      51.534  21.256  20.420  0.00  0.00    -0.443 OA
ENDBRANCH   6   7
BRANCH  16  17
ATOM     17  O   UNL     1      44.319  22.719  19.178  0.00  0.00    -0.492 OA
ATOM     18  H   UNL     1      44.575  23.494  18.659  0.00  0.00    +0.401 HD
ENDBRANCH  16  17
TORSDOF 2
ENDMDL
MODEL 3
REMARK VINA RESULT:      -5.8      3.084      6.218
REMARK  Name = ZINC05839739
REMARK  4 active torsions:
REMARK  status: ('A' for Active; 'I' for Inactive)
REMARK    1  A    between atoms: C1_1  and  C2_2
REMARK    2  A    between atoms: C12_15  and  O5_27
REMARK    3  A    between atoms: C18_22  and  C19_23
REMARK    4  A    between atoms: C18_22  and  C20_24
REMARK                            x       y       z     vdW  Elec       q    Type
REMARK                         _______ _______ _______ _____ _____    ______ ____
ROOT
ATOM      1  C   UNL     1      45.446  21.509  21.771  0.00  0.00    +0.080 C 
ATOM      2  C   UNL     1      45.316  20.281  20.868  0.00  0.00    +0.115 C 
ATOM      3  C   UNL     1      43.979  19.526  21.081  0.00  0.00    +0.034 C 
ATOM      4  C   UNL     1      43.604  18.930  19.709  0.00  0.00    +0.021 C 
ATOM      5  C   UNL     1      44.766  19.318  18.753  0.00  0.00    +0.049 C 
ATOM      6  C   UNL     1      45.847  18.235  18.956  0.00  0.00    -0.137 C 
ATOM      9  C   UNL     1      46.433  17.838  17.600  0.00  0.00    +0.073 C 
ATOM     10  C   UNL     1      46.955  18.831  19.861  0.00  0.00    +0.142 C 
ATOM     11  C   UNL     1      48.025  17.818  20.145  0.00  0.00    +0.413 C 
ATOM     12  O   UNL     1      48.002  17.175  21.173  0.00  0.00    -0.401 OA
ATOM     13  C   UNL     1      49.103  17.613  19.162  0.00  0.00    -0.133 A 
ATOM     14  C   UNL     1      49.649  16.358  18.918  0.00  0.00    +0.099 A 
ATOM     15  C   UNL     1      50.668  16.227  17.993  0.00  0.00    +0.019 A 
ATOM     16  C   UNL     1      51.150  17.335  17.305  0.00  0.00    +0.135 A 
ATOM     19  C   UNL     1      50.610  18.599  17.536  0.00  0.00    +0.053 A 
ATOM     20  C   UNL     1      49.591  18.740  18.456  0.00  0.00    -0.101 A 
ATOM     21  C   UNL     1      48.958  20.054  18.754  0.00  0.00    +0.449 C 
ATOM     22  O   UNL     1      49.582  21.096  18.693  0.00  0.00    -0.420 OA
ATOM     23  C   UNL     1      47.546  20.019  19.124  0.00  0.00    -0.229 C 
ATOM     24  C   UNL     1      46.651  20.979  18.862  0.00  0.00    +0.123 C 
ATOM     25  O   UNL     1      46.383  19.338  21.072  0.00  0.00    -0.333 OA
ATOM     26  C   UNL     1      45.262  20.653  19.366  0.00  0.00    +0.022 C 
ENDROOT
BRANCH   6   7
ATOM      7  C   UNL     1      45.232  17.029  19.617  0.00  0.00    +0.461 C 
ATOM      8  O   UNL     1      45.394  15.932  19.139  0.00  0.00    -0.443 OA
ENDBRANCH   6   7
BRANCH  16  17
ATOM     17  O   UNL     1      52.152  17.184  16.403  0.00  0.00    -0.492 OA
ATOM     18  H   UNL     1      52.560  16.307  16.410  0.00  0.00    +0.401 HD
ENDBRANCH  16  17
TORSDOF 2
ENDMDL
MODEL 4
REMARK VINA RESULT:      -5.7      4.296      6.881
REMARK  Name = ZINC05839739
REMARK  4 active torsions:
REMARK  status: ('A' for Active; 'I' for Inactive)
REMARK    1  A    between atoms: C1_1  and  C2_2
REMARK    2  A    between atoms: C12_15  and  O5_27
REMARK    3  A    between atoms: C18_22  and  C19_23
REMARK    4  A    between atoms: C18_22  and  C20_24
REMARK                            x       y       z     vdW  Elec       q    Type
REMARK                         _______ _______ _______ _____ _____    ______ ____
ROOT
ATOM      1  C   UNL     1      46.593  17.226  22.415  0.00  0.00    +0.080 C 
ATOM      2  C   UNL     1      46.863  16.833  20.962  0.00  0.00    +0.115 C 
ATOM      3  C   UNL     1      46.346  15.411  20.626  0.00  0.00    +0.034 C 
ATOM      4  C   UNL     1      45.916  15.453  19.145  0.00  0.00    +0.021 C 
ATOM      5  C   UNL     1      46.244  16.891  18.655  0.00  0.00    +0.049 C 
ATOM      6  C   UNL     1      47.732  16.858  18.247  0.00  0.00    -0.137 C 
ATOM      9  C   UNL     1      47.923  17.639  16.946  0.00  0.00    +0.073 C 
ATOM     10  C   UNL     1      48.553  17.514  19.388  0.00  0.00    +0.142 C 
ATOM     11  C   UNL     1      50.023  17.477  19.086  0.00  0.00    +0.413 C 
ATOM     12  O   UNL     1      50.722  16.599  19.545  0.00  0.00    -0.401 OA
ATOM     13  C   UNL     1      50.608  18.520  18.225  0.00  0.00    -0.133 A 
ATOM     14  C   UNL     1      51.632  18.245  17.326  0.00  0.00    +0.099 A 
ATOM     15  C   UNL     1      52.152  19.266  16.553  0.00  0.00    +0.019 A 
ATOM     16  C   UNL     1      51.661  20.562  16.663  0.00  0.00    +0.135 A 
ATOM     19  C   UNL     1      50.631  20.853  17.556  0.00  0.00    +0.053 A 
ATOM     20  C   UNL     1      50.105  19.840  18.332  0.00  0.00    -0.101 A 
ATOM     21  C   UNL     1      49.001  20.068  19.304  0.00  0.00    +0.449 C 
ATOM     22  O   UNL     1      48.871  21.125  19.894  0.00  0.00    -0.420 OA
ATOM     23  C   UNL     1      48.083  18.951  19.510  0.00  0.00    -0.229 C 
ATOM     24  C   UNL     1      46.783  19.060  19.808  0.00  0.00    +0.123 C 
ATOM     25  O   UNL     1      48.263  16.874  20.635  0.00  0.00    -0.333 OA
ATOM     26  C   UNL     1      46.090  17.722  19.955  0.00  0.00    +0.022 C 
ENDROOT
BRANCH   6   7
ATOM      7  C   UNL     1      48.169  15.430  18.051  0.00  0.00    +0.461 C 
ATOM      8  O   UNL     1      48.637  15.083  16.993  0.00  0.00    -0.443 OA
ENDBRANCH   6   7
BRANCH  16  17
ATOM     17  O   UNL     1      52.186  21.550  15.896  0.00  0.00    -0.492 OA
ATOM     18  H   UNL     1      52.809  22.123  16.364  0.00  0.00    +0.401 HD
ENDBRANCH  16  17
TORSDOF 2
ENDMDL
MODEL 5
REMARK VINA RESULT:      -5.5      2.236      5.224
REMARK  Name = ZINC05839739
REMARK  4 active torsions:
REMARK  status: ('A' for Active; 'I' for Inactive)
REMARK    1  A    between atoms: C1_1  and  C2_2
REMARK    2  A    between atoms: C12_15  and  O5_27
REMARK    3  A    between atoms: C18_22  and  C19_23
REMARK    4  A    between atoms: C18_22  and  C20_24
REMARK                            x       y       z     vdW  Elec       q    Type
REMARK                         _______ _______ _______ _____ _____    ______ ____
ROOT
ATOM      1  C   UNL     1      47.231  22.537  22.130  0.00  0.00    +0.080 C 
ATOM      2  C   UNL     1      46.138  21.872  21.292  0.00  0.00    +0.115 C 
ATOM      3  C   UNL     1      44.796  22.648  21.343  0.00  0.00    +0.034 C 
ATOM      4  C   UNL     1      44.131  22.438  19.968  0.00  0.00    +0.021 C 
ATOM      5  C   UNL     1      45.089  21.504  19.178  0.00  0.00    +0.049 C 
ATOM      6  C   UNL     1      44.712  20.070  19.606  0.00  0.00    -0.137 C 
ATOM      9  C   UNL     1      44.712  19.155  18.381  0.00  0.00    +0.073 C 
ATOM     10  C   UNL     1      45.768  19.586  20.632  0.00  0.00    +0.142 C 
ATOM     11  C   UNL     1      45.444  18.209  21.134  0.00  0.00    +0.413 C 
ATOM     12  O   UNL     1      44.852  18.063  22.183  0.00  0.00    -0.401 OA
ATOM     13  C   UNL     1      45.851  17.038  20.340  0.00  0.00    -0.133 A 
ATOM     14  C   UNL     1      45.064  15.894  20.256  0.00  0.00    +0.099 A 
ATOM     15  C   UNL     1      45.503  14.819  19.506  0.00  0.00    +0.019 A 
ATOM     16  C   UNL     1      46.719  14.870  18.834  0.00  0.00    +0.135 A 
ATOM     19  C   UNL     1      47.517  16.010  18.906  0.00  0.00    +0.053 A 
ATOM     20  C   UNL     1      47.088  17.089  19.651  0.00  0.00    -0.101 A 
ATOM     21  C   UNL     1      47.879  18.345  19.772  0.00  0.00    +0.449 C 
ATOM     22  O   UNL     1      49.095  18.344  19.745  0.00  0.00    -0.420 OA
ATOM     23  C   UNL     1      47.111  19.577  19.925  0.00  0.00    -0.229 C 
ATOM     24  C   UNL     1      47.480  20.782  19.474  0.00  0.00    +0.123 C 
ATOM     25  O   UNL     1      45.874  20.522  21.710  0.00  0.00    -0.333 OA
ATOM     26  C   UNL     1      46.471  21.869  19.780  0.00  0.00    +0.022 C 
ENDROOT
BRANCH   6   7
ATOM      7  C   UNL     1      43.344  20.076  20.236  0.00  0.00    +0.461 C 
ATOM      8  O   UNL     1      42.474  19.363  19.795  0.00  0.00    -0.443 OA
ENDBRANCH   6   7
BRANCH  16  17
ATOM     17  O   UNL     1      47.132  13.803  18.106  0.00  0.00    -0.492 OA
ATOM     18  H   UNL     1      48.093  13.690  18.082  0.00  0.00    +0.401 HD
ENDBRANCH  16  17
TORSDOF 2
ENDMDL
MODEL 6
REMARK VINA RESULT:      -5.5     21.659     23.793
REMARK  Name = ZINC05839739
REMARK  4 active torsions:
REMARK  status: ('A' for Active; 'I' for Inactive)
REMARK    1  A    between atoms: C1_1  and  C2_2
REMARK    2  A    between atoms: C12_15  and  O5_27
REMARK    3  A    between atoms: C18_22  and  C19_23
REMARK    4  A    between atoms: C18_22  and  C20_24
REMARK                            x       y       z     vdW  Elec       q    Type
REMARK                         _______ _______ _______ _____ _____    ______ ____
ROOT
ATOM      1  C   UNL     1      51.214  34.469   0.994  0.00  0.00    +0.080 C 
ATOM      2  C   UNL     1      51.598  34.153   2.441  0.00  0.00    +0.115 C 
ATOM      3  C   UNL     1      50.622  34.787   3.465  0.00  0.00    +0.034 C 
ATOM      4  C   UNL     1      50.574  33.817   4.663  0.00  0.00    +0.021 C 
ATOM      5  C   UNL     1      51.564  32.671   4.313  0.00  0.00    +0.049 C 
ATOM      6  C   UNL     1      52.954  33.179   4.751  0.00  0.00    -0.137 C 
ATOM      9  C   UNL     1      53.722  32.045   5.430  0.00  0.00    +0.073 C 
ATOM     10  C   UNL     1      53.710  33.650   3.482  0.00  0.00    +0.142 C 
ATOM     11  C   UNL     1      55.060  34.205   3.832  0.00  0.00    +0.413 C 
ATOM     12  O   UNL     1      55.216  35.401   3.958  0.00  0.00    -0.401 OA
ATOM     13  C   UNL     1      56.192  33.282   4.021  0.00  0.00    -0.133 A 
ATOM     14  C   UNL     1      57.175  33.507   4.977  0.00  0.00    +0.099 A 
ATOM     15  C   UNL     1      58.222  32.614   5.101  0.00  0.00    +0.019 A 
ATOM     16  C   UNL     1      58.301  31.493   4.282  0.00  0.00    +0.135 A 
ATOM     19  C   UNL     1      57.321  31.251   3.321  0.00  0.00    +0.053 A 
ATOM     20  C   UNL     1      56.271  32.137   3.190  0.00  0.00    -0.101 A 
ATOM     21  C   UNL     1      55.182  31.946   2.193  0.00  0.00    +0.449 C 
ATOM     22  O   UNL     1      55.380  31.408   1.120  0.00  0.00    -0.420 OA
ATOM     23  C   UNL     1      53.864  32.442   2.576  0.00  0.00    -0.229 C 
ATOM     24  C   UNL     1      52.695  31.910   2.200  0.00  0.00    +0.123 C 
ATOM     25  O   UNL     1      52.923  34.608   2.765  0.00  0.00    -0.333 OA
ATOM     26  C   UNL     1      51.496  32.642   2.764  0.00  0.00    +0.022 C 
ENDROOT
BRANCH   6   7
ATOM      7  C   UNL     1      52.790  34.328   5.711  0.00  0.00    +0.461 C 
ATOM      8  O   UNL     1      53.356  34.308   6.778  0.00  0.00    -0.443 OA
ENDBRANCH   6   7
BRANCH  16  17
ATOM     17  O   UNL     1      59.338  30.630   4.419  0.00  0.00    -0.492 OA
ATOM     18  H   UNL     1      59.317  29.887   3.800  0.00  0.00    +0.401 HD
ENDBRANCH  16  17
TORSDOF 2
ENDMDL
MODEL 7
REMARK VINA RESULT:      -5.4      2.725      5.166
REMARK  Name = ZINC05839739
REMARK  4 active torsions:
REMARK  status: ('A' for Active; 'I' for Inactive)
REMARK    1  A    between atoms: C1_1  and  C2_2
REMARK    2  A    between atoms: C12_15  and  O5_27
REMARK    3  A    between atoms: C18_22  and  C19_23
REMARK    4  A    between atoms: C18_22  and  C20_24
REMARK                            x       y       z     vdW  Elec       q    Type
REMARK                         _______ _______ _______ _____ _____    ______ ____
ROOT
ATOM      1  C   UNL     1      48.474  21.491  22.240  0.00  0.00    +0.080 C 
ATOM      2  C   UNL     1      47.163  20.953  21.662  0.00  0.00    +0.115 C 
ATOM      3  C   UNL     1      45.920  21.464  22.436  0.00  0.00    +0.034 C 
ATOM      4  C   UNL     1      44.790  21.582  21.394  0.00  0.00    +0.021 C 
ATOM      5  C   UNL     1      45.403  21.088  20.053  0.00  0.00    +0.049 C 
ATOM      6  C   UNL     1      45.255  19.552  20.074  0.00  0.00    -0.137 C 
ATOM      9  C   UNL     1      44.817  19.062  18.694  0.00  0.00    +0.073 C 
ATOM     10  C   UNL     1      46.635  18.946  20.441  0.00  0.00    +0.142 C 
ATOM     11  C   UNL     1      46.562  17.450  20.528  0.00  0.00    +0.413 C 
ATOM     12  O   UNL     1      46.416  16.905  21.602  0.00  0.00    -0.401 OA
ATOM     13  C   UNL     1      46.671  16.650  19.296  0.00  0.00    -0.133 A 
ATOM     14  C   UNL     1      45.943  15.480  19.110  0.00  0.00    +0.099 A 
ATOM     15  C   UNL     1      46.094  14.763  17.938  0.00  0.00    +0.019 A 
ATOM     16  C   UNL     1      46.964  15.199  16.945  0.00  0.00    +0.135 A 
ATOM     19  C   UNL     1      47.698  16.372  17.115  0.00  0.00    +0.053 A 
ATOM     20  C   UNL     1      47.553  17.096  18.281  0.00  0.00    -0.101 A 
ATOM     21  C   UNL     1      48.296  18.361  18.535  0.00  0.00    +0.449 C 
ATOM     22  O   UNL     1      49.410  18.552  18.088  0.00  0.00    -0.420 OA
ATOM     23  C   UNL     1      47.609  19.357  19.353  0.00  0.00    -0.229 C 
ATOM     24  C   UNL     1      47.746  20.683  19.238  0.00  0.00    +0.123 C 
ATOM     25  O   UNL     1      47.114  19.516  21.664  0.00  0.00    -0.333 OA
ATOM     26  C   UNL     1      46.899  21.459  20.223  0.00  0.00    +0.022 C 
ENDROOT
BRANCH   6   7
ATOM      7  C   UNL     1      44.228  19.158  21.103  0.00  0.00    +0.461 C 
ATOM      8  O   UNL     1      43.261  18.515  20.774  0.00  0.00    -0.443 OA
ENDBRANCH   6   7
BRANCH  16  17
ATOM     17  O   UNL     1      47.100  14.479  15.804  0.00  0.00    -0.492 OA
ATOM     18  H   UNL     1      47.835  13.851  15.819  0.00  0.00    +0.401 HD
ENDBRANCH  16  17
TORSDOF 2
ENDMDL
MODEL 8
REMARK VINA RESULT:      -5.4      3.367      5.467
REMARK  Name = ZINC05839739
REMARK  4 active torsions:
REMARK  status: ('A' for Active; 'I' for Inactive)
REMARK    1  A    between atoms: C1_1  and  C2_2
REMARK    2  A    between atoms: C12_15  and  O5_27
REMARK    3  A    between atoms: C18_22  and  C19_23
REMARK    4  A    between atoms: C18_22  and  C20_24
REMARK                            x       y       z     vdW  Elec       q    Type
REMARK                         _______ _______ _______ _____ _____    ______ ____
ROOT
ATOM      1  C   UNL     1      47.388  13.410  21.509  0.00  0.00    +0.080 C 
ATOM      2  C   UNL     1      47.540  14.192  20.203  0.00  0.00    +0.115 C 
ATOM      3  C   UNL     1      48.666  13.626  19.300  0.00  0.00    +0.034 C 
ATOM      4  C   UNL     1      48.211  13.872  17.848  0.00  0.00    +0.021 C 
ATOM      5  C   UNL     1      46.852  14.620  17.957  0.00  0.00    +0.049 C 
ATOM      6  C   UNL     1      47.215  16.111  18.121  0.00  0.00    -0.137 C 
ATOM      9  C   UNL     1      46.273  16.963  17.269  0.00  0.00    +0.073 C 
ATOM     10  C   UNL     1      47.055  16.477  19.619  0.00  0.00    +0.142 C 
ATOM     11  C   UNL     1      47.437  17.907  19.870  0.00  0.00    +0.413 C 
ATOM     12  O   UNL     1      48.548  18.184  20.269  0.00  0.00    -0.401 OA
ATOM     13  C   UNL     1      46.447  18.970  19.626  0.00  0.00    -0.133 A 
ATOM     14  C   UNL     1      46.810  20.213  19.118  0.00  0.00    +0.099 A 
ATOM     15  C   UNL     1      45.841  21.178  18.922  0.00  0.00    +0.019 A 
ATOM     16  C   UNL     1      44.508  20.919  19.225  0.00  0.00    +0.135 A 
ATOM     19  C   UNL     1      44.128  19.678  19.731  0.00  0.00    +0.053 A 
ATOM     20  C   UNL     1      45.089  18.707  19.930  0.00  0.00    -0.101 A 
ATOM     21  C   UNL     1      44.763  17.355  20.460  0.00  0.00    +0.449 C 
ATOM     22  O   UNL     1      43.852  17.175  21.247  0.00  0.00    -0.420 OA
ATOM     23  C   UNL     1      45.599  16.257  19.983  0.00  0.00    -0.229 C 
ATOM     24  C   UNL     1      45.196  14.992  19.811  0.00  0.00    +0.123 C 
ATOM     25  O   UNL     1      47.825  15.583  20.430  0.00  0.00    -0.333 OA
ATOM     26  C   UNL     1      46.289  14.081  19.297  0.00  0.00    +0.022 C 
ENDROOT
BRANCH   6   7
ATOM      7  C   UNL     1      48.639  16.334  17.683  0.00  0.00    +0.461 C 
ATOM      8  O   UNL     1      48.895  17.205  16.887  0.00  0.00    -0.443 OA
ENDBRANCH   6   7
BRANCH  16  17
ATOM     17  O   UNL     1      43.573  21.881  19.027  0.00  0.00    -0.492 OA
ATOM     18  H   UNL     1      43.931  22.718  18.699  0.00  0.00    +0.401 HD
ENDBRANCH  16  17
TORSDOF 2
ENDMDL
MODEL 9
REMARK VINA RESULT:      -5.3      3.138      6.079
REMARK  Name = ZINC05839739
REMARK  4 active torsions:
REMARK  status: ('A' for Active; 'I' for Inactive)
REMARK    1  A    between atoms: C1_1  and  C2_2
REMARK    2  A    between atoms: C12_15  and  O5_27
REMARK    3  A    between atoms: C18_22  and  C19_23
REMARK    4  A    between atoms: C18_22  and  C20_24
REMARK                            x       y       z     vdW  Elec       q    Type
REMARK                         _______ _______ _______ _____ _____    ______ ____
ROOT
ATOM      1  C   UNL     1      43.219  18.542  21.244  0.00  0.00    +0.080 C 
ATOM      2  C   UNL     1      44.489  17.726  21.000  0.00  0.00    +0.115 C 
ATOM      3  C   UNL     1      44.407  16.304  21.611  0.00  0.00    +0.034 C 
ATOM      4  C   UNL     1      45.233  15.393  20.680  0.00  0.00    +0.021 C 
ATOM      5  C   UNL     1      45.810  16.330  19.582  0.00  0.00    +0.049 C 
ATOM      6  C   UNL     1      47.100  16.925  20.184  0.00  0.00    -0.137 C 
ATOM      9  C   UNL     1      48.198  16.948  19.120  0.00  0.00    +0.073 C 
ATOM     10  C   UNL     1      46.784  18.368  20.655  0.00  0.00    +0.142 C 
ATOM     11  C   UNL     1      47.983  19.002  21.299  0.00  0.00    +0.413 C 
ATOM     12  O   UNL     1      48.105  18.996  22.505  0.00  0.00    -0.401 OA
ATOM     13  C   UNL     1      49.010  19.630  20.449  0.00  0.00    -0.133 A 
ATOM     14  C   UNL     1      50.363  19.571  20.763  0.00  0.00    +0.099 A 
ATOM     15  C   UNL     1      51.281  20.190  19.937  0.00  0.00    +0.019 A 
ATOM     16  C   UNL     1      50.867  20.868  18.795  0.00  0.00    +0.135 A 
ATOM     19  C   UNL     1      49.514  20.932  18.465  0.00  0.00    +0.053 A 
ATOM     20  C   UNL     1      48.590  20.316  19.283  0.00  0.00    -0.101 A 
ATOM     21  C   UNL     1      47.129  20.334  18.996  0.00  0.00    +0.449 C 
ATOM     22  O   UNL     1      46.596  21.272  18.435  0.00  0.00    -0.420 OA
ATOM     23  C   UNL     1      46.374  19.161  19.428  0.00  0.00    -0.229 C 
ATOM     24  C   UNL     1      45.290  18.668  18.817  0.00  0.00    +0.123 C 
ATOM     25  O   UNL     1      45.660  18.363  21.541  0.00  0.00    -0.333 OA
ATOM     26  C   UNL     1      44.728  17.438  19.497  0.00  0.00    +0.022 C 
ENDROOT
BRANCH   6   7
ATOM      7  C   UNL     1      47.544  16.085  21.353  0.00  0.00    +0.461 C 
ATOM      8  O   UNL     1      48.650  15.602  21.363  0.00  0.00    -0.443 OA
ENDBRANCH   6   7
BRANCH  16  17
ATOM     17  O   UNL     1      51.784  21.470  17.999  0.00  0.00    -0.492 OA
ATOM     18  H   UNL     1      52.653  21.577  18.410  0.00  0.00    +0.401 HD
ENDBRANCH  16  17
TORSDOF 2
ENDMDL
