MODEL 1
REMARK VINA RESULT:      -7.3      0.000      0.000
REMARK  Name = ZINC13480800
REMARK  9 active torsions:
REMARK  status: ('A' for Active; 'I' for Inactive)
REMARK    1  A    between atoms: C1_1  and  C2_2
REMARK    2  A    between atoms: C2_2  and  C3_3
REMARK    3  A    between atoms: C2_2  and  C4_4
REMARK    4  A    between atoms: C10_10  and  C27_33
REMARK    5  A    between atoms: C16_19  and  O3_24
REMARK    6  A    between atoms: C17_21  and  C18_22
REMARK    7  A    between atoms: C17_21  and  C19_23
REMARK    8  A    between atoms: O3_24  and  C20_25
REMARK    9  A    between atoms: C20_25  and  C21_27
REMARK                            x       y       z     vdW  Elec       q    Type
REMARK                         _______ _______ _______ _____ _____    ______ ____
ROOT
ATOM      3  C   UNL     1      41.954  20.138  19.522  0.00  0.00    -0.208 C 
ATOM      4  C   UNL     1      42.968  20.916  19.026  0.00  0.00    +0.135 C 
ATOM      5  C   UNL     1      44.289  20.825  19.480  0.00  0.00    -0.132 C 
ATOM      6  C   UNL     1      45.252  21.574  18.885  0.00  0.00    +0.099 C 
ATOM      7  C   UNL     1      46.614  21.408  19.207  0.00  0.00    -0.025 C 
ATOM      8  C   UNL     1      47.050  20.443  20.020  0.00  0.00    -0.028 C 
ATOM      9  C   UNL     1      46.084  19.587  20.789  0.00  0.00    -0.012 C 
ATOM     10  C   UNL     1      46.309  19.913  22.276  0.00  0.00    +0.038 C 
ATOM     11  C   UNL     1      46.453  18.124  20.652  0.00  0.00    +0.065 C 
ATOM     12  C   UNL     1      47.917  17.913  21.044  0.00  0.00    +0.012 C 
ATOM     13  C   UNL     1      48.858  18.739  20.188  0.00  0.00    +0.189 C 
ATOM     23  C   UNL     1      48.539  20.238  20.187  0.00  0.00    -0.020 C 
ATOM     24  C   UNL     1      49.290  20.836  18.970  0.00  0.00    +0.041 C 
ATOM     25  C   UNL     1      49.094  20.918  21.438  0.00  0.00    +0.062 C 
ATOM     26  C   UNL     1      44.636  19.927  20.630  0.00  0.00    +0.041 C 
ATOM     27  C   UNL     1      43.677  18.771  20.675  0.00  0.00    +0.338 C 
ATOM     28  O   UNL     1      43.999  17.631  20.893  0.00  0.00    -0.389 OA
ATOM     29  C   UNL     1      42.233  19.098  20.426  0.00  0.00    +0.352 C 
ATOM     30  O   UNL     1      41.346  18.480  20.987  0.00  0.00    -0.404 OA
ENDROOT
BRANCH   3   2
ATOM      1  C   UNL     1      40.371  21.849  18.682  0.00  0.00    +0.026 C 
ATOM      2  C   UNL     1      40.537  20.380  19.076  0.00  0.00    +0.041 C 
ATOM     31  C   UNL     1      40.221  19.491  17.872  0.00  0.00    +0.031 C 
ENDBRANCH   3   2
BRANCH  13  14
ATOM     14  O   UNL     1      50.200  18.551  20.656  0.00  0.00    -0.339 OA
BRANCH  14  15
ATOM     15  C   UNL     1      51.028  17.838  19.868  0.00  0.00    +0.507 C 
ATOM     22  O   UNL     1      51.439  16.757  20.240  0.00  0.00    -0.501 OA
BRANCH  15  16
ATOM     16  C   UNL     1      51.436  18.371  18.552  0.00  0.00    -0.128 A 
ATOM     17  C   UNL     1      52.214  19.528  18.473  0.00  0.00    +0.076 A 
ATOM     18  C   UNL     1      52.592  20.019  17.241  0.00  0.00    -0.001 A 
ATOM     19  C   UNL     1      52.201  19.369  16.085  0.00  0.00    +0.048 A 
ATOM     20  C   UNL     1      51.429  18.222  16.154  0.00  0.00    +0.003 A 
ATOM     21  C   UNL     1      51.050  17.716  17.381  0.00  0.00    +0.082 A 
ENDBRANCH  15  16
ENDBRANCH  14  15
ENDBRANCH  13  14
TORSDOF 4
ENDMDL
MODEL 2
REMARK VINA RESULT:      -7.2      4.247      8.123
REMARK  Name = ZINC13480800
REMARK  9 active torsions:
REMARK  status: ('A' for Active; 'I' for Inactive)
REMARK    1  A    between atoms: C1_1  and  C2_2
REMARK    2  A    between atoms: C2_2  and  C3_3
REMARK    3  A    between atoms: C2_2  and  C4_4
REMARK    4  A    between atoms: C10_10  and  C27_33
REMARK    5  A    between atoms: C16_19  and  O3_24
REMARK    6  A    between atoms: C17_21  and  C18_22
REMARK    7  A    between atoms: C17_21  and  C19_23
REMARK    8  A    between atoms: O3_24  and  C20_25
REMARK    9  A    between atoms: C20_25  and  C21_27
REMARK                            x       y       z     vdW  Elec       q    Type
REMARK                         _______ _______ _______ _____ _____    ______ ____
ROOT
ATOM      3  C   UNL     1      46.484  12.639  16.891  0.00  0.00    -0.208 C 
ATOM      4  C   UNL     1      45.849  12.782  18.098  0.00  0.00    +0.135 C 
ATOM      5  C   UNL     1      45.860  13.979  18.825  0.00  0.00    -0.132 C 
ATOM      6  C   UNL     1      45.143  14.066  19.974  0.00  0.00    +0.099 C 
ATOM      7  C   UNL     1      45.004  15.289  20.661  0.00  0.00    -0.025 C 
ATOM      8  C   UNL     1      45.464  16.445  20.175  0.00  0.00    -0.028 C 
ATOM      9  C   UNL     1      46.326  16.476  18.945  0.00  0.00    -0.012 C 
ATOM     10  C   UNL     1      47.709  16.976  19.401  0.00  0.00    +0.038 C 
ATOM     11  C   UNL     1      45.829  17.534  17.981  0.00  0.00    +0.065 C 
ATOM     12  C   UNL     1      45.717  18.883  18.694  0.00  0.00    +0.012 C 
ATOM     13  C   UNL     1      44.775  18.820  19.882  0.00  0.00    +0.189 C 
ATOM     23  C   UNL     1      45.135  17.732  20.899  0.00  0.00    -0.020 C 
ATOM     24  C   UNL     1      43.873  17.529  21.777  0.00  0.00    +0.041 C 
ATOM     25  C   UNL     1      46.258  18.194  21.825  0.00  0.00    +0.062 C 
ATOM     26  C   UNL     1      46.674  15.146  18.354  0.00  0.00    +0.041 C 
ATOM     27  C   UNL     1      46.803  15.101  16.858  0.00  0.00    +0.338 C 
ATOM     28  O   UNL     1      46.710  16.065  16.140  0.00  0.00    -0.389 OA
ATOM     29  C   UNL     1      47.064  13.752  16.255  0.00  0.00    +0.352 C 
ATOM     30  O   UNL     1      47.748  13.634  15.256  0.00  0.00    -0.404 OA
ENDROOT
BRANCH   3   2
ATOM      1  C   UNL     1      47.171  10.277  17.184  0.00  0.00    +0.026 C 
ATOM      2  C   UNL     1      46.537  11.289  16.229  0.00  0.00    +0.041 C 
ATOM     31  C   UNL     1      45.118  10.836  15.876  0.00  0.00    +0.031 C 
ENDBRANCH   3   2
BRANCH  13  14
ATOM     14  O   UNL     1      44.775  20.091  20.545  0.00  0.00    -0.339 OA
BRANCH  14  15
ATOM     15  C   UNL     1      44.207  21.122  19.890  0.00  0.00    +0.507 C 
ATOM     22  O   UNL     1      44.873  22.095  19.595  0.00  0.00    -0.501 OA
BRANCH  15  16
ATOM     16  C   UNL     1      42.776  21.070  19.529  0.00  0.00    -0.128 A 
ATOM     17  C   UNL     1      42.004  19.960  19.878  0.00  0.00    +0.076 A 
ATOM     18  C   UNL     1      40.668  19.918  19.538  0.00  0.00    -0.001 A 
ATOM     19  C   UNL     1      40.093  20.972  18.852  0.00  0.00    +0.048 A 
ATOM     20  C   UNL     1      40.851  22.075  18.502  0.00  0.00    +0.003 A 
ATOM     21  C   UNL     1      42.187  22.133  18.842  0.00  0.00    +0.082 A 
ENDBRANCH  15  16
ENDBRANCH  14  15
ENDBRANCH  13  14
TORSDOF 4
ENDMDL
MODEL 3
REMARK VINA RESULT:      -6.5      4.358      7.651
REMARK  Name = ZINC13480800
REMARK  9 active torsions:
REMARK  status: ('A' for Active; 'I' for Inactive)
REMARK    1  A    between atoms: C1_1  and  C2_2
REMARK    2  A    between atoms: C2_2  and  C3_3
REMARK    3  A    between atoms: C2_2  and  C4_4
REMARK    4  A    between atoms: C10_10  and  C27_33
REMARK    5  A    between atoms: C16_19  and  O3_24
REMARK    6  A    between atoms: C17_21  and  C18_22
REMARK    7  A    between atoms: C17_21  and  C19_23
REMARK    8  A    between atoms: O3_24  and  C20_25
REMARK    9  A    between atoms: C20_25  and  C21_27
REMARK                            x       y       z     vdW  Elec       q    Type
REMARK                         _______ _______ _______ _____ _____    ______ ____
ROOT
ATOM      3  C   UNL     1      46.619  12.557  16.903  0.00  0.00    -0.208 C 
ATOM      4  C   UNL     1      45.971  12.488  18.109  0.00  0.00    +0.135 C 
ATOM      5  C   UNL     1      45.873  13.577  18.983  0.00  0.00    -0.132 C 
ATOM      6  C   UNL     1      45.147  13.453  20.124  0.00  0.00    +0.099 C 
ATOM      7  C   UNL     1      44.898  14.560  20.959  0.00  0.00    -0.025 C 
ATOM      8  C   UNL     1      45.255  15.805  20.631  0.00  0.00    -0.028 C 
ATOM      9  C   UNL     1      46.115  16.069  19.428  0.00  0.00    -0.012 C 
ATOM     10  C   UNL     1      47.446  16.625  19.963  0.00  0.00    +0.038 C 
ATOM     11  C   UNL     1      45.528  17.194  18.599  0.00  0.00    +0.065 C 
ATOM     12  C   UNL     1      45.295  18.425  19.477  0.00  0.00    +0.012 C 
ATOM     13  C   UNL     1      44.359  18.128  20.633  0.00  0.00    +0.189 C 
ATOM     23  C   UNL     1      44.811  16.954  21.508  0.00  0.00    -0.020 C 
ATOM     24  C   UNL     1      43.569  16.531  22.335  0.00  0.00    +0.041 C 
ATOM     25  C   UNL     1      45.886  17.391  22.502  0.00  0.00    +0.062 C 
ATOM     26  C   UNL     1      46.582  14.862  18.677  0.00  0.00    +0.041 C 
ATOM     27  C   UNL     1      46.718  15.021  17.189  0.00  0.00    +0.338 C 
ATOM     28  O   UNL     1      46.542  16.057  16.598  0.00  0.00    -0.389 OA
ATOM     29  C   UNL     1      47.099  13.788  16.423  0.00  0.00    +0.352 C 
ATOM     30  O   UNL     1      47.795  13.860  15.426  0.00  0.00    -0.404 OA
ENDROOT
BRANCH   3   2
ATOM      1  C   UNL     1      47.595  10.279  16.869  0.00  0.00    +0.026 C 
ATOM      2  C   UNL     1      46.793  11.312  16.075  0.00  0.00    +0.041 C 
ATOM     31  C   UNL     1      45.421  10.734  15.726  0.00  0.00    +0.031 C 
ENDBRANCH   3   2
BRANCH  13  14
ATOM     14  O   UNL     1      44.244  19.299  21.453  0.00  0.00    -0.339 OA
BRANCH  14  15
ATOM     15  C   UNL     1      44.137  20.482  20.817  0.00  0.00    +0.507 C 
ATOM     22  O   UNL     1      43.252  20.656  20.004  0.00  0.00    -0.501 OA
BRANCH  15  16
ATOM     16  C   UNL     1      45.094  21.568  21.112  0.00  0.00    -0.128 A 
ATOM     17  C   UNL     1      44.755  22.896  20.843  0.00  0.00    +0.076 A 
ATOM     18  C   UNL     1      45.653  23.904  21.121  0.00  0.00    -0.001 A 
ATOM     19  C   UNL     1      46.889  23.603  21.665  0.00  0.00    +0.048 A 
ATOM     20  C   UNL     1      47.233  22.290  21.934  0.00  0.00    +0.003 A 
ATOM     21  C   UNL     1      46.341  21.272  21.667  0.00  0.00    +0.082 A 
ENDBRANCH  15  16
ENDBRANCH  14  15
ENDBRANCH  13  14
TORSDOF 4
ENDMDL
MODEL 4
REMARK VINA RESULT:      -6.5      1.618      2.206
REMARK  Name = ZINC13480800
REMARK  9 active torsions:
REMARK  status: ('A' for Active; 'I' for Inactive)
REMARK    1  A    between atoms: C1_1  and  C2_2
REMARK    2  A    between atoms: C2_2  and  C3_3
REMARK    3  A    between atoms: C2_2  and  C4_4
REMARK    4  A    between atoms: C10_10  and  C27_33
REMARK    5  A    between atoms: C16_19  and  O3_24
REMARK    6  A    between atoms: C17_21  and  C18_22
REMARK    7  A    between atoms: C17_21  and  C19_23
REMARK    8  A    between atoms: O3_24  and  C20_25
REMARK    9  A    between atoms: C20_25  and  C21_27
REMARK                            x       y       z     vdW  Elec       q    Type
REMARK                         _______ _______ _______ _____ _____    ______ ____
ROOT
ATOM      3  C   UNL     1      42.341  20.120  19.509  0.00  0.00    -0.208 C 
ATOM      4  C   UNL     1      43.367  20.863  18.986  0.00  0.00    +0.135 C 
ATOM      5  C   UNL     1      44.696  20.726  19.406  0.00  0.00    -0.132 C 
ATOM      6  C   UNL     1      45.668  21.441  18.785  0.00  0.00    +0.099 C 
ATOM      7  C   UNL     1      47.031  21.229  19.071  0.00  0.00    -0.025 C 
ATOM      8  C   UNL     1      47.456  20.249  19.873  0.00  0.00    -0.028 C 
ATOM      9  C   UNL     1      46.481  19.427  20.668  0.00  0.00    -0.012 C 
ATOM     10  C   UNL     1      46.757  19.745  22.148  0.00  0.00    +0.038 C 
ATOM     11  C   UNL     1      46.796  17.952  20.521  0.00  0.00    +0.065 C 
ATOM     12  C   UNL     1      48.261  17.691  20.875  0.00  0.00    +0.012 C 
ATOM     13  C   UNL     1      49.207  18.484  19.994  0.00  0.00    +0.189 C 
ATOM     23  C   UNL     1      48.941  19.993  20.001  0.00  0.00    -0.020 C 
ATOM     24  C   UNL     1      49.679  20.566  18.764  0.00  0.00    +0.041 C 
ATOM     25  C   UNL     1      49.551  20.653  21.236  0.00  0.00    +0.062 C 
ATOM     26  C   UNL     1      45.042  19.816  20.546  0.00  0.00    +0.041 C 
ATOM     27  C   UNL     1      44.045  18.694  20.617  0.00  0.00    +0.338 C 
ATOM     28  O   UNL     1      44.334  17.543  20.828  0.00  0.00    -0.389 OA
ATOM     29  C   UNL     1      42.607  19.070  20.406  0.00  0.00    +0.352 C 
ATOM     30  O   UNL     1      41.714  18.483  20.991  0.00  0.00    -0.404 OA
ENDROOT
BRANCH   3   2
ATOM      1  C   UNL     1      40.805  21.874  18.670  0.00  0.00    +0.026 C 
ATOM      2  C   UNL     1      40.922  20.411  19.101  0.00  0.00    +0.041 C 
ATOM     31  C   UNL     1      40.530  19.503  17.933  0.00  0.00    +0.031 C 
ENDBRANCH   3   2
BRANCH  13  14
ATOM     14  O   UNL     1      50.554  18.250  20.427  0.00  0.00    -0.339 OA
BRANCH  14  15
ATOM     15  C   UNL     1      51.326  17.482  19.634  0.00  0.00    +0.507 C 
ATOM     22  O   UNL     1      50.964  17.217  18.505  0.00  0.00    -0.501 OA
BRANCH  15  16
ATOM     16  C   UNL     1      52.614  16.962  20.138  0.00  0.00    -0.128 A 
ATOM     17  C   UNL     1      52.951  17.108  21.485  0.00  0.00    +0.076 A 
ATOM     18  C   UNL     1      54.155  16.620  21.949  0.00  0.00    -0.001 A 
ATOM     19  C   UNL     1      55.028  15.988  21.082  0.00  0.00    +0.048 A 
ATOM     20  C   UNL     1      54.702  15.841  19.745  0.00  0.00    +0.003 A 
ATOM     21  C   UNL     1      53.497  16.318  19.270  0.00  0.00    +0.082 A 
ENDBRANCH  15  16
ENDBRANCH  14  15
ENDBRANCH  13  14
TORSDOF 4
ENDMDL
MODEL 5
REMARK VINA RESULT:      -6.5      1.110      1.703
REMARK  Name = ZINC13480800
REMARK  9 active torsions:
REMARK  status: ('A' for Active; 'I' for Inactive)
REMARK    1  A    between atoms: C1_1  and  C2_2
REMARK    2  A    between atoms: C2_2  and  C3_3
REMARK    3  A    between atoms: C2_2  and  C4_4
REMARK    4  A    between atoms: C10_10  and  C27_33
REMARK    5  A    between atoms: C16_19  and  O3_24
REMARK    6  A    between atoms: C17_21  and  C18_22
REMARK    7  A    between atoms: C17_21  and  C19_23
REMARK    8  A    between atoms: O3_24  and  C20_25
REMARK    9  A    between atoms: C20_25  and  C21_27
REMARK                            x       y       z     vdW  Elec       q    Type
REMARK                         _______ _______ _______ _____ _____    ______ ____
ROOT
ATOM      3  C   UNL     1      41.935  20.230  19.432  0.00  0.00    -0.208 C 
ATOM      4  C   UNL     1      42.990  20.945  18.926  0.00  0.00    +0.135 C 
ATOM      5  C   UNL     1      44.281  20.879  19.464  0.00  0.00    -0.132 C 
ATOM      6  C   UNL     1      45.290  21.556  18.859  0.00  0.00    +0.099 C 
ATOM      7  C   UNL     1      46.628  21.404  19.274  0.00  0.00    -0.025 C 
ATOM      8  C   UNL     1      46.999  20.513  20.198  0.00  0.00    -0.028 C 
ATOM      9  C   UNL     1      45.975  19.746  20.985  0.00  0.00    -0.012 C 
ATOM     10  C   UNL     1      46.121  20.208  22.446  0.00  0.00    +0.038 C 
ATOM     11  C   UNL     1      46.323  18.272  21.007  0.00  0.00    +0.065 C 
ATOM     12  C   UNL     1      47.758  18.079  21.503  0.00  0.00    +0.012 C 
ATOM     13  C   UNL     1      48.762  18.808  20.630  0.00  0.00    +0.189 C 
ATOM     23  C   UNL     1      48.472  20.305  20.471  0.00  0.00    -0.020 C 
ATOM     24  C   UNL     1      49.302  20.776  19.250  0.00  0.00    +0.041 C 
ATOM     25  C   UNL     1      48.966  21.092  21.683  0.00  0.00    +0.062 C 
ATOM     26  C   UNL     1      44.544  20.089  20.710  0.00  0.00    +0.041 C 
ATOM     27  C   UNL     1      43.563  18.955  20.806  0.00  0.00    +0.338 C 
ATOM     28  O   UNL     1      43.851  17.836  21.148  0.00  0.00    -0.389 OA
ATOM     29  C   UNL     1      42.142  19.276  20.443  0.00  0.00    +0.352 C 
ATOM     30  O   UNL     1      41.213  18.726  21.006  0.00  0.00    -0.404 OA
ENDROOT
BRANCH   3   2
ATOM      1  C   UNL     1      40.414  21.895  18.406  0.00  0.00    +0.026 C 
ATOM      2  C   UNL     1      40.551  20.448  18.882  0.00  0.00    +0.041 C 
ATOM     31  C   UNL     1      40.313  19.499  17.706  0.00  0.00    +0.031 C 
ENDBRANCH   3   2
BRANCH  13  14
ATOM     14  O   UNL     1      50.071  18.648  21.191  0.00  0.00    -0.339 OA
BRANCH  14  15
ATOM     15  C   UNL     1      50.987  18.011  20.436  0.00  0.00    +0.507 C 
ATOM     22  O   UNL     1      52.171  18.157  20.665  0.00  0.00    -0.501 OA
BRANCH  15  16
ATOM     16  C   UNL     1      50.551  17.134  19.330  0.00  0.00    -0.128 A 
ATOM     17  C   UNL     1      50.091  15.842  19.598  0.00  0.00    +0.076 A 
ATOM     18  C   UNL     1      49.685  15.029  18.560  0.00  0.00    -0.001 A 
ATOM     19  C   UNL     1      49.733  15.491  17.257  0.00  0.00    +0.048 A 
ATOM     20  C   UNL     1      50.187  16.769  16.984  0.00  0.00    +0.003 A 
ATOM     21  C   UNL     1      50.590  17.595  18.013  0.00  0.00    +0.082 A 
ENDBRANCH  15  16
ENDBRANCH  14  15
ENDBRANCH  13  14
TORSDOF 4
ENDMDL
MODEL 6
REMARK VINA RESULT:      -6.4      1.787      3.030
REMARK  Name = ZINC13480800
REMARK  9 active torsions:
REMARK  status: ('A' for Active; 'I' for Inactive)
REMARK    1  A    between atoms: C1_1  and  C2_2
REMARK    2  A    between atoms: C2_2  and  C3_3
REMARK    3  A    between atoms: C2_2  and  C4_4
REMARK    4  A    between atoms: C10_10  and  C27_33
REMARK    5  A    between atoms: C16_19  and  O3_24
REMARK    6  A    between atoms: C17_21  and  C18_22
REMARK    7  A    between atoms: C17_21  and  C19_23
REMARK    8  A    between atoms: O3_24  and  C20_25
REMARK    9  A    between atoms: C20_25  and  C21_27
REMARK                            x       y       z     vdW  Elec       q    Type
REMARK                         _______ _______ _______ _____ _____    ______ ____
ROOT
ATOM      3  C   UNL     1      42.563  19.763  19.994  0.00  0.00    -0.208 C 
ATOM      4  C   UNL     1      43.092  18.526  20.255  0.00  0.00    +0.135 C 
ATOM      5  C   UNL     1      44.405  18.174  19.923  0.00  0.00    -0.132 C 
ATOM      6  C   UNL     1      44.882  16.956  20.285  0.00  0.00    +0.099 C 
ATOM      7  C   UNL     1      46.237  16.615  20.103  0.00  0.00    -0.025 C 
ATOM      8  C   UNL     1      47.150  17.491  19.677  0.00  0.00    -0.028 C 
ATOM      9  C   UNL     1      46.744  18.851  19.187  0.00  0.00    -0.012 C 
ATOM     10  C   UNL     1      47.093  18.891  17.688  0.00  0.00    +0.038 C 
ATOM     11  C   UNL     1      47.614  19.920  19.817  0.00  0.00    +0.065 C 
ATOM     12  C   UNL     1      49.092  19.594  19.589  0.00  0.00    +0.012 C 
ATOM     13  C   UNL     1      49.471  18.246  20.171  0.00  0.00    +0.189 C 
ATOM     23  C   UNL     1      48.608  17.087  19.661  0.00  0.00    -0.020 C 
ATOM     24  C   UNL     1      48.836  15.914  20.648  0.00  0.00    +0.041 C 
ATOM     25  C   UNL     1      49.076  16.616  18.285  0.00  0.00    +0.062 C 
ATOM     26  C   UNL     1      45.273  19.125  19.153  0.00  0.00    +0.041 C 
ATOM     27  C   UNL     1      44.856  20.538  19.444  0.00  0.00    +0.338 C 
ATOM     28  O   UNL     1      45.625  21.447  19.630  0.00  0.00    -0.389 OA
ATOM     29  C   UNL     1      43.379  20.796  19.499  0.00  0.00    +0.352 C 
ATOM     30  O   UNL     1      42.914  21.859  19.130  0.00  0.00    -0.404 OA
ENDROOT
BRANCH   3   2
ATOM      1  C   UNL     1      40.319  19.934  18.956  0.00  0.00    +0.026 C 
ATOM      2  C   UNL     1      41.106  20.027  20.265  0.00  0.00    +0.041 C 
ATOM     31  C   UNL     1      40.573  18.988  21.254  0.00  0.00    +0.031 C 
ENDBRANCH   3   2
BRANCH  13  14
ATOM     14  O   UNL     1      50.843  17.973  19.858  0.00  0.00    -0.339 OA
BRANCH  14  15
ATOM     15  C   UNL     1      51.609  19.022  19.499  0.00  0.00    +0.507 C 
ATOM     22  O   UNL     1      52.235  19.633  20.342  0.00  0.00    -0.501 OA
BRANCH  15  16
ATOM     16  C   UNL     1      51.689  19.427  18.081  0.00  0.00    -0.128 A 
ATOM     17  C   UNL     1      51.766  18.458  17.078  0.00  0.00    +0.076 A 
ATOM     18  C   UNL     1      51.840  18.844  15.755  0.00  0.00    -0.001 A 
ATOM     19  C   UNL     1      51.838  20.186  15.422  0.00  0.00    +0.048 A 
ATOM     20  C   UNL     1      51.763  21.151  16.411  0.00  0.00    +0.003 A 
ATOM     21  C   UNL     1      51.682  20.779  17.737  0.00  0.00    +0.082 A 
ENDBRANCH  15  16
ENDBRANCH  14  15
ENDBRANCH  13  14
TORSDOF 4
ENDMDL
MODEL 7
REMARK VINA RESULT:      -6.2      3.277      4.096
REMARK  Name = ZINC13480800
REMARK  9 active torsions:
REMARK  status: ('A' for Active; 'I' for Inactive)
REMARK    1  A    between atoms: C1_1  and  C2_2
REMARK    2  A    between atoms: C2_2  and  C3_3
REMARK    3  A    between atoms: C2_2  and  C4_4
REMARK    4  A    between atoms: C10_10  and  C27_33
REMARK    5  A    between atoms: C16_19  and  O3_24
REMARK    6  A    between atoms: C17_21  and  C18_22
REMARK    7  A    between atoms: C17_21  and  C19_23
REMARK    8  A    between atoms: O3_24  and  C20_25
REMARK    9  A    between atoms: C20_25  and  C21_27
REMARK                            x       y       z     vdW  Elec       q    Type
REMARK                         _______ _______ _______ _____ _____    ______ ____
ROOT
ATOM      3  C   UNL     1      42.169  20.010  19.499  0.00  0.00    -0.208 C 
ATOM      4  C   UNL     1      43.256  20.026  18.664  0.00  0.00    +0.135 C 
ATOM      5  C   UNL     1      44.460  19.380  18.970  0.00  0.00    -0.132 C 
ATOM      6  C   UNL     1      45.464  19.375  18.057  0.00  0.00    +0.099 C 
ATOM      7  C   UNL     1      46.635  18.617  18.258  0.00  0.00    -0.025 C 
ATOM      8  C   UNL     1      46.782  17.777  19.286  0.00  0.00    -0.028 C 
ATOM      9  C   UNL     1      45.772  17.734  20.397  0.00  0.00    -0.012 C 
ATOM     10  C   UNL     1      46.500  18.227  21.660  0.00  0.00    +0.038 C 
ATOM     11  C   UNL     1      45.388  16.301  20.703  0.00  0.00    +0.065 C 
ATOM     12  C   UNL     1      46.643  15.468  20.974  0.00  0.00    +0.012 C 
ATOM     13  C   UNL     1      47.596  15.479  19.794  0.00  0.00    +0.189 C 
ATOM     23  C   UNL     1      48.003  16.885  19.340  0.00  0.00    -0.020 C 
ATOM     24  C   UNL     1      48.596  16.724  17.917  0.00  0.00    +0.041 C 
ATOM     25  C   UNL     1      49.109  17.451  20.229  0.00  0.00    +0.062 C 
ATOM     26  C   UNL     1      44.649  18.718  20.302  0.00  0.00    +0.041 C 
ATOM     27  C   UNL     1      43.320  18.258  20.830  0.00  0.00    +0.338 C 
ATOM     28  O   UNL     1      43.135  17.197  21.371  0.00  0.00    -0.389 OA
ATOM     29  C   UNL     1      42.172  19.209  20.655  0.00  0.00    +0.352 C 
ATOM     30  O   UNL     1      41.282  19.276  21.484  0.00  0.00    -0.404 OA
ENDROOT
BRANCH   3   2
ATOM      1  C   UNL     1      41.389  22.241  18.756  0.00  0.00    +0.026 C 
ATOM      2  C   UNL     1      40.954  20.832  19.163  0.00  0.00    +0.041 C 
ATOM     31  C   UNL     1      40.198  20.178  18.005  0.00  0.00    +0.031 C 
ENDBRANCH   3   2
BRANCH  13  14
ATOM     14  O   UNL     1      48.777  14.746  20.141  0.00  0.00    -0.339 OA
BRANCH  14  15
ATOM     15  C   UNL     1      48.820  13.448  19.778  0.00  0.00    +0.507 C 
ATOM     22  O   UNL     1      49.348  12.632  20.506  0.00  0.00    -0.501 OA
BRANCH  15  16
ATOM     16  C   UNL     1      48.225  13.020  18.496  0.00  0.00    -0.128 A 
ATOM     17  C   UNL     1      48.958  13.123  17.312  0.00  0.00    +0.076 A 
ATOM     18  C   UNL     1      48.395  12.720  16.119  0.00  0.00    -0.001 A 
ATOM     19  C   UNL     1      47.108  12.216  16.093  0.00  0.00    +0.048 A 
ATOM     20  C   UNL     1      46.375  12.111  17.262  0.00  0.00    +0.003 A 
ATOM     21  C   UNL     1      46.928  12.504  18.464  0.00  0.00    +0.082 A 
ENDBRANCH  15  16
ENDBRANCH  14  15
ENDBRANCH  13  14
TORSDOF 4
ENDMDL
MODEL 8
REMARK VINA RESULT:      -6.2      4.037      4.913
REMARK  Name = ZINC13480800
REMARK  9 active torsions:
REMARK  status: ('A' for Active; 'I' for Inactive)
REMARK    1  A    between atoms: C1_1  and  C2_2
REMARK    2  A    between atoms: C2_2  and  C3_3
REMARK    3  A    between atoms: C2_2  and  C4_4
REMARK    4  A    between atoms: C10_10  and  C27_33
REMARK    5  A    between atoms: C16_19  and  O3_24
REMARK    6  A    between atoms: C17_21  and  C18_22
REMARK    7  A    between atoms: C17_21  and  C19_23
REMARK    8  A    between atoms: O3_24  and  C20_25
REMARK    9  A    between atoms: C20_25  and  C21_27
REMARK                            x       y       z     vdW  Elec       q    Type
REMARK                         _______ _______ _______ _____ _____    ______ ____
ROOT
ATOM      3  C   UNL     1      42.962  19.765  19.652  0.00  0.00    -0.208 C 
ATOM      4  C   UNL     1      43.940  19.658  18.697  0.00  0.00    +0.135 C 
ATOM      5  C   UNL     1      45.053  18.821  18.839  0.00  0.00    -0.132 C 
ATOM      6  C   UNL     1      45.938  18.709  17.816  0.00  0.00    +0.099 C 
ATOM      7  C   UNL     1      46.989  17.771  17.854  0.00  0.00    -0.025 C 
ATOM      8  C   UNL     1      47.115  16.868  18.830  0.00  0.00    -0.028 C 
ATOM      9  C   UNL     1      46.238  16.924  20.049  0.00  0.00    -0.012 C 
ATOM     10  C   UNL     1      47.169  17.236  21.235  0.00  0.00    +0.038 C 
ATOM     11  C   UNL     1      45.670  15.552  20.352  0.00  0.00    +0.065 C 
ATOM     12  C   UNL     1      46.800  14.526  20.447  0.00  0.00    +0.012 C 
ATOM     13  C   UNL     1      47.607  14.451  19.165  0.00  0.00    +0.189 C 
ATOM     23  C   UNL     1      48.178  15.799  18.713  0.00  0.00    -0.020 C 
ATOM     24  C   UNL     1      48.578  15.621  17.226  0.00  0.00    +0.041 C 
ATOM     25  C   UNL     1      49.451  16.144  19.485  0.00  0.00    +0.062 C 
ATOM     26  C   UNL     1      45.281  18.072  20.118  0.00  0.00    +0.041 C 
ATOM     27  C   UNL     1      43.962  17.794  20.782  0.00  0.00    +0.338 C 
ATOM     28  O   UNL     1      43.674  16.748  21.306  0.00  0.00    -0.389 OA
ATOM     29  C   UNL     1      42.966  18.917  20.773  0.00  0.00    +0.352 C 
ATOM     30  O   UNL     1      42.195  19.077  21.701  0.00  0.00    -0.404 OA
ENDROOT
BRANCH   3   2
ATOM      1  C   UNL     1      42.470  22.137  19.130  0.00  0.00    +0.026 C 
ATOM      2  C   UNL     1      41.862  20.780  19.486  0.00  0.00    +0.041 C 
ATOM     31  C   UNL     1      40.920  20.333  18.367  0.00  0.00    +0.031 C 
ENDBRANCH   3   2
BRANCH  13  14
ATOM     14  O   UNL     1      48.689  13.529  19.348  0.00  0.00    -0.339 OA
BRANCH  14  15
ATOM     15  C   UNL     1      48.476  12.252  18.972  0.00  0.00    +0.507 C 
ATOM     22  O   UNL     1      48.713  11.345  19.743  0.00  0.00    -0.501 OA
BRANCH  15  16
ATOM     16  C   UNL     1      47.953  11.958  17.623  0.00  0.00    -0.128 A 
ATOM     17  C   UNL     1      48.805  11.990  16.517  0.00  0.00    +0.076 A 
ATOM     18  C   UNL     1      48.309  11.713  15.260  0.00  0.00    -0.001 A 
ATOM     19  C   UNL     1      46.971  11.405  15.093  0.00  0.00    +0.048 A 
ATOM     20  C   UNL     1      46.121  11.371  16.184  0.00  0.00    +0.003 A 
ATOM     21  C   UNL     1      46.605  11.639  17.448  0.00  0.00    +0.082 A 
ENDBRANCH  15  16
ENDBRANCH  14  15
ENDBRANCH  13  14
TORSDOF 4
ENDMDL
MODEL 9
REMARK VINA RESULT:      -6.2      4.198      6.082
REMARK  Name = ZINC13480800
REMARK  9 active torsions:
REMARK  status: ('A' for Active; 'I' for Inactive)
REMARK    1  A    between atoms: C1_1  and  C2_2
REMARK    2  A    between atoms: C2_2  and  C3_3
REMARK    3  A    between atoms: C2_2  and  C4_4
REMARK    4  A    between atoms: C10_10  and  C27_33
REMARK    5  A    between atoms: C16_19  and  O3_24
REMARK    6  A    between atoms: C17_21  and  C18_22
REMARK    7  A    between atoms: C17_21  and  C19_23
REMARK    8  A    between atoms: O3_24  and  C20_25
REMARK    9  A    between atoms: C20_25  and  C21_27
REMARK                            x       y       z     vdW  Elec       q    Type
REMARK                         _______ _______ _______ _____ _____    ______ ____
ROOT
ATOM      3  C   UNL     1      46.671  12.213  17.179  0.00  0.00    -0.208 C 
ATOM      4  C   UNL     1      46.212  13.499  17.049  0.00  0.00    +0.135 C 
ATOM      5  C   UNL     1      46.670  14.554  17.847  0.00  0.00    -0.132 C 
ATOM      6  C   UNL     1      46.226  15.813  17.605  0.00  0.00    +0.099 C 
ATOM      7  C   UNL     1      46.767  16.924  18.283  0.00  0.00    -0.025 C 
ATOM      8  C   UNL     1      47.813  16.827  19.108  0.00  0.00    -0.028 C 
ATOM      9  C   UNL     1      48.357  15.484  19.506  0.00  0.00    -0.012 C 
ATOM     10  C   UNL     1      48.101  15.347  21.018  0.00  0.00    +0.038 C 
ATOM     11  C   UNL     1      49.866  15.466  19.365  0.00  0.00    +0.065 C 
ATOM     12  C   UNL     1      50.479  16.638  20.135  0.00  0.00    +0.012 C 
ATOM     13  C   UNL     1      49.956  17.974  19.643  0.00  0.00    +0.189 C 
ATOM     23  C   UNL     1      48.428  18.089  19.670  0.00  0.00    -0.020 C 
ATOM     24  C   UNL     1      48.071  19.293  18.762  0.00  0.00    +0.041 C 
ATOM     25  C   UNL     1      47.926  18.417  21.075  0.00  0.00    +0.062 C 
ATOM     26  C   UNL     1      47.624  14.294  18.974  0.00  0.00    +0.041 C 
ATOM     27  C   UNL     1      48.462  13.088  18.658  0.00  0.00    +0.338 C 
ATOM     28  O   UNL     1      49.646  13.010  18.870  0.00  0.00    -0.389 OA
ATOM     29  C   UNL     1      47.743  11.924  18.041  0.00  0.00    +0.352 C 
ATOM     30  O   UNL     1      48.082  10.779  18.281  0.00  0.00    -0.404 OA
ENDROOT
BRANCH   3   2
ATOM      1  C   UNL     1      44.551  11.401  16.184  0.00  0.00    +0.026 C 
ATOM      2  C   UNL     1      46.041  11.109  16.373  0.00  0.00    +0.041 C 
ATOM     31  C   UNL     1      46.721  11.021  15.005  0.00  0.00    +0.031 C 
ENDBRANCH   3   2
BRANCH  13  14
ATOM     14  O   UNL     1      50.512  19.018  20.453  0.00  0.00    -0.339 OA
BRANCH  14  15
ATOM     15  C   UNL     1      51.557  19.698  19.941  0.00  0.00    +0.507 C 
ATOM     22  O   UNL     1      52.426  20.120  20.678  0.00  0.00    -0.501 OA
BRANCH  15  16
ATOM     16  C   UNL     1      51.646  19.930  18.485  0.00  0.00    -0.128 A 
ATOM     17  C   UNL     1      51.242  21.152  17.942  0.00  0.00    +0.076 A 
ATOM     18  C   UNL     1      51.328  21.361  16.582  0.00  0.00    -0.001 A 
ATOM     19  C   UNL     1      51.813  20.363  15.755  0.00  0.00    +0.048 A 
ATOM     20  C   UNL     1      52.214  19.150  16.285  0.00  0.00    +0.003 A 
ATOM     21  C   UNL     1      52.140  18.930  17.646  0.00  0.00    +0.082 A 
ENDBRANCH  15  16
ENDBRANCH  14  15
ENDBRANCH  13  14
TORSDOF 4
ENDMDL
