MODEL 1
REMARK VINA RESULT:      -6.0      0.000      0.000
REMARK  Name = ZINC06523722
REMARK  2 active torsions:
REMARK  status: ('A' for Active; 'I' for Inactive)
REMARK    1  A    between atoms: C1_1  and  N1_2
REMARK    2  A    between atoms: C10_11  and  O1_12
REMARK                            x       y       z     vdW  Elec       q    Type
REMARK                         _______ _______ _______ _____ _____    ______ ____
ROOT
ATOM      1  C   UNL     1      44.176  18.289  20.591  0.00  0.00    +0.314 C 
ATOM      2  N   UNL     1      44.119  19.750  20.498  0.00  0.00    -0.529 N 
ATOM      3  C   UNL     1      45.144  20.498  21.041  0.00  0.00    +0.216 A 
ATOM      4  C   UNL     1      46.050  19.915  21.923  0.00  0.00    -0.047 A 
ATOM      5  C   UNL     1      47.073  20.666  22.457  0.00  0.00    +0.082 A 
ATOM      6  C   UNL     1      47.215  22.007  22.125  0.00  0.00    -0.032 A 
ATOM      7  C   UNL     1      46.329  22.606  21.257  0.00  0.00    +0.114 A 
ATOM      8  C   UNL     1      45.286  21.857  20.711  0.00  0.00    -0.209 A 
ATOM      9  C   UNL     1      44.313  22.469  19.786  0.00  0.00    +0.438 A 
ATOM     10  O   UNL     1      44.507  23.565  19.291  0.00  0.00    -0.454 OA
ATOM     11  C   UNL     1      43.096  21.696  19.490  0.00  0.00    -0.243 A 
ATOM     12  C   UNL     1      42.002  22.288  18.846  0.00  0.00    +0.205 A 
ATOM     13  C   UNL     1      40.870  21.533  18.590  0.00  0.00    -0.058 A 
ATOM     14  C   UNL     1      40.822  20.202  18.968  0.00  0.00    +0.105 A 
ATOM     15  C   UNL     1      41.893  19.606  19.600  0.00  0.00    -0.058 A 
ATOM     18  C   UNL     1      43.046  20.342  19.863  0.00  0.00    +0.235 A 
ENDROOT
BRANCH  12  16
ATOM     16  O   UNL     1      42.051  23.594  18.476  0.00  0.00    -0.481 OA
ATOM     17  H   UNL     1      42.278  23.730  17.545  0.00  0.00    +0.401 HD
ENDBRANCH  12  16
TORSDOF 1
ENDMDL
MODEL 2
REMARK VINA RESULT:      -5.8     20.892     21.990
REMARK  Name = ZINC06523722
REMARK  2 active torsions:
REMARK  status: ('A' for Active; 'I' for Inactive)
REMARK    1  A    between atoms: C1_1  and  N1_2
REMARK    2  A    between atoms: C10_11  and  O1_12
REMARK                            x       y       z     vdW  Elec       q    Type
REMARK                         _______ _______ _______ _____ _____    ______ ____
ROOT
ATOM      1  C   UNL     1      53.788  31.801   2.968  0.00  0.00    +0.314 C 
ATOM      2  N   UNL     1      54.204  32.518   4.175  0.00  0.00    -0.529 N 
ATOM      3  C   UNL     1      55.550  32.718   4.408  0.00  0.00    +0.216 A 
ATOM      4  C   UNL     1      56.502  32.000   3.691  0.00  0.00    -0.047 A 
ATOM      5  C   UNL     1      57.843  32.209   3.924  0.00  0.00    +0.082 A 
ATOM      6  C   UNL     1      58.262  33.134   4.871  0.00  0.00    -0.032 A 
ATOM      7  C   UNL     1      57.338  33.855   5.594  0.00  0.00    +0.114 A 
ATOM      8  C   UNL     1      55.976  33.650   5.370  0.00  0.00    -0.209 A 
ATOM      9  C   UNL     1      54.958  34.398   6.135  0.00  0.00    +0.438 A 
ATOM     10  O   UNL     1      55.254  35.366   6.813  0.00  0.00    -0.454 OA
ATOM     11  C   UNL     1      53.569  33.919   6.042  0.00  0.00    -0.243 A 
ATOM     12  C   UNL     1      52.584  34.385   6.923  0.00  0.00    +0.205 A 
ATOM     13  C   UNL     1      51.290  33.907   6.812  0.00  0.00    -0.058 A 
ATOM     14  C   UNL     1      50.972  32.977   5.836  0.00  0.00    +0.105 A 
ATOM     15  C   UNL     1      51.932  32.513   4.962  0.00  0.00    -0.058 A 
ATOM     18  C   UNL     1      53.240  32.982   5.048  0.00  0.00    +0.235 A 
ENDROOT
BRANCH  12  16
ATOM     16  O   UNL     1      52.897  35.297   7.878  0.00  0.00    -0.481 OA
ATOM     17  H   UNL     1      52.806  36.216   7.589  0.00  0.00    +0.401 HD
ENDBRANCH  12  16
TORSDOF 1
ENDMDL
MODEL 3
REMARK VINA RESULT:      -5.3      2.091      5.441
REMARK  Name = ZINC06523722
REMARK  2 active torsions:
REMARK  status: ('A' for Active; 'I' for Inactive)
REMARK    1  A    between atoms: C1_1  and  N1_2
REMARK    2  A    between atoms: C10_11  and  O1_12
REMARK                            x       y       z     vdW  Elec       q    Type
REMARK                         _______ _______ _______ _____ _____    ______ ____
ROOT
ATOM      1  C   UNL     1      44.126  23.802  19.191  0.00  0.00    +0.314 C 
ATOM      2  N   UNL     1      43.893  22.477  19.772  0.00  0.00    -0.529 N 
ATOM      3  C   UNL     1      42.762  21.774  19.409  0.00  0.00    +0.216 A 
ATOM      4  C   UNL     1      41.714  22.415  18.755  0.00  0.00    -0.047 A 
ATOM      5  C   UNL     1      40.591  21.706  18.392  0.00  0.00    +0.082 A 
ATOM      6  C   UNL     1      40.490  20.349  18.668  0.00  0.00    -0.032 A 
ATOM      7  C   UNL     1      41.514  19.693  19.315  0.00  0.00    +0.114 A 
ATOM      8  C   UNL     1      42.655  20.401  19.693  0.00  0.00    -0.209 A 
ATOM      9  C   UNL     1      43.766  19.733  20.398  0.00  0.00    +0.438 A 
ATOM     10  O   UNL     1      43.834  18.519  20.474  0.00  0.00    -0.454 OA
ATOM     11  C   UNL     1      44.788  20.600  21.006  0.00  0.00    -0.243 A 
ATOM     12  C   UNL     1      45.726  20.086  21.911  0.00  0.00    +0.205 A 
ATOM     13  C   UNL     1      46.668  20.932  22.471  0.00  0.00    -0.058 A 
ATOM     14  C   UNL     1      46.683  22.276  22.136  0.00  0.00    +0.105 A 
ATOM     15  C   UNL     1      45.766  22.793  21.245  0.00  0.00    -0.058 A 
ATOM     18  C   UNL     1      44.812  21.963  20.663  0.00  0.00    +0.235 A 
ENDROOT
BRANCH  12  16
ATOM     16  O   UNL     1      45.711  18.769  22.238  0.00  0.00    -0.481 OA
ATOM     17  H   UNL     1      45.632  18.600  23.187  0.00  0.00    +0.401 HD
ENDBRANCH  12  16
TORSDOF 1
ENDMDL
MODEL 4
REMARK VINA RESULT:      -5.2      4.347      6.321
REMARK  Name = ZINC06523722
REMARK  2 active torsions:
REMARK  status: ('A' for Active; 'I' for Inactive)
REMARK    1  A    between atoms: C1_1  and  N1_2
REMARK    2  A    between atoms: C10_11  and  O1_12
REMARK                            x       y       z     vdW  Elec       q    Type
REMARK                         _______ _______ _______ _____ _____    ______ ____
ROOT
ATOM      1  C   UNL     1      45.549  14.033  21.341  0.00  0.00    +0.314 C 
ATOM      2  N   UNL     1      45.396  15.106  20.356  0.00  0.00    -0.529 N 
ATOM      3  C   UNL     1      44.737  16.263  20.720  0.00  0.00    +0.216 A 
ATOM      4  C   UNL     1      43.968  16.300  21.880  0.00  0.00    -0.047 A 
ATOM      5  C   UNL     1      43.318  17.459  22.240  0.00  0.00    +0.082 A 
ATOM      6  C   UNL     1      43.420  18.601  21.457  0.00  0.00    -0.032 A 
ATOM      7  C   UNL     1      44.174  18.588  20.304  0.00  0.00    +0.114 A 
ATOM      8  C   UNL     1      44.834  17.419  19.926  0.00  0.00    -0.209 A 
ATOM      9  C   UNL     1      45.641  17.367  18.691  0.00  0.00    +0.438 A 
ATOM     10  O   UNL     1      45.946  18.379  18.085  0.00  0.00    -0.454 OA
ATOM     11  C   UNL     1      46.059  16.035  18.223  0.00  0.00    -0.243 A 
ATOM     12  C   UNL     1      46.592  15.854  16.940  0.00  0.00    +0.205 A 
ATOM     13  C   UNL     1      46.968  14.586  16.531  0.00  0.00    -0.058 A 
ATOM     14  C   UNL     1      46.819  13.506  17.385  0.00  0.00    +0.105 A 
ATOM     15  C   UNL     1      46.299  13.672  18.651  0.00  0.00    -0.058 A 
ATOM     18  C   UNL     1      45.919  14.937  19.090  0.00  0.00    +0.235 A 
ENDROOT
BRANCH  12  16
ATOM     16  O   UNL     1      46.738  16.914  16.105  0.00  0.00    -0.481 OA
ATOM     17  H   UNL     1      46.248  16.830  15.275  0.00  0.00    +0.401 HD
ENDBRANCH  12  16
TORSDOF 1
ENDMDL
MODEL 5
REMARK VINA RESULT:      -5.2      4.683      6.488
REMARK  Name = ZINC06523722
REMARK  2 active torsions:
REMARK  status: ('A' for Active; 'I' for Inactive)
REMARK    1  A    between atoms: C1_1  and  N1_2
REMARK    2  A    between atoms: C10_11  and  O1_12
REMARK                            x       y       z     vdW  Elec       q    Type
REMARK                         _______ _______ _______ _____ _____    ______ ____
ROOT
ATOM      1  C   UNL     1      44.709  15.804  21.392  0.00  0.00    +0.314 C 
ATOM      2  N   UNL     1      45.117  16.172  20.034  0.00  0.00    -0.529 N 
ATOM      3  C   UNL     1      45.030  17.493  19.641  0.00  0.00    +0.216 A 
ATOM      4  C   UNL     1      44.291  18.403  20.391  0.00  0.00    -0.047 A 
ATOM      5  C   UNL     1      44.214  19.720  19.996  0.00  0.00    +0.082 A 
ATOM      6  C   UNL     1      44.868  20.156  18.851  0.00  0.00    -0.032 A 
ATOM      7  C   UNL     1      45.603  19.273  18.092  0.00  0.00    +0.114 A 
ATOM      8  C   UNL     1      45.687  17.935  18.479  0.00  0.00    -0.209 A 
ATOM      9  C   UNL     1      46.456  16.959  17.683  0.00  0.00    +0.438 A 
ATOM     10  O   UNL     1      47.221  17.315  16.804  0.00  0.00    -0.454 OA
ATOM     11  C   UNL     1      46.256  15.535  17.998  0.00  0.00    -0.243 A 
ATOM     12  C   UNL     1      46.727  14.532  17.141  0.00  0.00    +0.205 A 
ATOM     13  C   UNL     1      46.514  13.203  17.464  0.00  0.00    -0.058 A 
ATOM     14  C   UNL     1      45.842  12.869  18.628  0.00  0.00    +0.105 A 
ATOM     15  C   UNL     1      45.376  13.847  19.482  0.00  0.00    -0.058 A 
ATOM     18  C   UNL     1      45.583  15.191  19.183  0.00  0.00    +0.235 A 
ENDROOT
BRANCH  12  16
ATOM     16  O   UNL     1      47.386  14.861  16.000  0.00  0.00    -0.481 OA
ATOM     17  H   UNL     1      46.817  14.918  15.220  0.00  0.00    +0.401 HD
ENDBRANCH  12  16
TORSDOF 1
ENDMDL
MODEL 6
REMARK VINA RESULT:      -5.1     21.126     22.579
REMARK  Name = ZINC06523722
REMARK  2 active torsions:
REMARK  status: ('A' for Active; 'I' for Inactive)
REMARK    1  A    between atoms: C1_1  and  N1_2
REMARK    2  A    between atoms: C10_11  and  O1_12
REMARK                            x       y       z     vdW  Elec       q    Type
REMARK                         _______ _______ _______ _____ _____    ______ ____
ROOT
ATOM      1  C   UNL     1      55.245  35.390   6.495  0.00  0.00    +0.314 C 
ATOM      2  N   UNL     1      54.878  34.169   5.773  0.00  0.00    -0.529 N 
ATOM      3  C   UNL     1      53.561  33.758   5.774  0.00  0.00    +0.216 A 
ATOM      4  C   UNL     1      52.655  34.301   6.682  0.00  0.00    -0.047 A 
ATOM      5  C   UNL     1      51.341  33.889   6.673  0.00  0.00    +0.082 A 
ATOM      6  C   UNL     1      50.902  32.936   5.764  0.00  0.00    -0.032 A 
ATOM      7  C   UNL     1      51.781  32.384   4.858  0.00  0.00    +0.114 A 
ATOM      8  C   UNL     1      53.116  32.789   4.859  0.00  0.00    -0.209 A 
ATOM      9  C   UNL     1      54.086  32.210   3.909  0.00  0.00    +0.438 A 
ATOM     10  O   UNL     1      53.725  31.541   2.957  0.00  0.00    -0.454 OA
ATOM     11  C   UNL     1      55.511  32.476   4.166  0.00  0.00    -0.243 A 
ATOM     12  C   UNL     1      56.512  31.765   3.491  0.00  0.00    +0.205 A 
ATOM     13  C   UNL     1      57.842  32.036   3.763  0.00  0.00    -0.058 A 
ATOM     14  C   UNL     1      58.179  33.004   4.695  0.00  0.00    +0.105 A 
ATOM     15  C   UNL     1      57.203  33.712   5.364  0.00  0.00    -0.058 A 
ATOM     18  C   UNL     1      55.858  33.464   5.104  0.00  0.00    +0.235 A 
ENDROOT
BRANCH  12  16
ATOM     16  O   UNL     1      56.180  30.818   2.577  0.00  0.00    -0.481 OA
ATOM     17  H   UNL     1      55.349  30.992   2.115  0.00  0.00    +0.401 HD
ENDBRANCH  12  16
TORSDOF 1
ENDMDL
MODEL 7
REMARK VINA RESULT:      -5.1     21.419     22.882
REMARK  Name = ZINC06523722
REMARK  2 active torsions:
REMARK  status: ('A' for Active; 'I' for Inactive)
REMARK    1  A    between atoms: C1_1  and  N1_2
REMARK    2  A    between atoms: C10_11  and  O1_12
REMARK                            x       y       z     vdW  Elec       q    Type
REMARK                         _______ _______ _______ _____ _____    ______ ____
ROOT
ATOM      1  C   UNL     1      54.787  31.628   1.426  0.00  0.00    +0.314 C 
ATOM      2  N   UNL     1      54.334  32.308   2.642  0.00  0.00    -0.529 N 
ATOM      3  C   UNL     1      52.989  32.574   2.802  0.00  0.00    +0.216 A 
ATOM      4  C   UNL     1      52.121  32.486   1.718  0.00  0.00    -0.047 A 
ATOM      5  C   UNL     1      50.779  32.748   1.886  0.00  0.00    +0.082 A 
ATOM      6  C   UNL     1      50.277  33.100   3.131  0.00  0.00    -0.032 A 
ATOM      7  C   UNL     1      51.117  33.195   4.218  0.00  0.00    +0.114 A 
ATOM      8  C   UNL     1      52.479  32.936   4.061  0.00  0.00    -0.209 A 
ATOM      9  C   UNL     1      53.410  33.040   5.202  0.00  0.00    +0.438 A 
ATOM     10  O   UNL     1      53.006  33.128   6.348  0.00  0.00    -0.454 OA
ATOM     11  C   UNL     1      54.849  33.033   4.891  0.00  0.00    -0.243 A 
ATOM     12  C   UNL     1      55.798  33.388   5.859  0.00  0.00    +0.205 A 
ATOM     13  C   UNL     1      57.143  33.379   5.530  0.00  0.00    -0.058 A 
ATOM     14  C   UNL     1      57.545  33.019   4.254  0.00  0.00    +0.105 A 
ATOM     15  C   UNL     1      56.621  32.665   3.294  0.00  0.00    -0.058 A 
ATOM     18  C   UNL     1      55.262  32.660   3.601  0.00  0.00    +0.235 A 
ENDROOT
BRANCH  12  16
ATOM     16  O   UNL     1      55.402  33.740   7.109  0.00  0.00    -0.481 OA
ATOM     17  H   UNL     1      55.113  32.996   7.653  0.00  0.00    +0.401 HD
ENDBRANCH  12  16
TORSDOF 1
ENDMDL
MODEL 8
REMARK VINA RESULT:      -5.0     21.599     22.513
REMARK  Name = ZINC06523722
REMARK  2 active torsions:
REMARK  status: ('A' for Active; 'I' for Inactive)
REMARK    1  A    between atoms: C1_1  and  N1_2
REMARK    2  A    between atoms: C10_11  and  O1_12
REMARK                            x       y       z     vdW  Elec       q    Type
REMARK                         _______ _______ _______ _____ _____    ______ ____
ROOT
ATOM      1  C   UNL     1      54.405  31.849   1.638  0.00  0.00    +0.314 C 
ATOM      2  N   UNL     1      54.327  32.482   2.957  0.00  0.00    -0.529 N 
ATOM      3  C   UNL     1      55.477  32.609   3.711  0.00  0.00    +0.216 A 
ATOM      4  C   UNL     1      56.620  31.889   3.377  0.00  0.00    -0.047 A 
ATOM      5  C   UNL     1      57.765  32.026   4.130  0.00  0.00    +0.082 A 
ATOM      6  C   UNL     1      57.796  32.879   5.225  0.00  0.00    -0.032 A 
ATOM      7  C   UNL     1      56.675  33.600   5.575  0.00  0.00    +0.114 A 
ATOM      8  C   UNL     1      55.508  33.468   4.823  0.00  0.00    -0.209 A 
ATOM      9  C   UNL     1      54.286  34.217   5.177  0.00  0.00    +0.438 A 
ATOM     10  O   UNL     1      54.310  35.133   5.980  0.00  0.00    -0.454 OA
ATOM     11  C   UNL     1      53.037  33.806   4.516  0.00  0.00    -0.243 A 
ATOM     12  C   UNL     1      51.794  34.266   4.971  0.00  0.00    +0.205 A 
ATOM     13  C   UNL     1      50.638  33.852   4.331  0.00  0.00    -0.058 A 
ATOM     14  C   UNL     1      50.712  32.991   3.248  0.00  0.00    +0.105 A 
ATOM     15  C   UNL     1      51.929  32.533   2.790  0.00  0.00    -0.058 A 
ATOM     18  C   UNL     1      53.107  32.939   3.412  0.00  0.00    +0.235 A 
ENDROOT
BRANCH  12  16
ATOM     16  O   UNL     1      51.723  35.111   6.031  0.00  0.00    -0.481 OA
ATOM     17  H   UNL     1      52.463  35.731   6.089  0.00  0.00    +0.401 HD
ENDBRANCH  12  16
TORSDOF 1
ENDMDL
MODEL 9
REMARK VINA RESULT:      -4.9      6.028      7.190
REMARK  Name = ZINC06523722
REMARK  2 active torsions:
REMARK  status: ('A' for Active; 'I' for Inactive)
REMARK    1  A    between atoms: C1_1  and  N1_2
REMARK    2  A    between atoms: C10_11  and  O1_12
REMARK                            x       y       z     vdW  Elec       q    Type
REMARK                         _______ _______ _______ _____ _____    ______ ____
ROOT
ATOM      1  C   UNL     1      47.950  19.894  19.981  0.00  0.00    +0.314 C 
ATOM      2  N   UNL     1      48.556  19.093  18.914  0.00  0.00    -0.529 N 
ATOM      3  C   UNL     1      49.758  19.498  18.370  0.00  0.00    +0.216 A 
ATOM      4  C   UNL     1      50.236  20.786  18.599  0.00  0.00    -0.047 A 
ATOM      5  C   UNL     1      51.439  21.182  18.057  0.00  0.00    +0.082 A 
ATOM      6  C   UNL     1      52.188  20.307  17.281  0.00  0.00    -0.032 A 
ATOM      7  C   UNL     1      51.735  19.029  17.040  0.00  0.00    +0.114 A 
ATOM      8  C   UNL     1      50.516  18.617  17.580  0.00  0.00    -0.209 A 
ATOM      9  C   UNL     1      49.996  17.258  17.332  0.00  0.00    +0.438 A 
ATOM     10  O   UNL     1      50.696  16.385  16.851  0.00  0.00    -0.454 OA
ATOM     11  C   UNL     1      48.591  17.007  17.692  0.00  0.00    -0.243 A 
ATOM     12  C   UNL     1      47.931  15.849  17.260  0.00  0.00    +0.205 A 
ATOM     13  C   UNL     1      46.606  15.648  17.609  0.00  0.00    -0.058 A 
ATOM     14  C   UNL     1      45.941  16.585  18.382  0.00  0.00    +0.105 A 
ATOM     15  C   UNL     1      46.580  17.727  18.816  0.00  0.00    -0.058 A 
ATOM     18  C   UNL     1      47.914  17.950  18.483  0.00  0.00    +0.235 A 
ENDROOT
BRANCH  12  16
ATOM     16  O   UNL     1      48.584  14.931  16.503  0.00  0.00    -0.481 OA
ATOM     17  H   UNL     1      48.187  14.049  16.524  0.00  0.00    +0.401 HD
ENDBRANCH  12  16
TORSDOF 1
ENDMDL
