MODEL 1
REMARK VINA RESULT:      -7.1      0.000      0.000
REMARK  Name = ZINC95485943
REMARK  6 active torsions:
REMARK  status: ('A' for Active; 'I' for Inactive)
REMARK    1  A    between atoms: C1_1  and  C2_2
REMARK    2  A    between atoms: C4_4  and  O9_40
REMARK    3  A    between atoms: C10_17  and  C11_19
REMARK    4  A    between atoms: C18_29  and  C25_39
REMARK    5  A    between atoms: C22_35  and  C23_36
REMARK    6  A    between atoms: C22_35  and  C24_37
REMARK                            x       y       z     vdW  Elec       q    Type
REMARK                         _______ _______ _______ _____ _____    ______ ____
ROOT
ATOM      1  C   UNL     1      45.966  19.185  21.908  0.00  0.00    +0.062 C 
ATOM      2  C   UNL     1      44.848  19.033  20.875  0.00  0.00    -0.064 C 
ATOM      3  C   UNL     1      44.065  17.776  21.236  0.00  0.00    +0.045 C 
ATOM      4  C   UNL     1      45.014  16.570  21.212  0.00  0.00    +0.181 C 
ATOM      7  C   UNL     1      45.599  16.399  19.818  0.00  0.00    +0.068 C 
ATOM      8  C   UNL     1      46.432  17.634  19.439  0.00  0.00    +0.020 C 
ATOM      9  C   UNL     1      46.932  17.409  18.031  0.00  0.00    +0.368 C 
ATOM     10  C   UNL     1      47.747  16.159  17.781  0.00  0.00    +0.039 C 
ATOM     11  C   UNL     1      46.996  14.925  18.299  0.00  0.00    +0.044 C 
ATOM     12  C   UNL     1      47.965  13.733  18.203  0.00  0.00    +0.147 C 
ATOM     13  C   UNL     1      48.142  13.351  16.733  0.00  0.00    +0.087 C 
ATOM     14  C   UNL     1      49.321  14.145  18.778  0.00  0.00    +0.022 C 
ATOM     15  O   UNL     1      47.528  12.634  18.929  0.00  0.00    -0.363 OA
ATOM     16  C   UNL     1      47.895  12.556  20.217  0.00  0.00    +0.500 C 
ATOM     17  O   UNL     1      48.855  11.882  20.507  0.00  0.00    -0.437 OA
ATOM     18  C   UNL     1      47.173  13.261  21.295  0.00  0.00    +0.082 C 
ATOM     19  C   UNL     1      47.170  14.738  20.877  0.00  0.00    +0.400 C 
ATOM     20  O   UNL     1      47.767  15.551  21.540  0.00  0.00    -0.430 OA
ATOM     21  O   UNL     1      46.691  18.192  17.144  0.00  0.00    -0.420 OA
ATOM     22  C   UNL     1      46.450  15.165  19.680  0.00  0.00    -0.123 C 
ATOM     23  C   UNL     1      45.337  14.115  19.677  0.00  0.00    +0.049 C 
ATOM     24  C   UNL     1      44.006  20.285  20.936  0.00  0.00    +0.334 C 
ATOM     30  O   UNL     1      44.779  21.433  20.511  0.00  0.00    -0.337 OA
ATOM     31  C   UNL     1      45.325  21.421  19.291  0.00  0.00    +0.496 C 
ATOM     32  O   UNL     1      45.416  22.443  18.652  0.00  0.00    -0.429 OA
ATOM     33  C   UNL     1      45.828  20.110  18.714  0.00  0.00    +0.127 C 
ATOM     34  O   UNL     1      44.792  19.187  18.330  0.00  0.00    -0.286 OA
ATOM     35  C   UNL     1      45.513  18.851  19.513  0.00  0.00    +0.056 C 
ENDROOT
BRANCH  24  25
ATOM     25  C   UNL     1      42.782  20.096  20.078  0.00  0.00    -0.228 A 
ATOM     26  C   UNL     1      42.302  20.984  19.088  0.00  0.00    -0.041 A 
ATOM     27  C   UNL     1      41.191  20.428  18.572  0.00  0.00    +0.171 A 
ATOM     28  O   UNL     1      40.974  19.257  19.194  0.00  0.00    -0.168 OA
ATOM     29  C   UNL     1      41.938  19.049  20.105  0.00  0.00    +0.198 A 
ENDBRANCH  24  25
BRANCH   4   5
ATOM      5  O   UNL     1      44.290  15.390  21.569  0.00  0.00    -0.551 OA
ATOM      6  H   UNL     1      44.596  14.973  22.387  0.00  0.00    +0.378 HD
ENDBRANCH   4   5
TORSDOF 2
ENDMDL
MODEL 2
REMARK VINA RESULT:      -6.9      3.427      7.222
REMARK  Name = ZINC95485943
REMARK  6 active torsions:
REMARK  status: ('A' for Active; 'I' for Inactive)
REMARK    1  A    between atoms: C1_1  and  C2_2
REMARK    2  A    between atoms: C4_4  and  O9_40
REMARK    3  A    between atoms: C10_17  and  C11_19
REMARK    4  A    between atoms: C18_29  and  C25_39
REMARK    5  A    between atoms: C22_35  and  C23_36
REMARK    6  A    between atoms: C22_35  and  C24_37
REMARK                            x       y       z     vdW  Elec       q    Type
REMARK                         _______ _______ _______ _____ _____    ______ ____
ROOT
ATOM      1  C   UNL     1      50.418  17.609  20.388  0.00  0.00    +0.062 C 
ATOM      2  C   UNL     1      50.437  18.455  19.114  0.00  0.00    -0.064 C 
ATOM      3  C   UNL     1      50.177  19.900  19.526  0.00  0.00    +0.045 C 
ATOM      4  C   UNL     1      48.815  19.983  20.230  0.00  0.00    +0.181 C 
ATOM      7  C   UNL     1      47.713  19.538  19.280  0.00  0.00    +0.068 C 
ATOM      8  C   UNL     1      47.923  18.070  18.877  0.00  0.00    +0.020 C 
ATOM      9  C   UNL     1      46.823  17.724  17.900  0.00  0.00    +0.368 C 
ATOM     10  C   UNL     1      45.398  17.916  18.370  0.00  0.00    +0.039 C 
ATOM     11  C   UNL     1      45.211  19.335  18.924  0.00  0.00    +0.044 C 
ATOM     12  C   UNL     1      43.814  19.388  19.568  0.00  0.00    +0.147 C 
ATOM     13  C   UNL     1      42.755  19.380  18.464  0.00  0.00    +0.087 C 
ATOM     14  C   UNL     1      43.623  18.152  20.449  0.00  0.00    +0.022 C 
ATOM     15  O   UNL     1      43.645  20.500  20.379  0.00  0.00    -0.363 OA
ATOM     16  C   UNL     1      44.002  20.388  21.667  0.00  0.00    +0.500 C 
ATOM     17  O   UNL     1      43.149  20.140  22.486  0.00  0.00    -0.437 OA
ATOM     18  C   UNL     1      45.395  20.556  22.126  0.00  0.00    +0.082 C 
ATOM     19  C   UNL     1      46.212  19.550  21.303  0.00  0.00    +0.400 C 
ATOM     20  O   UNL     1      46.757  18.624  21.856  0.00  0.00    -0.430 OA
ATOM     21  O   UNL     1      47.072  17.312  16.793  0.00  0.00    -0.420 OA
ATOM     22  C   UNL     1      46.332  19.704  19.856  0.00  0.00    -0.123 C 
ATOM     23  C   UNL     1      46.223  21.227  19.763  0.00  0.00    +0.049 C 
ATOM     24  C   UNL     1      51.788  18.265  18.468  0.00  0.00    +0.334 C 
ATOM     30  O   UNL     1      51.949  16.895  18.030  0.00  0.00    -0.337 OA
ATOM     31  C   UNL     1      51.060  16.390  17.169  0.00  0.00    +0.496 C 
ATOM     32  O   UNL     1      51.408  15.594  16.329  0.00  0.00    -0.429 OA
ATOM     33  C   UNL     1      49.610  16.828  17.255  0.00  0.00    +0.127 C 
ATOM     34  O   UNL     1      49.364  18.177  16.817  0.00  0.00    -0.286 OA
ATOM     35  C   UNL     1      49.299  17.962  18.225  0.00  0.00    +0.056 C 
ENDROOT
BRANCH  24  25
ATOM     25  C   UNL     1      51.925  19.231  17.320  0.00  0.00    -0.228 A 
ATOM     26  C   UNL     1      51.772  20.636  17.378  0.00  0.00    -0.041 A 
ATOM     27  C   UNL     1      51.977  21.103  16.134  0.00  0.00    +0.171 A 
ATOM     28  O   UNL     1      52.246  20.060  15.329  0.00  0.00    -0.168 OA
ATOM     29  C   UNL     1      52.219  18.924  16.044  0.00  0.00    +0.198 A 
ENDBRANCH  24  25
BRANCH   4   5
ATOM      5  O   UNL     1      48.573  21.332  20.637  0.00  0.00    -0.551 OA
ATOM      6  H   UNL     1      49.375  21.828  20.850  0.00  0.00    +0.378 HD
ENDBRANCH   4   5
TORSDOF 2
ENDMDL
MODEL 3
REMARK VINA RESULT:      -6.8      3.062      7.306
REMARK  Name = ZINC95485943
REMARK  6 active torsions:
REMARK  status: ('A' for Active; 'I' for Inactive)
REMARK    1  A    between atoms: C1_1  and  C2_2
REMARK    2  A    between atoms: C4_4  and  O9_40
REMARK    3  A    between atoms: C10_17  and  C11_19
REMARK    4  A    between atoms: C18_29  and  C25_39
REMARK    5  A    between atoms: C22_35  and  C23_36
REMARK    6  A    between atoms: C22_35  and  C24_37
REMARK                            x       y       z     vdW  Elec       q    Type
REMARK                         _______ _______ _______ _____ _____    ______ ____
ROOT
ATOM      1  C   UNL     1      48.583  17.156  17.001  0.00  0.00    +0.062 C 
ATOM      2  C   UNL     1      49.506  17.232  18.218  0.00  0.00    -0.064 C 
ATOM      3  C   UNL     1      48.908  16.334  19.296  0.00  0.00    +0.045 C 
ATOM      4  C   UNL     1      47.496  16.831  19.635  0.00  0.00    +0.181 C 
ATOM      7  C   UNL     1      47.562  18.255  20.165  0.00  0.00    +0.068 C 
ATOM      8  C   UNL     1      48.122  19.196  19.085  0.00  0.00    +0.020 C 
ATOM      9  C   UNL     1      48.202  20.572  19.704  0.00  0.00    +0.368 C 
ATOM     10  C   UNL     1      46.921  21.154  20.258  0.00  0.00    +0.039 C 
ATOM     11  C   UNL     1      46.262  20.158  21.224  0.00  0.00    +0.044 C 
ATOM     12  C   UNL     1      44.876  20.724  21.580  0.00  0.00    +0.147 C 
ATOM     13  C   UNL     1      45.052  21.930  22.505  0.00  0.00    +0.087 C 
ATOM     14  C   UNL     1      44.177  21.179  20.298  0.00  0.00    +0.022 C 
ATOM     15  O   UNL     1      44.057  19.781  22.182  0.00  0.00    -0.363 OA
ATOM     16  C   UNL     1      43.302  19.013  21.381  0.00  0.00    +0.500 C 
ATOM     17  O   UNL     1      42.151  19.328  21.191  0.00  0.00    -0.437 OA
ATOM     18  C   UNL     1      43.822  17.798  20.722  0.00  0.00    +0.082 C 
ATOM     19  C   UNL     1      45.053  18.265  19.933  0.00  0.00    +0.400 C 
ATOM     20  O   UNL     1      45.049  18.213  18.726  0.00  0.00    -0.430 OA
ATOM     21  O   UNL     1      49.244  21.181  19.753  0.00  0.00    -0.420 OA
ATOM     22  C   UNL     1      46.229  18.775  20.633  0.00  0.00    -0.123 C 
ATOM     23  C   UNL     1      46.109  17.971  21.929  0.00  0.00    +0.049 C 
ATOM     24  C   UNL     1      50.876  16.779  17.773  0.00  0.00    +0.334 C 
ATOM     30  O   UNL     1      51.425  17.708  16.807  0.00  0.00    -0.337 OA
ATOM     31  C   UNL     1      51.562  18.990  17.160  0.00  0.00    +0.496 C 
ATOM     32  O   UNL     1      52.492  19.640  16.745  0.00  0.00    -0.429 OA
ATOM     33  C   UNL     1      50.540  19.620  18.087  0.00  0.00    +0.127 C 
ATOM     34  O   UNL     1      50.611  19.170  19.453  0.00  0.00    -0.286 OA
ATOM     35  C   UNL     1      49.506  18.680  18.697  0.00  0.00    +0.056 C 
ENDROOT
BRANCH  24  25
ATOM     25  C   UNL     1      51.767  16.647  18.980  0.00  0.00    -0.228 A 
ATOM     26  C   UNL     1      51.406  16.118  20.241  0.00  0.00    -0.041 A 
ATOM     27  C   UNL     1      52.498  16.190  21.022  0.00  0.00    +0.171 A 
ATOM     28  O   UNL     1      53.497  16.733  20.306  0.00  0.00    -0.168 OA
ATOM     29  C   UNL     1      53.060  17.007  19.066  0.00  0.00    +0.198 A 
ENDBRANCH  24  25
BRANCH   4   5
ATOM      5  O   UNL     1      46.922  15.982  20.632  0.00  0.00    -0.551 OA
ATOM      6  H   UNL     1      46.066  15.607  20.383  0.00  0.00    +0.378 HD
ENDBRANCH   4   5
TORSDOF 2
ENDMDL
MODEL 4
REMARK VINA RESULT:      -6.7      3.978      8.471
REMARK  Name = ZINC95485943
REMARK  6 active torsions:
REMARK  status: ('A' for Active; 'I' for Inactive)
REMARK    1  A    between atoms: C1_1  and  C2_2
REMARK    2  A    between atoms: C4_4  and  O9_40
REMARK    3  A    between atoms: C10_17  and  C11_19
REMARK    4  A    between atoms: C18_29  and  C25_39
REMARK    5  A    between atoms: C22_35  and  C23_36
REMARK    6  A    between atoms: C22_35  and  C24_37
REMARK                            x       y       z     vdW  Elec       q    Type
REMARK                         _______ _______ _______ _____ _____    ______ ____
ROOT
ATOM      1  C   UNL     1      52.003  13.694  18.402  0.00  0.00    +0.062 C 
ATOM      2  C   UNL     1      50.904  13.768  17.340  0.00  0.00    -0.064 C 
ATOM      3  C   UNL     1      51.407  14.687  16.231  0.00  0.00    +0.045 C 
ATOM      4  C   UNL     1      51.703  16.071  16.824  0.00  0.00    +0.181 C 
ATOM      7  C   UNL     1      50.433  16.664  17.414  0.00  0.00    +0.068 C 
ATOM      8  C   UNL     1      49.922  15.783  18.565  0.00  0.00    +0.020 C 
ATOM      9  C   UNL     1      48.639  16.410  19.059  0.00  0.00    +0.368 C 
ATOM     10  C   UNL     1      48.709  17.848  19.523  0.00  0.00    +0.039 C 
ATOM     11  C   UNL     1      49.363  18.721  18.443  0.00  0.00    +0.044 C 
ATOM     12  C   UNL     1      49.589  20.112  19.062  0.00  0.00    +0.147 C 
ATOM     13  C   UNL     1      48.240  20.818  19.208  0.00  0.00    +0.087 C 
ATOM     14  C   UNL     1      50.216  19.946  20.447  0.00  0.00    +0.022 C 
ATOM     15  O   UNL     1      50.454  20.893  18.310  0.00  0.00    -0.363 OA
ATOM     16  C   UNL     1      51.765  20.796  18.576  0.00  0.00    +0.500 C 
ATOM     17  O   UNL     1      52.273  21.616  19.304  0.00  0.00    -0.437 OA
ATOM     18  C   UNL     1      52.616  19.728  18.013  0.00  0.00    +0.082 C 
ATOM     19  C   UNL     1      51.936  18.415  18.426  0.00  0.00    +0.400 C 
ATOM     20  O   UNL     1      52.497  17.661  19.184  0.00  0.00    -0.430 OA
ATOM     21  O   UNL     1      47.603  15.789  19.083  0.00  0.00    -0.420 OA
ATOM     22  C   UNL     1      50.612  18.074  17.910  0.00  0.00    -0.123 C 
ATOM     23  C   UNL     1      50.687  18.788  16.559  0.00  0.00    +0.049 C 
ATOM     24  C   UNL     1      50.647  12.360  16.861  0.00  0.00    +0.334 C 
ATOM     30  O   UNL     1      50.101  11.554  17.934  0.00  0.00    -0.337 OA
ATOM     31  C   UNL     1      48.968  11.953  18.519  0.00  0.00    +0.496 C 
ATOM     32  O   UNL     1      48.166  11.139  18.913  0.00  0.00    -0.429 OA
ATOM     33  C   UNL     1      48.697  13.437  18.683  0.00  0.00    +0.127 C 
ATOM     34  O   UNL     1      48.383  14.128  17.460  0.00  0.00    -0.286 OA
ATOM     35  C   UNL     1      49.676  14.385  18.002  0.00  0.00    +0.056 C 
ENDROOT
BRANCH  24  25
ATOM     25  C   UNL     1      49.717  12.405  15.677  0.00  0.00    -0.228 A 
ATOM     26  C   UNL     1      48.443  11.798  15.582  0.00  0.00    -0.041 A 
ATOM     27  C   UNL     1      47.962  12.089  14.360  0.00  0.00    +0.171 A 
ATOM     28  O   UNL     1      48.872  12.837  13.714  0.00  0.00    -0.168 OA
ATOM     29  C   UNL     1      49.935  13.036  14.509  0.00  0.00    +0.198 A 
ENDBRANCH  24  25
BRANCH   4   5
ATOM      5  O   UNL     1      52.193  16.933  15.794  0.00  0.00    -0.551 OA
ATOM      6  H   UNL     1      51.748  16.820  14.942  0.00  0.00    +0.378 HD
ENDBRANCH   4   5
TORSDOF 2
ENDMDL
MODEL 5
REMARK VINA RESULT:      -6.4      2.189      2.938
REMARK  Name = ZINC95485943
REMARK  6 active torsions:
REMARK  status: ('A' for Active; 'I' for Inactive)
REMARK    1  A    between atoms: C1_1  and  C2_2
REMARK    2  A    between atoms: C4_4  and  O9_40
REMARK    3  A    between atoms: C10_17  and  C11_19
REMARK    4  A    between atoms: C18_29  and  C25_39
REMARK    5  A    between atoms: C22_35  and  C23_36
REMARK    6  A    between atoms: C22_35  and  C24_37
REMARK                            x       y       z     vdW  Elec       q    Type
REMARK                         _______ _______ _______ _____ _____    ______ ____
ROOT
ATOM      1  C   UNL     1      45.657  18.062  22.187  0.00  0.00    +0.062 C 
ATOM      2  C   UNL     1      45.051  18.731  20.951  0.00  0.00    -0.064 C 
ATOM      3  C   UNL     1      44.713  17.624  19.958  0.00  0.00    +0.045 C 
ATOM      4  C   UNL     1      45.996  16.859  19.604  0.00  0.00    +0.181 C 
ATOM      7  C   UNL     1      47.002  17.804  18.963  0.00  0.00    +0.068 C 
ATOM      8  C   UNL     1      47.397  18.909  19.956  0.00  0.00    +0.020 C 
ATOM      9  C   UNL     1      48.352  19.827  19.230  0.00  0.00    +0.368 C 
ATOM     10  C   UNL     1      49.604  19.202  18.653  0.00  0.00    +0.039 C 
ATOM     11  C   UNL     1      49.237  17.993  17.780  0.00  0.00    +0.044 C 
ATOM     12  C   UNL     1      50.554  17.292  17.404  0.00  0.00    +0.147 C 
ATOM     13  C   UNL     1      51.304  18.152  16.384  0.00  0.00    +0.087 C 
ATOM     14  C   UNL     1      51.417  17.143  18.658  0.00  0.00    +0.022 C 
ATOM     15  O   UNL     1      50.350  16.019  16.892  0.00  0.00    -0.363 OA
ATOM     16  C   UNL     1      50.304  15.001  17.764  0.00  0.00    +0.500 C 
ATOM     17  O   UNL     1      51.304  14.348  17.948  0.00  0.00    -0.437 OA
ATOM     18  C   UNL     1      49.079  14.644  18.508  0.00  0.00    +0.082 C 
ATOM     19  C   UNL     1      48.664  15.929  19.236  0.00  0.00    +0.400 C 
ATOM     20  O   UNL     1      48.685  15.970  20.443  0.00  0.00    -0.430 OA
ATOM     21  O   UNL     1      48.128  21.008  19.115  0.00  0.00    -0.420 OA
ATOM     22  C   UNL     1      48.244  17.105  18.478  0.00  0.00    -0.123 C 
ATOM     23  C   UNL     1      47.653  16.407  17.252  0.00  0.00    +0.049 C 
ATOM     24  C   UNL     1      43.834  19.499  21.408  0.00  0.00    +0.334 C 
ATOM     30  O   UNL     1      44.222  20.581  22.288  0.00  0.00    -0.337 OA
ATOM     31  C   UNL     1      45.083  21.498  21.833  0.00  0.00    +0.496 C 
ATOM     32  O   UNL     1      44.984  22.652  22.179  0.00  0.00    -0.429 OA
ATOM     33  C   UNL     1      46.182  21.076  20.877  0.00  0.00    +0.127 C 
ATOM     34  O   UNL     1      45.730  20.750  19.549  0.00  0.00    -0.286 OA
ATOM     35  C   UNL     1      46.121  19.644  20.360  0.00  0.00    +0.056 C 
ENDROOT
BRANCH  24  25
ATOM     25  C   UNL     1      43.093  20.009  20.199  0.00  0.00    -0.228 A 
ATOM     26  C   UNL     1      42.733  21.351  19.936  0.00  0.00    -0.041 A 
ATOM     27  C   UNL     1      42.088  21.358  18.755  0.00  0.00    +0.171 A 
ATOM     28  O   UNL     1      42.039  20.097  18.292  0.00  0.00    -0.168 OA
ATOM     29  C   UNL     1      42.651  19.277  19.161  0.00  0.00    +0.198 A 
ENDBRANCH  24  25
BRANCH   4   5
ATOM      5  O   UNL     1      45.684  15.808  18.687  0.00  0.00    -0.551 OA
ATOM      6  H   UNL     1      46.291  15.749  17.936  0.00  0.00    +0.378 HD
ENDBRANCH   4   5
TORSDOF 2
ENDMDL
MODEL 6
REMARK VINA RESULT:      -6.4      1.466      7.319
REMARK  Name = ZINC95485943
REMARK  6 active torsions:
REMARK  status: ('A' for Active; 'I' for Inactive)
REMARK    1  A    between atoms: C1_1  and  C2_2
REMARK    2  A    between atoms: C4_4  and  O9_40
REMARK    3  A    between atoms: C10_17  and  C11_19
REMARK    4  A    between atoms: C18_29  and  C25_39
REMARK    5  A    between atoms: C22_35  and  C23_36
REMARK    6  A    between atoms: C22_35  and  C24_37
REMARK                            x       y       z     vdW  Elec       q    Type
REMARK                         _______ _______ _______ _____ _____    ______ ____
ROOT
ATOM      1  C   UNL     1      49.090  16.188  19.804  0.00  0.00    +0.062 C 
ATOM      2  C   UNL     1      48.031  15.317  19.127  0.00  0.00    -0.064 C 
ATOM      3  C   UNL     1      47.530  16.080  17.905  0.00  0.00    +0.045 C 
ATOM      4  C   UNL     1      46.940  17.422  18.360  0.00  0.00    +0.181 C 
ATOM      7  C   UNL     1      45.770  17.180  19.301  0.00  0.00    +0.068 C 
ATOM      8  C   UNL     1      46.249  16.449  20.565  0.00  0.00    +0.020 C 
ATOM      9  C   UNL     1      45.026  16.203  21.418  0.00  0.00    +0.368 C 
ATOM     10  C   UNL     1      44.212  17.413  21.819  0.00  0.00    +0.039 C 
ATOM     11  C   UNL     1      43.856  18.246  20.579  0.00  0.00    +0.044 C 
ATOM     12  C   UNL     1      43.217  19.553  21.081  0.00  0.00    +0.147 C 
ATOM     13  C   UNL     1      41.818  19.250  21.621  0.00  0.00    +0.087 C 
ATOM     14  C   UNL     1      44.074  20.126  22.211  0.00  0.00    +0.022 C 
ATOM     15  O   UNL     1      43.143  20.521  20.091  0.00  0.00    -0.363 OA
ATOM     16  C   UNL     1      44.195  21.340  19.945  0.00  0.00    +0.500 C 
ATOM     17  O   UNL     1      44.163  22.427  20.473  0.00  0.00    -0.437 OA
ATOM     18  C   UNL     1      45.392  20.968  19.164  0.00  0.00    +0.082 C 
ATOM     19  C   UNL     1      45.881  19.651  19.783  0.00  0.00    +0.400 C 
ATOM     20  O   UNL     1      46.950  19.611  20.344  0.00  0.00    -0.430 OA
ATOM     21  O   UNL     1      44.713  15.090  21.765  0.00  0.00    -0.420 OA
ATOM     22  C   UNL     1      45.059  18.446  19.700  0.00  0.00    -0.123 C 
ATOM     23  C   UNL     1      44.339  18.733  18.381  0.00  0.00    +0.049 C 
ATOM     24  C   UNL     1      48.689  14.006  18.768  0.00  0.00    +0.334 C 
ATOM     30  O   UNL     1      49.076  13.292  19.967  0.00  0.00    -0.337 OA
ATOM     31  C   UNL     1      48.132  12.992  20.865  0.00  0.00    +0.496 C 
ATOM     32  O   UNL     1      48.195  11.963  21.495  0.00  0.00    -0.429 OA
ATOM     33  C   UNL     1      46.980  13.955  21.083  0.00  0.00    +0.127 C 
ATOM     34  O   UNL     1      46.028  14.006  20.004  0.00  0.00    -0.286 OA
ATOM     35  C   UNL     1      46.890  15.135  20.123  0.00  0.00    +0.056 C 
ENDROOT
BRANCH  24  25
ATOM     25  C   UNL     1      47.742  13.195  17.924  0.00  0.00    -0.228 A 
ATOM     26  C   UNL     1      47.500  11.805  18.026  0.00  0.00    -0.041 A 
ATOM     27  C   UNL     1      46.589  11.497  17.087  0.00  0.00    +0.171 A 
ATOM     28  O   UNL     1      46.266  12.621  16.424  0.00  0.00    -0.168 OA
ATOM     29  C   UNL     1      46.959  13.654  16.931  0.00  0.00    +0.198 A 
ENDBRANCH  24  25
BRANCH   4   5
ATOM      5  O   UNL     1      46.485  18.152  17.218  0.00  0.00    -0.551 OA
ATOM      6  H   UNL     1      45.626  17.860  16.882  0.00  0.00    +0.378 HD
ENDBRANCH   4   5
TORSDOF 2
ENDMDL
MODEL 7
REMARK VINA RESULT:      -6.3      1.886      7.259
REMARK  Name = ZINC95485943
REMARK  6 active torsions:
REMARK  status: ('A' for Active; 'I' for Inactive)
REMARK    1  A    between atoms: C1_1  and  C2_2
REMARK    2  A    between atoms: C4_4  and  O9_40
REMARK    3  A    between atoms: C10_17  and  C11_19
REMARK    4  A    between atoms: C18_29  and  C25_39
REMARK    5  A    between atoms: C22_35  and  C23_36
REMARK    6  A    between atoms: C22_35  and  C24_37
REMARK                            x       y       z     vdW  Elec       q    Type
REMARK                         _______ _______ _______ _____ _____    ______ ____
ROOT
ATOM      1  C   UNL     1      46.735  15.988  16.733  0.00  0.00    +0.062 C 
ATOM      2  C   UNL     1      47.364  15.615  18.077  0.00  0.00    -0.064 C 
ATOM      3  C   UNL     1      46.229  15.477  19.085  0.00  0.00    +0.045 C 
ATOM      4  C   UNL     1      45.472  16.809  19.174  0.00  0.00    +0.181 C 
ATOM      7  C   UNL     1      46.414  17.908  19.644  0.00  0.00    +0.068 C 
ATOM      8  C   UNL     1      47.549  18.103  18.626  0.00  0.00    +0.020 C 
ATOM      9  C   UNL     1      48.461  19.169  19.188  0.00  0.00    +0.368 C 
ATOM     10  C   UNL     1      47.839  20.511  19.506  0.00  0.00    +0.039 C 
ATOM     11  C   UNL     1      46.603  20.322  20.398  0.00  0.00    +0.044 C 
ATOM     12  C   UNL     1      45.910  21.692  20.505  0.00  0.00    +0.147 C 
ATOM     13  C   UNL     1      46.754  22.610  21.392  0.00  0.00    +0.087 C 
ATOM     14  C   UNL     1      45.804  22.309  19.109  0.00  0.00    +0.022 C 
ATOM     15  O   UNL     1      44.622  21.597  21.011  0.00  0.00    -0.363 OA
ATOM     16  C   UNL     1      43.626  21.399  20.135  0.00  0.00    +0.500 C 
ATOM     17  O   UNL     1      42.991  22.353  19.751  0.00  0.00    -0.437 OA
ATOM     18  C   UNL     1      43.271  20.060  19.621  0.00  0.00    +0.082 C 
ATOM     19  C   UNL     1      44.569  19.506  19.017  0.00  0.00    +0.400 C 
ATOM     20  O   UNL     1      44.640  19.304  17.829  0.00  0.00    -0.430 OA
ATOM     21  O   UNL     1      49.635  18.959  19.374  0.00  0.00    -0.420 OA
ATOM     22  C   UNL     1      45.720  19.224  19.872  0.00  0.00    -0.123 C 
ATOM     23  C   UNL     1      44.983  18.877  21.167  0.00  0.00    +0.049 C 
ATOM     24  C   UNL     1      48.128  14.328  17.874  0.00  0.00    +0.334 C 
ATOM     30  O   UNL     1      49.237  14.538  16.968  0.00  0.00    -0.337 OA
ATOM     31  C   UNL     1      50.154  15.459  17.280  0.00  0.00    +0.496 C 
ATOM     32  O   UNL     1      51.314  15.289  16.990  0.00  0.00    -0.429 OA
ATOM     33  C   UNL     1      49.722  16.721  18.005  0.00  0.00    +0.127 C 
ATOM     34  O   UNL     1      49.356  16.525  19.384  0.00  0.00    -0.286 OA
ATOM     35  C   UNL     1      48.277  16.768  18.485  0.00  0.00    +0.056 C 
ENDROOT
BRANCH  24  25
ATOM     25  C   UNL     1      48.597  13.820  19.212  0.00  0.00    -0.228 A 
ATOM     26  C   UNL     1      47.862  13.823  20.421  0.00  0.00    -0.041 A 
ATOM     27  C   UNL     1      48.655  13.282  21.362  0.00  0.00    +0.171 A 
ATOM     28  O   UNL     1      49.826  12.951  20.790  0.00  0.00    -0.168 OA
ATOM     29  C   UNL     1      49.794  13.271  19.487  0.00  0.00    +0.198 A 
ENDBRANCH  24  25
BRANCH   4   5
ATOM      5  O   UNL     1      44.394  16.681  20.104  0.00  0.00    -0.551 OA
ATOM      6  H   UNL     1      44.280  17.449  20.682  0.00  0.00    +0.378 HD
ENDBRANCH   4   5
TORSDOF 2
ENDMDL
MODEL 8
REMARK VINA RESULT:      -6.1      1.892      7.272
REMARK  Name = ZINC95485943
REMARK  6 active torsions:
REMARK  status: ('A' for Active; 'I' for Inactive)
REMARK    1  A    between atoms: C1_1  and  C2_2
REMARK    2  A    between atoms: C4_4  and  O9_40
REMARK    3  A    between atoms: C10_17  and  C11_19
REMARK    4  A    between atoms: C18_29  and  C25_39
REMARK    5  A    between atoms: C22_35  and  C23_36
REMARK    6  A    between atoms: C22_35  and  C24_37
REMARK                            x       y       z     vdW  Elec       q    Type
REMARK                         _______ _______ _______ _____ _____    ______ ____
ROOT
ATOM      1  C   UNL     1      46.592  15.301  16.506  0.00  0.00    +0.062 C 
ATOM      2  C   UNL     1      47.318  14.790  17.752  0.00  0.00    -0.064 C 
ATOM      3  C   UNL     1      46.282  14.680  18.866  0.00  0.00    +0.045 C 
ATOM      4  C   UNL     1      45.661  16.062  19.110  0.00  0.00    +0.181 C 
ATOM      7  C   UNL     1      46.739  17.046  19.538  0.00  0.00    +0.068 C 
ATOM      8  C   UNL     1      47.778  17.213  18.418  0.00  0.00    +0.020 C 
ATOM      9  C   UNL     1      48.834  18.160  18.939  0.00  0.00    +0.368 C 
ATOM     10  C   UNL     1      48.369  19.525  19.397  0.00  0.00    +0.039 C 
ATOM     11  C   UNL     1      47.218  19.382  20.404  0.00  0.00    +0.044 C 
ATOM     12  C   UNL     1      46.665  20.794  20.661  0.00  0.00    +0.147 C 
ATOM     13  C   UNL     1      47.672  21.579  21.504  0.00  0.00    +0.087 C 
ATOM     14  C   UNL     1      46.474  21.508  19.322  0.00  0.00    +0.022 C 
ATOM     15  O   UNL     1      45.432  20.774  21.295  0.00  0.00    -0.363 OA
ATOM     16  C   UNL     1      44.337  20.716  20.521  0.00  0.00    +0.500 C 
ATOM     17  O   UNL     1      43.755  21.743  20.262  0.00  0.00    -0.437 OA
ATOM     18  C   UNL     1      43.815  19.449  19.973  0.00  0.00    +0.082 C 
ATOM     19  C   UNL     1      44.990  18.830  19.204  0.00  0.00    +0.400 C 
ATOM     20  O   UNL     1      44.922  18.700  18.005  0.00  0.00    -0.430 OA
ATOM     21  O   UNL     1      49.998  17.842  18.987  0.00  0.00    -0.420 OA
ATOM     22  C   UNL     1      46.192  18.398  19.913  0.00  0.00    -0.123 C 
ATOM     23  C   UNL     1      45.562  18.028  21.258  0.00  0.00    +0.049 C 
ATOM     24  C   UNL     1      47.939  13.461  17.397  0.00  0.00    +0.334 C 
ATOM     30  O   UNL     1      48.965  13.637  16.390  0.00  0.00    -0.337 OA
ATOM     31  C   UNL     1      49.987  14.457  16.655  0.00  0.00    +0.496 C 
ATOM     32  O   UNL     1      51.092  14.210  16.234  0.00  0.00    -0.429 OA
ATOM     33  C   UNL     1      49.746  15.699  17.492  0.00  0.00    +0.127 C 
ATOM     34  O   UNL     1      49.505  15.444  18.889  0.00  0.00    -0.286 OA
ATOM     35  C   UNL     1      48.366  15.835  18.125  0.00  0.00    +0.056 C 
ENDROOT
BRANCH  24  25
ATOM     25  C   UNL     1      48.494  12.829  18.646  0.00  0.00    -0.228 A 
ATOM     26  C   UNL     1      47.897  12.829  19.928  0.00  0.00    -0.041 A 
ATOM     27  C   UNL     1      48.726  12.156  20.746  0.00  0.00    +0.171 A 
ATOM     28  O   UNL     1      49.789  11.750  20.030  0.00  0.00    -0.168 OA
ATOM     29  C   UNL     1      49.651  12.151  18.756  0.00  0.00    +0.198 A 
ENDBRANCH  24  25
BRANCH   4   5
ATOM      5  O   UNL     1      44.675  15.963  20.141  0.00  0.00    -0.551 OA
ATOM      6  H   UNL     1      45.035  16.025  21.037  0.00  0.00    +0.378 HD
ENDBRANCH   4   5
TORSDOF 2
ENDMDL
MODEL 9
REMARK VINA RESULT:      -5.9      1.747      7.672
REMARK  Name = ZINC95485943
REMARK  6 active torsions:
REMARK  status: ('A' for Active; 'I' for Inactive)
REMARK    1  A    between atoms: C1_1  and  C2_2
REMARK    2  A    between atoms: C4_4  and  O9_40
REMARK    3  A    between atoms: C10_17  and  C11_19
REMARK    4  A    between atoms: C18_29  and  C25_39
REMARK    5  A    between atoms: C22_35  and  C23_36
REMARK    6  A    between atoms: C22_35  and  C24_37
REMARK                            x       y       z     vdW  Elec       q    Type
REMARK                         _______ _______ _______ _____ _____    ______ ____
ROOT
ATOM      1  C   UNL     1      50.372  14.685  19.024  0.00  0.00    +0.062 C 
ATOM      2  C   UNL     1      49.332  14.088  18.074  0.00  0.00    -0.064 C 
ATOM      3  C   UNL     1      49.071  15.121  16.983  0.00  0.00    +0.045 C 
ATOM      4  C   UNL     1      48.559  16.415  17.629  0.00  0.00    +0.181 C 
ATOM      7  C   UNL     1      47.257  16.144  18.369  0.00  0.00    +0.068 C 
ATOM      8  C   UNL     1      47.494  15.137  19.506  0.00  0.00    +0.020 C 
ATOM      9  C   UNL     1      46.153  14.885  20.153  0.00  0.00    +0.368 C 
ATOM     10  C   UNL     1      45.413  16.088  20.697  0.00  0.00    +0.039 C 
ATOM     11  C   UNL     1      45.304  17.174  19.617  0.00  0.00    +0.044 C 
ATOM     12  C   UNL     1      44.734  18.431  20.297  0.00  0.00    +0.147 C 
ATOM     13  C   UNL     1      43.254  18.202  20.609  0.00  0.00    +0.087 C 
ATOM     14  C   UNL     1      45.486  18.676  21.606  0.00  0.00    +0.022 C 
ATOM     15  O   UNL     1      44.883  19.569  19.518  0.00  0.00    -0.363 OA
ATOM     16  C   UNL     1      46.020  20.269  19.655  0.00  0.00    +0.500 C 
ATOM     17  O   UNL     1      46.024  21.234  20.383  0.00  0.00    -0.437 OA
ATOM     18  C   UNL     1      47.267  19.908  18.952  0.00  0.00    +0.082 C 
ATOM     19  C   UNL     1      47.541  18.450  19.345  0.00  0.00    +0.400 C 
ATOM     20  O   UNL     1      48.519  18.177  20.000  0.00  0.00    -0.430 OA
ATOM     21  O   UNL     1      45.691  13.772  20.234  0.00  0.00    -0.420 OA
ATOM     22  C   UNL     1      46.625  17.389  18.932  0.00  0.00    -0.123 C 
ATOM     23  C   UNL     1      46.116  18.002  17.626  0.00  0.00    +0.049 C 
ATOM     24  C   UNL     1      49.902  12.798  17.535  0.00  0.00    +0.334 C 
ATOM     30  O   UNL     1      50.058  11.832  18.602  0.00  0.00    -0.337 OA
ATOM     31  C   UNL     1      48.980  11.485  19.313  0.00  0.00    +0.496 C 
ATOM     32  O   UNL     1      48.861  10.356  19.728  0.00  0.00    -0.429 OA
ATOM     33  C   UNL     1      47.908  12.521  19.592  0.00  0.00    +0.127 C 
ATOM     34  O   UNL     1      47.114  12.886  18.447  0.00  0.00    -0.286 OA
ATOM     35  C   UNL     1      48.058  13.862  18.883  0.00  0.00    +0.056 C 
ENDROOT
BRANCH  24  25
ATOM     25  C   UNL     1      48.999  12.279  16.447  0.00  0.00    -0.228 A 
ATOM     26  C   UNL     1      48.368  13.043  15.439  0.00  0.00    -0.041 A 
ATOM     27  C   UNL     1      47.659  12.185  14.684  0.00  0.00    +0.171 A 
ATOM     28  O   UNL     1      47.827  10.947  15.179  0.00  0.00    -0.168 OA
ATOM     29  C   UNL     1      48.642  10.998  16.245  0.00  0.00    +0.198 A 
ENDBRANCH  24  25
BRANCH   4   5
ATOM      5  O   UNL     1      48.330  17.394  16.613  0.00  0.00    -0.551 OA
ATOM      6  H   UNL     1      47.531  17.238  16.090  0.00  0.00    +0.378 HD
ENDBRANCH   4   5
TORSDOF 2
ENDMDL
