MODEL 1
REMARK VINA RESULT:      -6.6      0.000      0.000
REMARK  Name = ZINC95485966
REMARK  18 active torsions:
REMARK  status: ('A' for Active; 'I' for Inactive)
REMARK    1  A    between atoms: C1_1  and  C2_2
REMARK    2  A    between atoms: C3_3  and  C28_33
REMARK    3  A    between atoms: C8_8  and  O2_19
REMARK    4  A    between atoms: C10_10  and  O1_18
REMARK    5  A    between atoms: C11_11  and  C12_12
REMARK    6  A    between atoms: C12_12  and  C13_13
REMARK    7  A    between atoms: C13_13  and  C14_14
REMARK    8  A    between atoms: C15_15  and  C16_16
REMARK    9  A    between atoms: C15_15  and  C17_17
REMARK   10  A    between atoms: C21_24  and  C22_26
REMARK   11  A    between atoms: C22_26  and  C23_27
REMARK   12  A    between atoms: C23_27  and  C24_28
REMARK   13  A    between atoms: C25_29  and  C26_30
REMARK   14  A    between atoms: C25_29  and  C27_31
REMARK   15  A    between atoms: C28_33  and  C29_34
REMARK   16  A    between atoms: C29_34  and  C30_35
REMARK   17  A    between atoms: C31_36  and  C32_37
REMARK   18  A    between atoms: C31_36  and  C33_38
REMARK                            x       y       z     vdW  Elec       q    Type
REMARK                         _______ _______ _______ _____ _____    ______ ____
ROOT
ATOM      1  C   UNL     1      47.147  21.916  21.051  0.00  0.00    +0.100 C 
ATOM      2  C   UNL     1      47.113  20.696  20.167  0.00  0.00    -0.036 A 
ATOM      3  C   UNL     1      48.134  19.794  20.230  0.00  0.00    -0.090 A 
ATOM     10  C   UNL     1      48.115  18.654  19.412  0.00  0.00    +0.013 A 
ATOM     11  C   UNL     1      49.163  17.715  19.453  0.00  0.00    +0.017 A 
ATOM     12  C   UNL     1      49.141  16.612  18.657  0.00  0.00    -0.016 A 
ATOM     13  C   UNL     1      50.314  15.666  18.728  0.00  0.00    +0.018 C 
ATOM     20  C   UNL     1      49.956  14.340  18.104  0.00  0.00    +0.376 C 
ATOM     21  O   UNL     1      50.224  13.298  18.655  0.00  0.00    -0.430 OA
ATOM     22  C   UNL     1      49.248  14.358  16.763  0.00  0.00    +0.044 C 
ATOM     23  C   UNL     1      47.991  15.181  16.950  0.00  0.00    +0.409 C 
ATOM     24  O   UNL     1      46.952  14.853  16.416  0.00  0.00    -0.430 OA
ATOM     25  C   UNL     1      48.056  16.384  17.790  0.00  0.00    -0.212 A 
ATOM     26  C   UNL     1      47.001  17.302  17.719  0.00  0.00    +0.218 A 
ATOM     29  C   UNL     1      47.024  18.450  18.530  0.00  0.00    -0.119 A 
ATOM     30  C   UNL     1      45.984  19.399  18.484  0.00  0.00    +0.142 A 
ATOM     33  C   UNL     1      46.038  20.504  19.306  0.00  0.00    -0.108 A 
ENDROOT
BRANCH  26  27
ATOM     27  O   UNL     1      45.966  17.088  16.873  0.00  0.00    -0.462 OA
ATOM     28  H   UNL     1      46.065  17.520  16.013  0.00  0.00    +0.398 HD
ENDBRANCH  26  27
BRANCH  30  31
ATOM     31  O   UNL     1      44.935  19.222  17.642  0.00  0.00    -0.472 OA
ATOM     32  H   UNL     1      45.185  19.135  16.713  0.00  0.00    +0.386 HD
ENDBRANCH  30  31
BRANCH   3   4
ATOM      4  C   UNL     1      49.283  20.022  21.178  0.00  0.00    +0.081 C 
BRANCH   4   5
ATOM      5  C   UNL     1      50.236  21.061  20.582  0.00  0.00    +0.056 C 
BRANCH   5   6
ATOM      6  C   UNL     1      50.315  20.870  19.089  0.00  0.00    -0.061 C 
ATOM      7  C   UNL     1      51.477  20.900  18.486  0.00  0.00    -0.128 C 
ATOM      8  C   UNL     1      51.569  20.603  17.011  0.00  0.00    +0.072 C 
ATOM      9  C   UNL     1      52.724  21.232  19.267  0.00  0.00    +0.071 C 
ENDBRANCH   5   6
ENDBRANCH   4   5
ENDBRANCH   3   4
BRANCH  13  14
ATOM     14  C   UNL     1      51.502  16.273  17.980  0.00  0.00    +0.060 C 
BRANCH  14  15
ATOM     15  C   UNL     1      52.728  16.286  18.894  0.00  0.00    +0.049 C 
BRANCH  15  16
ATOM     16  C   UNL     1      52.700  17.524  19.754  0.00  0.00    -0.060 C 
ATOM     17  C   UNL     1      52.602  17.414  21.056  0.00  0.00    -0.126 C 
ATOM     18  C   UNL     1      52.639  18.648  21.920  0.00  0.00    +0.073 C 
ATOM     19  C   UNL     1      52.452  16.055  21.689  0.00  0.00    +0.073 C 
ENDBRANCH  15  16
ENDBRANCH  14  15
ENDBRANCH  13  14
BRANCH  33  34
ATOM     34  C   UNL     1      44.926  21.520  19.266  0.00  0.00    +0.082 C 
BRANCH  34  35
ATOM     35  C   UNL     1      43.678  20.937  19.934  0.00  0.00    +0.059 C 
BRANCH  35  36
ATOM     36  C   UNL     1      42.450  21.401  19.194  0.00  0.00    -0.063 C 
ATOM     37  C   UNL     1      41.356  20.680  19.225  0.00  0.00    -0.128 C 
ATOM     38  C   UNL     1      40.087  21.209  18.608  0.00  0.00    +0.071 C 
ATOM     39  C   UNL     1      41.367  19.321  19.877  0.00  0.00    +0.073 C 
ENDBRANCH  35  36
ENDBRANCH  34  35
ENDBRANCH  33  34
TORSDOF 11
ENDMDL
MODEL 2
REMARK VINA RESULT:      -6.5      2.396      6.205
REMARK  Name = ZINC95485966
REMARK  18 active torsions:
REMARK  status: ('A' for Active; 'I' for Inactive)
REMARK    1  A    between atoms: C1_1  and  C2_2
REMARK    2  A    between atoms: C3_3  and  C28_33
REMARK    3  A    between atoms: C8_8  and  O2_19
REMARK    4  A    between atoms: C10_10  and  O1_18
REMARK    5  A    between atoms: C11_11  and  C12_12
REMARK    6  A    between atoms: C12_12  and  C13_13
REMARK    7  A    between atoms: C13_13  and  C14_14
REMARK    8  A    between atoms: C15_15  and  C16_16
REMARK    9  A    between atoms: C15_15  and  C17_17
REMARK   10  A    between atoms: C21_24  and  C22_26
REMARK   11  A    between atoms: C22_26  and  C23_27
REMARK   12  A    between atoms: C23_27  and  C24_28
REMARK   13  A    between atoms: C25_29  and  C26_30
REMARK   14  A    between atoms: C25_29  and  C27_31
REMARK   15  A    between atoms: C28_33  and  C29_34
REMARK   16  A    between atoms: C29_34  and  C30_35
REMARK   17  A    between atoms: C31_36  and  C32_37
REMARK   18  A    between atoms: C31_36  and  C33_38
REMARK                            x       y       z     vdW  Elec       q    Type
REMARK                         _______ _______ _______ _____ _____    ______ ____
ROOT
ATOM      1  C   UNL     1      48.993  20.890  19.285  0.00  0.00    +0.100 C 
ATOM      2  C   UNL     1      49.528  19.657  18.605  0.00  0.00    -0.036 A 
ATOM      3  C   UNL     1      48.812  18.497  18.659  0.00  0.00    -0.090 A 
ATOM     10  C   UNL     1      49.299  17.341  18.031  0.00  0.00    +0.013 A 
ATOM     11  C   UNL     1      48.581  16.131  18.084  0.00  0.00    +0.017 A 
ATOM     12  C   UNL     1      49.058  15.012  17.474  0.00  0.00    -0.016 A 
ATOM     13  C   UNL     1      48.254  13.742  17.600  0.00  0.00    +0.018 C 
ATOM     20  C   UNL     1      48.699  12.736  16.568  0.00  0.00    +0.376 C 
ATOM     21  O   UNL     1      47.896  12.125  15.905  0.00  0.00    -0.430 OA
ATOM     22  C   UNL     1      50.190  12.518  16.391  0.00  0.00    +0.044 C 
ATOM     23  C   UNL     1      50.789  13.869  16.066  0.00  0.00    +0.409 C 
ATOM     24  O   UNL     1      51.676  13.971  15.245  0.00  0.00    -0.430 OA
ATOM     25  C   UNL     1      50.273  15.053  16.765  0.00  0.00    -0.212 A 
ATOM     26  C   UNL     1      51.016  16.239  16.700  0.00  0.00    +0.218 A 
ATOM     29  C   UNL     1      50.534  17.395  17.338  0.00  0.00    -0.119 A 
ATOM     30  C   UNL     1      51.254  18.606  17.299  0.00  0.00    +0.142 A 
ATOM     33  C   UNL     1      50.739  19.720  17.927  0.00  0.00    -0.108 A 
ENDROOT
BRANCH  26  27
ATOM     27  O   UNL     1      52.191  16.271  16.029  0.00  0.00    -0.462 OA
ATOM     28  H   UNL     1      52.462  17.158  15.754  0.00  0.00    +0.398 HD
ENDBRANCH  26  27
BRANCH  30  31
ATOM     31  O   UNL     1      52.440  18.675  16.644  0.00  0.00    -0.472 OA
ATOM     32  H   UNL     1      52.361  18.907  15.709  0.00  0.00    +0.386 HD
ENDBRANCH  30  31
BRANCH   3   4
ATOM      4  C   UNL     1      47.497  18.458  19.396  0.00  0.00    +0.081 C 
BRANCH   4   5
ATOM      5  C   UNL     1      46.359  18.777  18.423  0.00  0.00    +0.056 C 
BRANCH   5   6
ATOM      6  C   UNL     1      45.088  19.010  19.198  0.00  0.00    -0.061 C 
ATOM      7  C   UNL     1      44.636  20.229  19.362  0.00  0.00    -0.128 C 
ATOM      8  C   UNL     1      43.310  20.455  20.043  0.00  0.00    +0.072 C 
ATOM      9  C   UNL     1      45.441  21.404  18.870  0.00  0.00    +0.071 C 
ENDBRANCH   5   6
ENDBRANCH   4   5
ENDBRANCH   3   4
BRANCH  13  14
ATOM     14  C   UNL     1      48.450  13.154  18.999  0.00  0.00    +0.060 C 
BRANCH  14  15
ATOM     15  C   UNL     1      47.114  13.150  19.743  0.00  0.00    +0.049 C 
BRANCH  15  16
ATOM     16  C   UNL     1      47.159  14.158  20.862  0.00  0.00    -0.060 C 
ATOM     17  C   UNL     1      46.319  15.164  20.872  0.00  0.00    -0.126 C 
ATOM     18  C   UNL     1      46.321  16.136  22.024  0.00  0.00    +0.073 C 
ATOM     19  C   UNL     1      45.351  15.348  19.732  0.00  0.00    +0.073 C 
ENDBRANCH  15  16
ENDBRANCH  14  15
ENDBRANCH  13  14
BRANCH  33  34
ATOM     34  C   UNL     1      51.502  21.019  17.884  0.00  0.00    +0.082 C 
BRANCH  34  35
ATOM     35  C   UNL     1      52.710  20.934  18.820  0.00  0.00    +0.059 C 
BRANCH  35  36
ATOM     36  C   UNL     1      52.419  21.699  20.085  0.00  0.00    -0.063 C 
ATOM     37  C   UNL     1      52.273  21.058  21.218  0.00  0.00    -0.128 C 
ATOM     38  C   UNL     1      52.125  21.827  22.505  0.00  0.00    +0.071 C 
ATOM     39  C   UNL     1      52.251  19.551  21.234  0.00  0.00    +0.073 C 
ENDBRANCH  35  36
ENDBRANCH  34  35
ENDBRANCH  33  34
TORSDOF 11
ENDMDL
MODEL 3
REMARK VINA RESULT:      -6.3      1.803      2.521
REMARK  Name = ZINC95485966
REMARK  18 active torsions:
REMARK  status: ('A' for Active; 'I' for Inactive)
REMARK    1  A    between atoms: C1_1  and  C2_2
REMARK    2  A    between atoms: C3_3  and  C28_33
REMARK    3  A    between atoms: C8_8  and  O2_19
REMARK    4  A    between atoms: C10_10  and  O1_18
REMARK    5  A    between atoms: C11_11  and  C12_12
REMARK    6  A    between atoms: C12_12  and  C13_13
REMARK    7  A    between atoms: C13_13  and  C14_14
REMARK    8  A    between atoms: C15_15  and  C16_16
REMARK    9  A    between atoms: C15_15  and  C17_17
REMARK   10  A    between atoms: C21_24  and  C22_26
REMARK   11  A    between atoms: C22_26  and  C23_27
REMARK   12  A    between atoms: C23_27  and  C24_28
REMARK   13  A    between atoms: C25_29  and  C26_30
REMARK   14  A    between atoms: C25_29  and  C27_31
REMARK   15  A    between atoms: C28_33  and  C29_34
REMARK   16  A    between atoms: C29_34  and  C30_35
REMARK   17  A    between atoms: C31_36  and  C32_37
REMARK   18  A    between atoms: C31_36  and  C33_38
REMARK                            x       y       z     vdW  Elec       q    Type
REMARK                         _______ _______ _______ _____ _____    ______ ____
ROOT
ATOM      1  C   UNL     1      45.866  21.489  19.331  0.00  0.00    +0.100 C 
ATOM      2  C   UNL     1      46.039  19.993  19.383  0.00  0.00    -0.036 A 
ATOM      3  C   UNL     1      47.270  19.452  19.156  0.00  0.00    -0.090 A 
ATOM     10  C   UNL     1      47.444  18.061  19.200  0.00  0.00    +0.013 A 
ATOM     11  C   UNL     1      48.704  17.480  18.958  0.00  0.00    +0.017 A 
ATOM     12  C   UNL     1      48.868  16.130  19.000  0.00  0.00    -0.016 A 
ATOM     13  C   UNL     1      50.238  15.575  18.698  0.00  0.00    +0.018 C 
ATOM     20  C   UNL     1      50.339  14.145  19.166  0.00  0.00    +0.376 C 
ATOM     21  O   UNL     1      51.298  13.759  19.791  0.00  0.00    -0.430 OA
ATOM     22  C   UNL     1      49.195  13.208  18.827  0.00  0.00    +0.044 C 
ATOM     23  C   UNL     1      47.939  13.835  19.395  0.00  0.00    +0.409 C 
ATOM     24  O   UNL     1      47.084  13.148  19.913  0.00  0.00    -0.430 OA
ATOM     25  C   UNL     1      47.779  15.292  19.305  0.00  0.00    -0.212 A 
ATOM     26  C   UNL     1      46.511  15.836  19.542  0.00  0.00    +0.218 A 
ATOM     29  C   UNL     1      46.333  17.230  19.488  0.00  0.00    -0.119 A 
ATOM     30  C   UNL     1      45.072  17.815  19.716  0.00  0.00    +0.142 A 
ATOM     33  C   UNL     1      44.943  19.187  19.667  0.00  0.00    -0.108 A 
ENDROOT
BRANCH  26  27
ATOM     27  O   UNL     1      45.462  15.027  19.820  0.00  0.00    -0.462 OA
ATOM     28  H   UNL     1      44.662  15.499  20.089  0.00  0.00    +0.398 HD
ENDBRANCH  26  27
BRANCH  30  31
ATOM     31  O   UNL     1      43.995  17.035  19.989  0.00  0.00    -0.472 OA
ATOM     32  H   UNL     1      43.838  16.339  19.337  0.00  0.00    +0.386 HD
ENDBRANCH  30  31
BRANCH   3   4
ATOM      4  C   UNL     1      48.443  20.349  18.857  0.00  0.00    +0.081 C 
BRANCH   4   5
ATOM      5  C   UNL     1      49.242  20.588  20.140  0.00  0.00    +0.056 C 
BRANCH   5   6
ATOM      6  C   UNL     1      50.524  21.306  19.807  0.00  0.00    -0.061 C 
ATOM      7  C   UNL     1      51.544  21.240  20.627  0.00  0.00    -0.128 C 
ATOM      8  C   UNL     1      52.860  21.867  20.244  0.00  0.00    +0.072 C 
ATOM      9  C   UNL     1      51.400  20.537  21.953  0.00  0.00    +0.071 C 
ENDBRANCH   5   6
ENDBRANCH   4   5
ENDBRANCH   3   4
BRANCH  13  14
ATOM     14  C   UNL     1      50.487  15.633  17.189  0.00  0.00    +0.060 C 
BRANCH  14  15
ATOM     15  C   UNL     1      51.797  16.373  16.916  0.00  0.00    +0.049 C 
BRANCH  15  16
ATOM     16  C   UNL     1      51.494  17.767  16.429  0.00  0.00    -0.060 C 
ATOM     17  C   UNL     1      51.892  18.804  17.124  0.00  0.00    -0.126 C 
ATOM     18  C   UNL     1      51.645  20.198  16.605  0.00  0.00    +0.073 C 
ATOM     19  C   UNL     1      52.596  18.604  18.441  0.00  0.00    +0.073 C 
ENDBRANCH  15  16
ENDBRANCH  14  15
ENDBRANCH  13  14
BRANCH  33  34
ATOM     34  C   UNL     1      43.597  19.819  19.917  0.00  0.00    +0.082 C 
BRANCH  34  35
ATOM     35  C   UNL     1      42.891  20.062  18.581  0.00  0.00    +0.059 C 
BRANCH  35  36
ATOM     36  C   UNL     1      41.407  20.180  18.812  0.00  0.00    -0.063 C 
ATOM     37  C   UNL     1      40.828  21.354  18.755  0.00  0.00    -0.128 C 
ATOM     38  C   UNL     1      39.327  21.459  18.842  0.00  0.00    +0.071 C 
ATOM     39  C   UNL     1      41.663  22.600  18.603  0.00  0.00    +0.073 C 
ENDBRANCH  35  36
ENDBRANCH  34  35
ENDBRANCH  33  34
TORSDOF 11
ENDMDL
MODEL 4
REMARK VINA RESULT:      -6.1      2.904      7.549
REMARK  Name = ZINC95485966
REMARK  18 active torsions:
REMARK  status: ('A' for Active; 'I' for Inactive)
REMARK    1  A    between atoms: C1_1  and  C2_2
REMARK    2  A    between atoms: C3_3  and  C28_33
REMARK    3  A    between atoms: C8_8  and  O2_19
REMARK    4  A    between atoms: C10_10  and  O1_18
REMARK    5  A    between atoms: C11_11  and  C12_12
REMARK    6  A    between atoms: C12_12  and  C13_13
REMARK    7  A    between atoms: C13_13  and  C14_14
REMARK    8  A    between atoms: C15_15  and  C16_16
REMARK    9  A    between atoms: C15_15  and  C17_17
REMARK   10  A    between atoms: C21_24  and  C22_26
REMARK   11  A    between atoms: C22_26  and  C23_27
REMARK   12  A    between atoms: C23_27  and  C24_28
REMARK   13  A    between atoms: C25_29  and  C26_30
REMARK   14  A    between atoms: C25_29  and  C27_31
REMARK   15  A    between atoms: C28_33  and  C29_34
REMARK   16  A    between atoms: C29_34  and  C30_35
REMARK   17  A    between atoms: C31_36  and  C32_37
REMARK   18  A    between atoms: C31_36  and  C33_38
REMARK                            x       y       z     vdW  Elec       q    Type
REMARK                         _______ _______ _______ _____ _____    ______ ____
ROOT
ATOM      1  C   UNL     1      49.548  12.758  19.592  0.00  0.00    +0.100 C 
ATOM      2  C   UNL     1      50.047  13.974  18.855  0.00  0.00    -0.036 A 
ATOM      3  C   UNL     1      49.903  15.207  19.421  0.00  0.00    -0.090 A 
ATOM     10  C   UNL     1      50.362  16.347  18.746  0.00  0.00    +0.013 A 
ATOM     11  C   UNL     1      50.215  17.630  19.307  0.00  0.00    +0.017 A 
ATOM     12  C   UNL     1      50.660  18.734  18.647  0.00  0.00    -0.016 A 
ATOM     13  C   UNL     1      50.439  20.079  19.292  0.00  0.00    +0.018 C 
ATOM     20  C   UNL     1      51.318  21.121  18.646  0.00  0.00    +0.376 C 
ATOM     21  O   UNL     1      51.955  21.901  19.312  0.00  0.00    -0.430 OA
ATOM     22  C   UNL     1      51.376  21.155  17.130  0.00  0.00    +0.044 C 
ATOM     23  C   UNL     1      51.818  19.778  16.684  0.00  0.00    +0.409 C 
ATOM     24  O   UNL     1      52.588  19.646  15.756  0.00  0.00    -0.430 OA
ATOM     25  C   UNL     1      51.293  18.606  17.396  0.00  0.00    -0.212 A 
ATOM     26  C   UNL     1      51.448  17.345  16.807  0.00  0.00    +0.218 A 
ATOM     29  C   UNL     1      50.980  16.203  17.478  0.00  0.00    -0.119 A 
ATOM     30  C   UNL     1      51.113  14.918  16.916  0.00  0.00    +0.142 A 
ATOM     33  C   UNL     1      50.652  13.822  17.613  0.00  0.00    -0.108 A 
ENDROOT
BRANCH  26  27
ATOM     27  O   UNL     1      52.044  17.227  15.597  0.00  0.00    -0.462 OA
ATOM     28  H   UNL     1      51.434  17.295  14.850  0.00  0.00    +0.398 HD
ENDBRANCH  26  27
BRANCH  30  31
ATOM     31  O   UNL     1      51.697  14.761  15.701  0.00  0.00    -0.472 OA
ATOM     32  H   UNL     1      52.401  14.098  15.685  0.00  0.00    +0.386 HD
ENDBRANCH  30  31
BRANCH   3   4
ATOM      4  C   UNL     1      49.250  15.343  20.773  0.00  0.00    +0.081 C 
BRANCH   4   5
ATOM      5  C   UNL     1      47.870  15.984  20.609  0.00  0.00    +0.056 C 
BRANCH   5   6
ATOM      6  C   UNL     1      46.833  14.905  20.437  0.00  0.00    -0.061 C 
ATOM      7  C   UNL     1      46.096  14.871  19.355  0.00  0.00    -0.128 C 
ATOM      8  C   UNL     1      45.135  13.732  19.132  0.00  0.00    +0.072 C 
ATOM      9  C   UNL     1      46.210  15.973  18.331  0.00  0.00    +0.071 C 
ENDBRANCH   5   6
ENDBRANCH   4   5
ENDBRANCH   3   4
BRANCH  13  14
ATOM     14  C   UNL     1      48.972  20.484  19.131  0.00  0.00    +0.060 C 
BRANCH  14  15
ATOM     15  C   UNL     1      48.343  20.681  20.510  0.00  0.00    +0.049 C 
BRANCH  15  16
ATOM     16  C   UNL     1      47.399  19.542  20.799  0.00  0.00    -0.060 C 
ATOM     17  C   UNL     1      46.105  19.726  20.713  0.00  0.00    -0.126 C 
ATOM     18  C   UNL     1      45.163  18.571  20.939  0.00  0.00    +0.073 C 
ATOM     19  C   UNL     1      45.558  21.092  20.388  0.00  0.00    +0.073 C 
ENDBRANCH  15  16
ENDBRANCH  14  15
ENDBRANCH  13  14
BRANCH  33  34
ATOM     34  C   UNL     1      50.797  12.444  17.019  0.00  0.00    +0.082 C 
BRANCH  34  35
ATOM     35  C   UNL     1      49.844  12.297  15.831  0.00  0.00    +0.059 C 
BRANCH  35  36
ATOM     36  C   UNL     1      48.608  11.553  16.268  0.00  0.00    -0.063 C 
ATOM     37  C   UNL     1      47.448  12.161  16.278  0.00  0.00    -0.128 C 
ATOM     38  C   UNL     1      46.192  11.383  16.575  0.00  0.00    +0.071 C 
ATOM     39  C   UNL     1      47.369  13.639  15.993  0.00  0.00    +0.073 C 
ENDBRANCH  35  36
ENDBRANCH  34  35
ENDBRANCH  33  34
TORSDOF 11
ENDMDL
MODEL 5
REMARK VINA RESULT:      -6.1      2.474      6.367
REMARK  Name = ZINC95485966
REMARK  18 active torsions:
REMARK  status: ('A' for Active; 'I' for Inactive)
REMARK    1  A    between atoms: C1_1  and  C2_2
REMARK    2  A    between atoms: C3_3  and  C28_33
REMARK    3  A    between atoms: C8_8  and  O2_19
REMARK    4  A    between atoms: C10_10  and  O1_18
REMARK    5  A    between atoms: C11_11  and  C12_12
REMARK    6  A    between atoms: C12_12  and  C13_13
REMARK    7  A    between atoms: C13_13  and  C14_14
REMARK    8  A    between atoms: C15_15  and  C16_16
REMARK    9  A    between atoms: C15_15  and  C17_17
REMARK   10  A    between atoms: C21_24  and  C22_26
REMARK   11  A    between atoms: C22_26  and  C23_27
REMARK   12  A    between atoms: C23_27  and  C24_28
REMARK   13  A    between atoms: C25_29  and  C26_30
REMARK   14  A    between atoms: C25_29  and  C27_31
REMARK   15  A    between atoms: C28_33  and  C29_34
REMARK   16  A    between atoms: C29_34  and  C30_35
REMARK   17  A    between atoms: C31_36  and  C32_37
REMARK   18  A    between atoms: C31_36  and  C33_38
REMARK                            x       y       z     vdW  Elec       q    Type
REMARK                         _______ _______ _______ _____ _____    ______ ____
ROOT
ATOM      1  C   UNL     1      48.429  20.237  18.839  0.00  0.00    +0.100 C 
ATOM      2  C   UNL     1      48.782  18.774  18.757  0.00  0.00    -0.036 A 
ATOM      3  C   UNL     1      47.900  17.903  18.187  0.00  0.00    -0.090 A 
ATOM     10  C   UNL     1      48.216  16.539  18.105  0.00  0.00    +0.013 A 
ATOM     11  C   UNL     1      47.316  15.620  17.530  0.00  0.00    +0.017 A 
ATOM     12  C   UNL     1      47.626  14.297  17.455  0.00  0.00    -0.016 A 
ATOM     13  C   UNL     1      46.601  13.366  16.858  0.00  0.00    +0.018 C 
ATOM     20  C   UNL     1      47.240  12.049  16.493  0.00  0.00    +0.376 C 
ATOM     21  O   UNL     1      47.030  11.528  15.423  0.00  0.00    -0.430 OA
ATOM     22  C   UNL     1      48.156  11.401  17.513  0.00  0.00    +0.044 C 
ATOM     23  C   UNL     1      49.236  12.414  17.829  0.00  0.00    +0.409 C 
ATOM     24  O   UNL     1      50.386  12.061  17.990  0.00  0.00    -0.430 OA
ATOM     25  C   UNL     1      48.863  13.830  17.935  0.00  0.00    -0.212 A 
ATOM     26  C   UNL     1      49.777  14.715  18.520  0.00  0.00    +0.218 A 
ATOM     29  C   UNL     1      49.458  16.081  18.612  0.00  0.00    -0.119 A 
ATOM     30  C   UNL     1      50.348  17.003  19.197  0.00  0.00    +0.142 A 
ATOM     33  C   UNL     1      50.003  18.336  19.256  0.00  0.00    -0.108 A 
ENDROOT
BRANCH  26  27
ATOM     27  O   UNL     1      50.960  14.259  18.995  0.00  0.00    -0.462 OA
ATOM     28  H   UNL     1      51.591  14.959  19.215  0.00  0.00    +0.398 HD
ENDBRANCH  26  27
BRANCH  30  31
ATOM     31  O   UNL     1      51.539  16.582  19.692  0.00  0.00    -0.472 OA
ATOM     32  H   UNL     1      51.478  16.157  20.559  0.00  0.00    +0.386 HD
ENDBRANCH  30  31
BRANCH   3   4
ATOM      4  C   UNL     1      46.586  18.407  17.647  0.00  0.00    +0.081 C 
BRANCH   4   5
ATOM      5  C   UNL     1      45.506  18.264  18.721  0.00  0.00    +0.056 C 
BRANCH   5   6
ATOM      6  C   UNL     1      44.687  19.528  18.781  0.00  0.00    -0.061 C 
ATOM      7  C   UNL     1      44.710  20.272  19.859  0.00  0.00    -0.128 C 
ATOM      8  C   UNL     1      43.979  21.590  19.880  0.00  0.00    +0.072 C 
ATOM      9  C   UNL     1      45.469  19.810  21.077  0.00  0.00    +0.071 C 
ENDBRANCH   5   6
ENDBRANCH   4   5
ENDBRANCH   3   4
BRANCH  13  14
ATOM     14  C   UNL     1      45.484  13.122  17.875  0.00  0.00    +0.060 C 
BRANCH  14  15
ATOM     15  C   UNL     1      46.015  13.375  19.286  0.00  0.00    +0.049 C 
BRANCH  15  16
ATOM     16  C   UNL     1      45.088  14.318  20.010  0.00  0.00    -0.060 C 
ATOM     17  C   UNL     1      45.567  15.152  20.900  0.00  0.00    -0.126 C 
ATOM     18  C   UNL     1      44.650  16.139  21.577  0.00  0.00    +0.073 C 
ATOM     19  C   UNL     1      47.033  15.125  21.246  0.00  0.00    +0.073 C 
ENDBRANCH  15  16
ENDBRANCH  14  15
ENDBRANCH  13  14
BRANCH  33  34
ATOM     34  C   UNL     1      50.954  19.327  19.875  0.00  0.00    +0.082 C 
BRANCH  34  35
ATOM     35  C   UNL     1      52.199  19.459  18.994  0.00  0.00    +0.059 C 
BRANCH  35  36
ATOM     36  C   UNL     1      52.019  20.612  18.041  0.00  0.00    -0.063 C 
ATOM     37  C   UNL     1      51.785  20.382  16.773  0.00  0.00    -0.128 C 
ATOM     38  C   UNL     1      51.463  21.526  15.846  0.00  0.00    +0.071 C 
ATOM     39  C   UNL     1      51.838  18.973  16.240  0.00  0.00    +0.073 C 
ENDBRANCH  35  36
ENDBRANCH  34  35
ENDBRANCH  33  34
TORSDOF 11
ENDMDL
MODEL 6
REMARK VINA RESULT:      -5.9      2.814      5.187
REMARK  Name = ZINC95485966
REMARK  18 active torsions:
REMARK  status: ('A' for Active; 'I' for Inactive)
REMARK    1  A    between atoms: C1_1  and  C2_2
REMARK    2  A    between atoms: C3_3  and  C28_33
REMARK    3  A    between atoms: C8_8  and  O2_19
REMARK    4  A    between atoms: C10_10  and  O1_18
REMARK    5  A    between atoms: C11_11  and  C12_12
REMARK    6  A    between atoms: C12_12  and  C13_13
REMARK    7  A    between atoms: C13_13  and  C14_14
REMARK    8  A    between atoms: C15_15  and  C16_16
REMARK    9  A    between atoms: C15_15  and  C17_17
REMARK   10  A    between atoms: C21_24  and  C22_26
REMARK   11  A    between atoms: C22_26  and  C23_27
REMARK   12  A    between atoms: C23_27  and  C24_28
REMARK   13  A    between atoms: C25_29  and  C26_30
REMARK   14  A    between atoms: C25_29  and  C27_31
REMARK   15  A    between atoms: C28_33  and  C29_34
REMARK   16  A    between atoms: C29_34  and  C30_35
REMARK   17  A    between atoms: C31_36  and  C32_37
REMARK   18  A    between atoms: C31_36  and  C33_38
REMARK                            x       y       z     vdW  Elec       q    Type
REMARK                         _______ _______ _______ _____ _____    ______ ____
ROOT
ATOM      1  C   UNL     1      44.713  16.592  20.323  0.00  0.00    +0.100 C 
ATOM      2  C   UNL     1      45.941  17.453  20.176  0.00  0.00    -0.036 A 
ATOM      3  C   UNL     1      46.827  17.192  19.172  0.00  0.00    -0.090 A 
ATOM     10  C   UNL     1      47.975  17.985  19.025  0.00  0.00    +0.013 A 
ATOM     11  C   UNL     1      48.907  17.728  18.003  0.00  0.00    +0.017 A 
ATOM     12  C   UNL     1      50.020  18.499  17.865  0.00  0.00    -0.016 A 
ATOM     13  C   UNL     1      50.993  18.144  16.768  0.00  0.00    +0.018 C 
ATOM     20  C   UNL     1      51.930  19.297  16.507  0.00  0.00    +0.376 C 
ATOM     21  O   UNL     1      52.171  19.663  15.381  0.00  0.00    -0.430 OA
ATOM     22  C   UNL     1      52.560  19.982  17.705  0.00  0.00    +0.044 C 
ATOM     23  C   UNL     1      51.419  20.450  18.584  0.00  0.00    +0.409 C 
ATOM     24  O   UNL     1      51.474  21.522  19.149  0.00  0.00    -0.430 OA
ATOM     25  C   UNL     1      50.246  19.580  18.737  0.00  0.00    -0.212 A 
ATOM     26  C   UNL     1      49.343  19.858  19.770  0.00  0.00    +0.218 A 
ATOM     29  C   UNL     1      48.197  19.059  19.924  0.00  0.00    -0.119 A 
ATOM     30  C   UNL     1      47.267  19.304  20.953  0.00  0.00    +0.142 A 
ATOM     33  C   UNL     1      46.150  18.504  21.062  0.00  0.00    -0.108 A 
ENDROOT
BRANCH  26  27
ATOM     27  O   UNL     1      49.571  20.891  20.615  0.00  0.00    -0.462 OA
ATOM     28  H   UNL     1      49.521  21.761  20.196  0.00  0.00    +0.398 HD
ENDBRANCH  26  27
BRANCH  30  31
ATOM     31  O   UNL     1      47.467  20.324  21.826  0.00  0.00    -0.472 OA
ATOM     32  H   UNL     1      46.670  20.834  22.025  0.00  0.00    +0.386 HD
ENDBRANCH  30  31
BRANCH   3   4
ATOM      4  C   UNL     1      46.572  16.051  18.221  0.00  0.00    +0.081 C 
BRANCH   4   5
ATOM      5  C   UNL     1      47.645  14.977  18.416  0.00  0.00    +0.056 C 
BRANCH   5   6
ATOM      6  C   UNL     1      47.272  14.103  19.586  0.00  0.00    -0.061 C 
ATOM      7  C   UNL     1      48.019  14.096  20.662  0.00  0.00    -0.128 C 
ATOM      8  C   UNL     1      47.590  13.307  21.872  0.00  0.00    +0.072 C 
ATOM      9  C   UNL     1      49.307  14.879  20.691  0.00  0.00    +0.071 C 
ENDBRANCH   5   6
ENDBRANCH   4   5
ENDBRANCH   3   4
BRANCH  13  14
ATOM     14  C   UNL     1      51.805  16.917  17.188  0.00  0.00    +0.060 C 
BRANCH  14  15
ATOM     15  C   UNL     1      51.239  15.672  16.503  0.00  0.00    +0.049 C 
BRANCH  15  16
ATOM     16  C   UNL     1      51.183  14.536  17.492  0.00  0.00    -0.060 C 
ATOM     17  C   UNL     1      50.582  13.417  17.172  0.00  0.00    -0.126 C 
ATOM     18  C   UNL     1      50.583  12.259  18.136  0.00  0.00    +0.073 C 
ATOM     19  C   UNL     1      49.890  13.289  15.839  0.00  0.00    +0.073 C 
ENDBRANCH  15  16
ENDBRANCH  14  15
ENDBRANCH  13  14
BRANCH  33  34
ATOM     34  C   UNL     1      45.148  18.765  22.158  0.00  0.00    +0.082 C 
BRANCH  34  35
ATOM     35  C   UNL     1      44.354  20.031  21.831  0.00  0.00    +0.059 C 
BRANCH  35  36
ATOM     36  C   UNL     1      42.987  19.650  21.324  0.00  0.00    -0.063 C 
ATOM     37  C   UNL     1      42.698  19.789  20.054  0.00  0.00    -0.128 C 
ATOM     38  C   UNL     1      41.386  19.276  19.519  0.00  0.00    +0.071 C 
ATOM     39  C   UNL     1      43.678  20.462  19.127  0.00  0.00    +0.073 C 
ENDBRANCH  35  36
ENDBRANCH  34  35
ENDBRANCH  33  34
TORSDOF 11
ENDMDL
MODEL 7
REMARK VINA RESULT:      -5.6      0.815      2.145
REMARK  Name = ZINC95485966
REMARK  18 active torsions:
REMARK  status: ('A' for Active; 'I' for Inactive)
REMARK    1  A    between atoms: C1_1  and  C2_2
REMARK    2  A    between atoms: C3_3  and  C28_33
REMARK    3  A    between atoms: C8_8  and  O2_19
REMARK    4  A    between atoms: C10_10  and  O1_18
REMARK    5  A    between atoms: C11_11  and  C12_12
REMARK    6  A    between atoms: C12_12  and  C13_13
REMARK    7  A    between atoms: C13_13  and  C14_14
REMARK    8  A    between atoms: C15_15  and  C16_16
REMARK    9  A    between atoms: C15_15  and  C17_17
REMARK   10  A    between atoms: C21_24  and  C22_26
REMARK   11  A    between atoms: C22_26  and  C23_27
REMARK   12  A    between atoms: C23_27  and  C24_28
REMARK   13  A    between atoms: C25_29  and  C26_30
REMARK   14  A    between atoms: C25_29  and  C27_31
REMARK   15  A    between atoms: C28_33  and  C29_34
REMARK   16  A    between atoms: C29_34  and  C30_35
REMARK   17  A    between atoms: C31_36  and  C32_37
REMARK   18  A    between atoms: C31_36  and  C33_38
REMARK                            x       y       z     vdW  Elec       q    Type
REMARK                         _______ _______ _______ _____ _____    ______ ____
ROOT
ATOM      1  C   UNL     1      47.058  22.315  20.813  0.00  0.00    +0.100 C 
ATOM      2  C   UNL     1      47.030  21.046  20.002  0.00  0.00    -0.036 A 
ATOM      3  C   UNL     1      48.124  20.232  19.993  0.00  0.00    -0.090 A 
ATOM     10  C   UNL     1      48.112  19.048  19.242  0.00  0.00    +0.013 A 
ATOM     11  C   UNL     1      49.234  18.198  19.210  0.00  0.00    +0.017 A 
ATOM     12  C   UNL     1      49.219  17.051  18.478  0.00  0.00    -0.016 A 
ATOM     13  C   UNL     1      50.468  16.206  18.462  0.00  0.00    +0.018 C 
ATOM     20  C   UNL     1      50.158  14.821  17.952  0.00  0.00    +0.376 C 
ATOM     21  O   UNL     1      50.572  13.839  18.519  0.00  0.00    -0.430 OA
ATOM     22  C   UNL     1      49.307  14.704  16.701  0.00  0.00    +0.044 C 
ATOM     23  C   UNL     1      48.013  15.435  16.989  0.00  0.00    +0.409 C 
ATOM     24  O   UNL     1      46.953  14.995  16.595  0.00  0.00    -0.430 OA
ATOM     25  C   UNL     1      48.068  16.687  17.754  0.00  0.00    -0.212 A 
ATOM     26  C   UNL     1      46.938  17.514  17.757  0.00  0.00    +0.218 A 
ATOM     29  C   UNL     1      46.952  18.706  18.502  0.00  0.00    -0.119 A 
ATOM     30  C   UNL     1      45.837  19.566  18.527  0.00  0.00    +0.142 A 
ATOM     33  C   UNL     1      45.887  20.720  19.281  0.00  0.00    -0.108 A 
ENDROOT
BRANCH  26  27
ATOM     27  O   UNL     1      45.838  17.168  17.047  0.00  0.00    -0.462 OA
ATOM     28  H   UNL     1      45.967  16.402  16.472  0.00  0.00    +0.398 HD
ENDBRANCH  26  27
BRANCH  30  31
ATOM     31  O   UNL     1      44.720  19.258  17.821  0.00  0.00    -0.472 OA
ATOM     32  H   UNL     1      43.896  19.533  18.246  0.00  0.00    +0.386 HD
ENDBRANCH  30  31
BRANCH   3   4
ATOM      4  C   UNL     1      49.348  20.606  20.790  0.00  0.00    +0.081 C 
BRANCH   4   5
ATOM      5  C   UNL     1      49.325  19.871  22.132  0.00  0.00    +0.056 C 
BRANCH   5   6
ATOM      6  C   UNL     1      50.409  18.824  22.149  0.00  0.00    -0.061 C 
ATOM      7  C   UNL     1      51.653  19.173  22.365  0.00  0.00    -0.128 C 
ATOM      8  C   UNL     1      52.721  18.117  22.489  0.00  0.00    +0.072 C 
ATOM      9  C   UNL     1      52.016  20.631  22.491  0.00  0.00    +0.071 C 
ENDBRANCH   5   6
ENDBRANCH   4   5
ENDBRANCH   3   4
BRANCH  13  14
ATOM     14  C   UNL     1      51.511  16.859  17.553  0.00  0.00    +0.060 C 
BRANCH  14  15
ATOM     15  C   UNL     1      52.646  17.429  18.405  0.00  0.00    +0.049 C 
BRANCH  15  16
ATOM     16  C   UNL     1      52.334  18.859  18.764  0.00  0.00    -0.060 C 
ATOM     17  C   UNL     1      52.104  19.737  17.819  0.00  0.00    -0.126 C 
ATOM     18  C   UNL     1      51.729  21.151  18.179  0.00  0.00    +0.073 C 
ATOM     19  C   UNL     1      52.213  19.331  16.372  0.00  0.00    +0.073 C 
ENDBRANCH  15  16
ENDBRANCH  14  15
ENDBRANCH  13  14
BRANCH  33  34
ATOM     34  C   UNL     1      44.695  21.641  19.317  0.00  0.00    +0.082 C 
BRANCH  34  35
ATOM     35  C   UNL     1      43.480  20.882  19.856  0.00  0.00    +0.059 C 
BRANCH  35  36
ATOM     36  C   UNL     1      42.241  21.339  19.131  0.00  0.00    -0.063 C 
ATOM     37  C   UNL     1      41.142  20.630  19.203  0.00  0.00    -0.128 C 
ATOM     38  C   UNL     1      39.865  21.156  18.600  0.00  0.00    +0.071 C 
ATOM     39  C   UNL     1      41.154  19.288  19.888  0.00  0.00    +0.073 C 
ENDBRANCH  35  36
ENDBRANCH  34  35
ENDBRANCH  33  34
TORSDOF 11
ENDMDL
MODEL 8
REMARK VINA RESULT:      -5.5      2.996      8.329
REMARK  Name = ZINC95485966
REMARK  18 active torsions:
REMARK  status: ('A' for Active; 'I' for Inactive)
REMARK    1  A    between atoms: C1_1  and  C2_2
REMARK    2  A    between atoms: C3_3  and  C28_33
REMARK    3  A    between atoms: C8_8  and  O2_19
REMARK    4  A    between atoms: C10_10  and  O1_18
REMARK    5  A    between atoms: C11_11  and  C12_12
REMARK    6  A    between atoms: C12_12  and  C13_13
REMARK    7  A    between atoms: C13_13  and  C14_14
REMARK    8  A    between atoms: C15_15  and  C16_16
REMARK    9  A    between atoms: C15_15  and  C17_17
REMARK   10  A    between atoms: C21_24  and  C22_26
REMARK   11  A    between atoms: C22_26  and  C23_27
REMARK   12  A    between atoms: C23_27  and  C24_28
REMARK   13  A    between atoms: C25_29  and  C26_30
REMARK   14  A    between atoms: C25_29  and  C27_31
REMARK   15  A    between atoms: C28_33  and  C29_34
REMARK   16  A    between atoms: C29_34  and  C30_35
REMARK   17  A    between atoms: C31_36  and  C32_37
REMARK   18  A    between atoms: C31_36  and  C33_38
REMARK                            x       y       z     vdW  Elec       q    Type
REMARK                         _______ _______ _______ _____ _____    ______ ____
ROOT
ATOM      1  C   UNL     1      46.267  12.800  17.887  0.00  0.00    +0.100 C 
ATOM      2  C   UNL     1      47.223  13.964  17.875  0.00  0.00    -0.036 A 
ATOM      3  C   UNL     1      46.838  15.153  18.420  0.00  0.00    -0.090 A 
ATOM     10  C   UNL     1      47.719  16.245  18.415  0.00  0.00    +0.013 A 
ATOM     11  C   UNL     1      47.339  17.485  18.964  0.00  0.00    +0.017 A 
ATOM     12  C   UNL     1      48.196  18.542  18.954  0.00  0.00    -0.016 A 
ATOM     13  C   UNL     1      47.709  19.849  19.529  0.00  0.00    +0.018 C 
ATOM     20  C   UNL     1      48.875  20.768  19.799  0.00  0.00    +0.376 C 
ATOM     21  O   UNL     1      48.968  21.369  20.843  0.00  0.00    -0.430 OA
ATOM     22  C   UNL     1      49.927  20.913  18.715  0.00  0.00    +0.044 C 
ATOM     23  C   UNL     1      50.442  19.519  18.424  0.00  0.00    +0.409 C 
ATOM     24  O   UNL     1      51.620  19.328  18.208  0.00  0.00    -0.430 OA
ATOM     25  C   UNL     1      49.486  18.405  18.410  0.00  0.00    -0.212 A 
ATOM     26  C   UNL     1      49.892  17.188  17.849  0.00  0.00    +0.218 A 
ATOM     29  C   UNL     1      49.008  16.096  17.845  0.00  0.00    -0.119 A 
ATOM     30  C   UNL     1      49.378  14.857  17.286  0.00  0.00    +0.142 A 
ATOM     33  C   UNL     1      48.485  13.807  17.314  0.00  0.00    -0.108 A 
ENDROOT
BRANCH  26  27
ATOM     27  O   UNL     1      51.129  17.064  17.313  0.00  0.00    -0.462 OA
ATOM     28  H   UNL     1      51.790  16.712  17.926  0.00  0.00    +0.398 HD
ENDBRANCH  26  27
BRANCH  30  31
ATOM     31  O   UNL     1      50.606  14.697  16.731  0.00  0.00    -0.472 OA
ATOM     32  H   UNL     1      50.635  14.869  15.780  0.00  0.00    +0.386 HD
ENDBRANCH  30  31
BRANCH   3   4
ATOM      4  C   UNL     1      45.467  15.293  19.029  0.00  0.00    +0.081 C 
BRANCH   4   5
ATOM      5  C   UNL     1      45.594  15.422  20.548  0.00  0.00    +0.056 C 
BRANCH   5   6
ATOM      6  C   UNL     1      45.871  14.066  21.145  0.00  0.00    -0.061 C 
ATOM      7  C   UNL     1      46.976  13.860  21.817  0.00  0.00    -0.128 C 
ATOM      8  C   UNL     1      47.204  12.539  22.505  0.00  0.00    +0.072 C 
ATOM      9  C   UNL     1      48.020  14.945  21.903  0.00  0.00    +0.071 C 
ENDBRANCH   5   6
ENDBRANCH   4   5
ENDBRANCH   3   4
BRANCH  13  14
ATOM     14  C   UNL     1      46.758  20.518  18.534  0.00  0.00    +0.060 C 
BRANCH  14  15
ATOM     15  C   UNL     1      45.566  21.110  19.288  0.00  0.00    +0.049 C 
BRANCH  15  16
ATOM     16  C   UNL     1      45.008  20.079  20.235  0.00  0.00    -0.060 C 
ATOM     17  C   UNL     1      43.830  19.551  20.009  0.00  0.00    -0.126 C 
ATOM     18  C   UNL     1      43.300  18.474  20.919  0.00  0.00    +0.073 C 
ATOM     19  C   UNL     1      43.007  20.021  18.838  0.00  0.00    +0.073 C 
ENDBRANCH  15  16
ENDBRANCH  14  15
ENDBRANCH  13  14
BRANCH  33  34
ATOM     34  C   UNL     1      48.878  12.477  16.723  0.00  0.00    +0.082 C 
BRANCH  34  35
ATOM     35  C   UNL     1      48.689  12.517  15.205  0.00  0.00    +0.059 C 
BRANCH  35  36
ATOM     36  C   UNL     1      49.399  11.344  14.579  0.00  0.00    -0.063 C 
ATOM     37  C   UNL     1      50.514  11.533  13.917  0.00  0.00    -0.128 C 
ATOM     38  C   UNL     1      51.300  10.350  13.414  0.00  0.00    +0.071 C 
ATOM     39  C   UNL     1      51.009  12.932  13.656  0.00  0.00    +0.073 C 
ENDBRANCH  35  36
ENDBRANCH  34  35
ENDBRANCH  33  34
TORSDOF 11
ENDMDL
MODEL 9
REMARK VINA RESULT:      -5.5      3.305      6.868
REMARK  Name = ZINC95485966
REMARK  18 active torsions:
REMARK  status: ('A' for Active; 'I' for Inactive)
REMARK    1  A    between atoms: C1_1  and  C2_2
REMARK    2  A    between atoms: C3_3  and  C28_33
REMARK    3  A    between atoms: C8_8  and  O2_19
REMARK    4  A    between atoms: C10_10  and  O1_18
REMARK    5  A    between atoms: C11_11  and  C12_12
REMARK    6  A    between atoms: C12_12  and  C13_13
REMARK    7  A    between atoms: C13_13  and  C14_14
REMARK    8  A    between atoms: C15_15  and  C16_16
REMARK    9  A    between atoms: C15_15  and  C17_17
REMARK   10  A    between atoms: C21_24  and  C22_26
REMARK   11  A    between atoms: C22_26  and  C23_27
REMARK   12  A    between atoms: C23_27  and  C24_28
REMARK   13  A    between atoms: C25_29  and  C26_30
REMARK   14  A    between atoms: C25_29  and  C27_31
REMARK   15  A    between atoms: C28_33  and  C29_34
REMARK   16  A    between atoms: C29_34  and  C30_35
REMARK   17  A    between atoms: C31_36  and  C32_37
REMARK   18  A    between atoms: C31_36  and  C33_38
REMARK                            x       y       z     vdW  Elec       q    Type
REMARK                         _______ _______ _______ _____ _____    ______ ____
ROOT
ATOM      1  C   UNL     1      47.567  19.104  18.624  0.00  0.00    +0.100 C 
ATOM      2  C   UNL     1      48.717  18.170  18.897  0.00  0.00    -0.036 A 
ATOM      3  C   UNL     1      48.753  16.954  18.280  0.00  0.00    -0.090 A 
ATOM     10  C   UNL     1      49.818  16.074  18.527  0.00  0.00    +0.013 A 
ATOM     11  C   UNL     1      49.871  14.810  17.909  0.00  0.00    +0.017 A 
ATOM     12  C   UNL     1      50.905  13.959  18.153  0.00  0.00    -0.016 A 
ATOM     13  C   UNL     1      50.879  12.607  17.483  0.00  0.00    +0.018 C 
ATOM     20  C   UNL     1      52.245  11.970  17.537  0.00  0.00    +0.376 C 
ATOM     21  O   UNL     1      52.733  11.455  16.560  0.00  0.00    -0.430 OA
ATOM     22  C   UNL     1      52.987  12.000  18.860  0.00  0.00    +0.044 C 
ATOM     23  C   UNL     1      53.095  13.456  19.262  0.00  0.00    +0.409 C 
ATOM     24  O   UNL     1      54.107  13.882  19.778  0.00  0.00    -0.430 OA
ATOM     25  C   UNL     1      51.949  14.340  19.015  0.00  0.00    -0.212 A 
ATOM     26  C   UNL     1      51.923  15.587  19.651  0.00  0.00    +0.218 A 
ATOM     29  C   UNL     1      50.852  16.466  19.413  0.00  0.00    -0.119 A 
ATOM     30  C   UNL     1      50.787  17.727  20.038  0.00  0.00    +0.142 A 
ATOM     33  C   UNL     1      49.726  18.564  19.767  0.00  0.00    -0.108 A 
ENDROOT
BRANCH  26  27
ATOM     27  O   UNL     1      52.922  15.945  20.492  0.00  0.00    -0.462 OA
ATOM     28  H   UNL     1      52.669  16.616  21.141  0.00  0.00    +0.398 HD
ENDBRANCH  26  27
BRANCH  30  31
ATOM     31  O   UNL     1      51.766  18.116  20.894  0.00  0.00    -0.472 OA
ATOM     32  H   UNL     1      52.558  17.563  20.866  0.00  0.00    +0.386 HD
ENDBRANCH  30  31
BRANCH   3   4
ATOM      4  C   UNL     1      47.649  16.555  17.335  0.00  0.00    +0.081 C 
BRANCH   4   5
ATOM      5  C   UNL     1      46.838  15.414  17.953  0.00  0.00    +0.056 C 
BRANCH   5   6
ATOM      6  C   UNL     1      45.759  15.987  18.836  0.00  0.00    -0.061 C 
ATOM      7  C   UNL     1      45.775  15.752  20.125  0.00  0.00    -0.128 C 
ATOM      8  C   UNL     1      44.761  16.411  21.024  0.00  0.00    +0.072 C 
ATOM      9  C   UNL     1      46.809  14.822  20.709  0.00  0.00    +0.071 C 
ENDBRANCH   5   6
ENDBRANCH   4   5
ENDBRANCH   3   4
BRANCH  13  14
ATOM     14  C   UNL     1      49.872  11.706  18.200  0.00  0.00    +0.060 C 
BRANCH  14  15
ATOM     15  C   UNL     1      49.016  10.974  17.165  0.00  0.00    +0.049 C 
BRANCH  15  16
ATOM     16  C   UNL     1      47.557  11.205  17.466  0.00  0.00    -0.060 C 
ATOM     17  C   UNL     1      46.850  12.005  16.706  0.00  0.00    -0.126 C 
ATOM     18  C   UNL     1      45.377  12.186  16.968  0.00  0.00    +0.073 C 
ATOM     19  C   UNL     1      47.510  12.744  15.571  0.00  0.00    +0.073 C 
ENDBRANCH  15  16
ENDBRANCH  14  15
ENDBRANCH  13  14
BRANCH  33  34
ATOM     34  C   UNL     1      49.655  19.917  20.428  0.00  0.00    +0.082 C 
BRANCH  34  35
ATOM     35  C   UNL     1      50.874  20.748  20.021  0.00  0.00    +0.059 C 
BRANCH  35  36
ATOM     36  C   UNL     1      50.727  21.186  18.587  0.00  0.00    -0.063 C 
ATOM     37  C   UNL     1      51.602  20.798  17.692  0.00  0.00    -0.128 C 
ATOM     38  C   UNL     1      51.380  21.114  16.236  0.00  0.00    +0.071 C 
ATOM     39  C   UNL     1      52.830  20.037  18.120  0.00  0.00    +0.073 C 
ENDBRANCH  35  36
ENDBRANCH  34  35
ENDBRANCH  33  34
TORSDOF 11
ENDMDL
