MODEL 1
REMARK VINA RESULT:      -6.6      0.000      0.000
REMARK  Name = ZINC95486322
REMARK  9 active torsions:
REMARK  status: ('A' for Active; 'I' for Inactive)
REMARK    1  A    between atoms: C1_1  and  C2_2
REMARK    2  A    between atoms: C7_8  and  C12_16
REMARK    3  A    between atoms: C8_9  and  O1_15
REMARK    4  A    between atoms: C10_11  and  C11_14
REMARK    5  A    between atoms: C17_21  and  O4_30
REMARK    6  A    between atoms: C19_23  and  O3_28
REMARK    7  A    between atoms: C21_25  and  O2_26
REMARK    8  A    between atoms: O2_26  and  C22_27
REMARK    9  A    between atoms: O3_28  and  C23_29
REMARK                            x       y       z     vdW  Elec       q    Type
REMARK                         _______ _______ _______ _____ _____    ______ ____
ROOT
ATOM      1  C   UNL     1      46.530  12.118  18.005  0.00  0.00    +0.093 C 
ATOM      2  C   UNL     1      46.589  13.630  18.234  0.00  0.00    +0.167 C 
ATOM      3  C   UNL     1      45.588  14.024  19.321  0.00  0.00    +0.131 C 
ATOM      4  C   UNL     1      45.477  15.526  19.393  0.00  0.00    -0.078 A 
ATOM      5  C   UNL     1      44.901  16.094  20.520  0.00  0.00    +0.026 A 
ATOM      6  C   UNL     1      44.775  17.462  20.630  0.00  0.00    +0.076 A 
ATOM      7  C   UNL     1      45.229  18.284  19.600  0.00  0.00    -0.016 A 
ATOM     24  C   UNL     1      45.809  17.710  18.466  0.00  0.00    +0.150 A 
ATOM     27  C   UNL     1      45.932  16.330  18.368  0.00  0.00    -0.156 A 
ATOM     28  C   UNL     1      46.572  15.752  17.133  0.00  0.00    +0.236 C 
ATOM     29  C   UNL     1      48.091  15.899  17.235  0.00  0.00    +0.093 C 
ATOM     30  N   UNL     1      46.237  14.333  16.991  0.00  0.00    -0.501 N 
ATOM     31  H   UNL     1      45.248  14.238  16.817  0.00  0.00    +0.429 HD
ATOM     32  H   UNL     1      46.755  13.937  16.221  0.00  0.00    +0.431 HD
ENDROOT
BRANCH   7   8
ATOM      8  C   UNL     1      45.097  19.754  19.706  0.00  0.00    -0.152 A 
ATOM      9  C   UNL     1      43.873  20.385  19.380  0.00  0.00    +0.059 A 
ATOM     10  C   UNL     1      42.765  19.637  18.953  0.00  0.00    -0.017 A 
ATOM     11  C   UNL     1      41.596  20.267  18.645  0.00  0.00    +0.067 A 
ATOM     12  C   UNL     1      41.479  21.650  18.748  0.00  0.00    -0.037 A 
ATOM     13  C   UNL     1      42.545  22.418  19.164  0.00  0.00    +0.163 A 
ATOM     16  C   UNL     1      43.764  21.792  19.488  0.00  0.00    -0.131 A 
ATOM     17  C   UNL     1      44.876  22.545  19.919  0.00  0.00    +0.216 A 
ATOM     20  C   UNL     1      46.057  21.910  20.231  0.00  0.00    -0.173 A 
ATOM     21  C   UNL     1      46.172  20.524  20.131  0.00  0.00    +0.201 A 
BRANCH  13  14
ATOM     14  O   UNL     1      42.420  23.767  19.260  0.00  0.00    -0.480 OA
ATOM     15  H   UNL     1      42.058  24.186  18.468  0.00  0.00    +0.396 HD
ENDBRANCH  13  14
BRANCH  17  18
ATOM     18  O   UNL     1      44.782  23.895  20.025  0.00  0.00    -0.287 OA
ATOM     19  C   UNL     1      45.738  24.549  20.861  0.00  0.00    +0.249 C 
ENDBRANCH  17  18
BRANCH  21  22
ATOM     22  O   UNL     1      47.347  19.922  20.450  0.00  0.00    -0.312 OA
ATOM     23  C   UNL     1      48.500  20.315  19.703  0.00  0.00    +0.247 C 
ENDBRANCH  21  22
ENDBRANCH   7   8
BRANCH  24  25
ATOM     25  O   UNL     1      46.255  18.503  17.457  0.00  0.00    -0.485 OA
ATOM     26  H   UNL     1      46.513  19.392  17.738  0.00  0.00    +0.395 HD
ENDBRANCH  24  25
TORSDOF 5
ENDMDL
MODEL 2
REMARK VINA RESULT:      -6.3      1.218      3.121
REMARK  Name = ZINC95486322
REMARK  9 active torsions:
REMARK  status: ('A' for Active; 'I' for Inactive)
REMARK    1  A    between atoms: C1_1  and  C2_2
REMARK    2  A    between atoms: C7_8  and  C12_16
REMARK    3  A    between atoms: C8_9  and  O1_15
REMARK    4  A    between atoms: C10_11  and  C11_14
REMARK    5  A    between atoms: C17_21  and  O4_30
REMARK    6  A    between atoms: C19_23  and  O3_28
REMARK    7  A    between atoms: C21_25  and  O2_26
REMARK    8  A    between atoms: O2_26  and  C22_27
REMARK    9  A    between atoms: O3_28  and  C23_29
REMARK                            x       y       z     vdW  Elec       q    Type
REMARK                         _______ _______ _______ _____ _____    ______ ____
ROOT
ATOM      1  C   UNL     1      46.614  12.139  17.953  0.00  0.00    +0.093 C 
ATOM      2  C   UNL     1      46.651  13.643  18.234  0.00  0.00    +0.167 C 
ATOM      3  C   UNL     1      45.624  13.988  19.313  0.00  0.00    +0.131 C 
ATOM      4  C   UNL     1      45.495  15.486  19.434  0.00  0.00    -0.078 A 
ATOM      5  C   UNL     1      44.890  16.009  20.568  0.00  0.00    +0.026 A 
ATOM      6  C   UNL     1      44.747  17.371  20.722  0.00  0.00    +0.076 A 
ATOM      7  C   UNL     1      45.211  18.232  19.729  0.00  0.00    -0.016 A 
ATOM     24  C   UNL     1      45.820  17.703  18.588  0.00  0.00    +0.150 A 
ATOM     27  C   UNL     1      45.961  16.329  18.446  0.00  0.00    -0.156 A 
ATOM     28  C   UNL     1      46.631  15.800  17.204  0.00  0.00    +0.236 C 
ATOM     29  C   UNL     1      48.146  15.960  17.342  0.00  0.00    +0.093 C 
ATOM     30  N   UNL     1      46.315  14.383  17.008  0.00  0.00    -0.501 N 
ATOM     31  H   UNL     1      45.331  14.283  16.812  0.00  0.00    +0.429 HD
ATOM     32  H   UNL     1      46.852  14.019  16.236  0.00  0.00    +0.431 HD
ENDROOT
BRANCH   7   8
ATOM      8  C   UNL     1      45.060  19.696  19.882  0.00  0.00    -0.152 A 
ATOM      9  C   UNL     1      46.027  20.441  20.598  0.00  0.00    +0.059 A 
ATOM     10  C   UNL     1      47.142  19.814  21.175  0.00  0.00    -0.017 A 
ATOM     11  C   UNL     1      48.061  20.553  21.859  0.00  0.00    +0.067 A 
ATOM     12  C   UNL     1      47.912  21.930  21.999  0.00  0.00    -0.037 A 
ATOM     13  C   UNL     1      46.831  22.581  21.447  0.00  0.00    +0.163 A 
ATOM     16  C   UNL     1      45.867  21.841  20.734  0.00  0.00    -0.131 A 
ATOM     17  C   UNL     1      44.748  22.474  20.155  0.00  0.00    +0.216 A 
ATOM     20  C   UNL     1      43.820  21.729  19.462  0.00  0.00    -0.173 A 
ATOM     21  C   UNL     1      43.971  20.350  19.319  0.00  0.00    +0.201 A 
BRANCH  13  14
ATOM     14  O   UNL     1      46.695  23.924  21.589  0.00  0.00    -0.480 OA
ATOM     15  H   UNL     1      47.496  24.425  21.382  0.00  0.00    +0.396 HD
ENDBRANCH  13  14
BRANCH  17  18
ATOM     18  O   UNL     1      44.585  23.815  20.280  0.00  0.00    -0.287 OA
ATOM     19  C   UNL     1      44.467  24.571  19.073  0.00  0.00    +0.249 C 
ENDBRANCH  17  18
BRANCH  21  22
ATOM     22  O   UNL     1      43.044  19.639  18.626  0.00  0.00    -0.312 OA
ATOM     23  C   UNL     1      41.811  20.298  18.331  0.00  0.00    +0.247 C 
ENDBRANCH  21  22
ENDBRANCH   7   8
BRANCH  24  25
ATOM     25  O   UNL     1      46.276  18.535  17.615  0.00  0.00    -0.485 OA
ATOM     26  H   UNL     1      46.316  18.131  16.737  0.00  0.00    +0.395 HD
ENDBRANCH  24  25
TORSDOF 5
ENDMDL
MODEL 3
REMARK VINA RESULT:      -6.1      2.772      5.274
REMARK  Name = ZINC95486322
REMARK  9 active torsions:
REMARK  status: ('A' for Active; 'I' for Inactive)
REMARK    1  A    between atoms: C1_1  and  C2_2
REMARK    2  A    between atoms: C7_8  and  C12_16
REMARK    3  A    between atoms: C8_9  and  O1_15
REMARK    4  A    between atoms: C10_11  and  C11_14
REMARK    5  A    between atoms: C17_21  and  O4_30
REMARK    6  A    between atoms: C19_23  and  O3_28
REMARK    7  A    between atoms: C21_25  and  O2_26
REMARK    8  A    between atoms: O2_26  and  C22_27
REMARK    9  A    between atoms: O3_28  and  C23_29
REMARK                            x       y       z     vdW  Elec       q    Type
REMARK                         _______ _______ _______ _____ _____    ______ ____
ROOT
ATOM      1  C   UNL     1      52.632  20.828  21.586  0.00  0.00    +0.093 C 
ATOM      2  C   UNL     1      51.206  20.928  21.040  0.00  0.00    +0.167 C 
ATOM      3  C   UNL     1      50.216  21.011  22.202  0.00  0.00    +0.131 C 
ATOM      4  C   UNL     1      48.806  20.883  21.682  0.00  0.00    -0.078 A 
ATOM      5  C   UNL     1      47.759  21.272  22.505  0.00  0.00    +0.026 A 
ATOM      6  C   UNL     1      46.453  21.170  22.075  0.00  0.00    +0.076 A 
ATOM      7  C   UNL     1      46.181  20.670  20.802  0.00  0.00    -0.016 A 
ATOM     24  C   UNL     1      47.237  20.278  19.975  0.00  0.00    +0.150 A 
ATOM     27  C   UNL     1      48.549  20.388  20.420  0.00  0.00    -0.156 A 
ATOM     28  C   UNL     1      49.658  19.963  19.494  0.00  0.00    +0.236 C 
ATOM     29  C   UNL     1      49.899  21.062  18.456  0.00  0.00    +0.093 C 
ATOM     30  N   UNL     1      50.897  19.732  20.241  0.00  0.00    -0.501 N 
ATOM     31  H   UNL     1      50.777  18.939  20.852  0.00  0.00    +0.429 HD
ATOM     32  H   UNL     1      51.653  19.552  19.598  0.00  0.00    +0.431 HD
ENDROOT
BRANCH   7   8
ATOM      8  C   UNL     1      44.783  20.554  20.331  0.00  0.00    -0.152 A 
ATOM      9  C   UNL     1      44.113  21.683  19.804  0.00  0.00    +0.059 A 
ATOM     10  C   UNL     1      44.753  22.929  19.716  0.00  0.00    -0.017 A 
ATOM     11  C   UNL     1      44.087  24.002  19.204  0.00  0.00    +0.067 A 
ATOM     12  C   UNL     1      42.772  23.885  18.762  0.00  0.00    -0.037 A 
ATOM     13  C   UNL     1      42.111  22.679  18.832  0.00  0.00    +0.163 A 
ATOM     16  C   UNL     1      42.776  21.553  19.357  0.00  0.00    -0.131 A 
ATOM     17  C   UNL     1      42.131  20.302  19.443  0.00  0.00    +0.216 A 
ATOM     20  C   UNL     1      42.803  19.217  19.959  0.00  0.00    -0.173 A 
ATOM     21  C   UNL     1      44.121  19.334  20.398  0.00  0.00    +0.201 A 
BRANCH  13  14
ATOM     14  O   UNL     1      40.828  22.575  18.398  0.00  0.00    -0.480 OA
ATOM     15  H   UNL     1      40.334  23.406  18.429  0.00  0.00    +0.396 HD
ENDBRANCH  13  14
BRANCH  17  18
ATOM     18  O   UNL     1      40.849  20.168  19.018  0.00  0.00    -0.287 OA
ATOM     19  C   UNL     1      40.625  19.318  17.892  0.00  0.00    +0.249 C 
ENDBRANCH  17  18
BRANCH  21  22
ATOM     22  O   UNL     1      44.763  18.247  20.898  0.00  0.00    -0.312 OA
ATOM     23  C   UNL     1      44.938  17.135  20.017  0.00  0.00    +0.247 C 
ENDBRANCH  21  22
ENDBRANCH   7   8
BRANCH  24  25
ATOM     25  O   UNL     1      46.982  19.790  18.734  0.00  0.00    -0.485 OA
ATOM     26  H   UNL     1      46.553  20.423  18.142  0.00  0.00    +0.395 HD
ENDBRANCH  24  25
TORSDOF 5
ENDMDL
MODEL 4
REMARK VINA RESULT:      -5.9      2.973      5.039
REMARK  Name = ZINC95486322
REMARK  9 active torsions:
REMARK  status: ('A' for Active; 'I' for Inactive)
REMARK    1  A    between atoms: C1_1  and  C2_2
REMARK    2  A    between atoms: C7_8  and  C12_16
REMARK    3  A    between atoms: C8_9  and  O1_15
REMARK    4  A    between atoms: C10_11  and  C11_14
REMARK    5  A    between atoms: C17_21  and  O4_30
REMARK    6  A    between atoms: C19_23  and  O3_28
REMARK    7  A    between atoms: C21_25  and  O2_26
REMARK    8  A    between atoms: O2_26  and  C22_27
REMARK    9  A    between atoms: O3_28  and  C23_29
REMARK                            x       y       z     vdW  Elec       q    Type
REMARK                         _______ _______ _______ _____ _____    ______ ____
ROOT
ATOM      1  C   UNL     1      54.170  16.192  19.497  0.00  0.00    +0.093 C 
ATOM      2  C   UNL     1      52.695  16.585  19.382  0.00  0.00    +0.167 C 
ATOM      3  C   UNL     1      52.584  18.025  18.880  0.00  0.00    +0.131 C 
ATOM      4  C   UNL     1      51.154  18.492  18.980  0.00  0.00    -0.078 A 
ATOM      5  C   UNL     1      50.775  19.621  18.268  0.00  0.00    +0.026 A 
ATOM      6  C   UNL     1      49.480  20.088  18.331  0.00  0.00    +0.076 A 
ATOM      7  C   UNL     1      48.541  19.421  19.117  0.00  0.00    -0.016 A 
ATOM     24  C   UNL     1      48.925  18.284  19.833  0.00  0.00    +0.150 A 
ATOM     27  C   UNL     1      50.233  17.822  19.759  0.00  0.00    -0.156 A 
ATOM     28  C   UNL     1      50.603  16.588  20.539  0.00  0.00    +0.236 C 
ATOM     29  C   UNL     1      50.105  15.350  19.792  0.00  0.00    +0.093 C 
ATOM     30  N   UNL     1      52.056  16.495  20.704  0.00  0.00    -0.501 N 
ATOM     31  H   UNL     1      52.376  17.253  21.287  0.00  0.00    +0.429 HD
ATOM     32  H   UNL     1      52.293  15.614  21.135  0.00  0.00    +0.431 HD
ENDROOT
BRANCH   7   8
ATOM      8  C   UNL     1      47.148  19.915  19.193  0.00  0.00    -0.152 A 
ATOM      9  C   UNL     1      46.804  20.938  20.109  0.00  0.00    +0.059 A 
ATOM     10  C   UNL     1      47.768  21.503  20.958  0.00  0.00    -0.017 A 
ATOM     11  C   UNL     1      47.412  22.488  21.830  0.00  0.00    +0.067 A 
ATOM     12  C   UNL     1      46.100  22.948  21.896  0.00  0.00    -0.037 A 
ATOM     13  C   UNL     1      45.126  22.416  21.080  0.00  0.00    +0.163 A 
ATOM     16  C   UNL     1      45.466  21.398  20.168  0.00  0.00    -0.131 A 
ATOM     17  C   UNL     1      44.497  20.832  19.315  0.00  0.00    +0.216 A 
ATOM     20  C   UNL     1      44.854  19.838  18.432  0.00  0.00    -0.173 A 
ATOM     21  C   UNL     1      46.170  19.381  18.364  0.00  0.00    +0.201 A 
BRANCH  13  14
ATOM     14  O   UNL     1      43.849  22.872  21.152  0.00  0.00    -0.480 OA
ATOM     15  H   UNL     1      43.282  22.570  20.430  0.00  0.00    +0.396 HD
ENDBRANCH  13  14
BRANCH  17  18
ATOM     18  O   UNL     1      43.212  21.266  19.365  0.00  0.00    -0.287 OA
ATOM     19  C   UNL     1      42.209  20.384  18.857  0.00  0.00    +0.249 C 
ENDBRANCH  17  18
BRANCH  21  22
ATOM     22  O   UNL     1      46.498  18.403  17.480  0.00  0.00    -0.312 OA
ATOM     23  C   UNL     1      46.033  17.083  17.773  0.00  0.00    +0.247 C 
ENDBRANCH  21  22
ENDBRANCH   7   8
BRANCH  24  25
ATOM     25  O   UNL     1      48.017  17.628  20.601  0.00  0.00    -0.485 OA
ATOM     26  H   UNL     1      47.399  17.078  20.099  0.00  0.00    +0.395 HD
ENDBRANCH  24  25
TORSDOF 5
ENDMDL
MODEL 5
REMARK VINA RESULT:      -5.9      3.130      6.621
REMARK  Name = ZINC95486322
REMARK  9 active torsions:
REMARK  status: ('A' for Active; 'I' for Inactive)
REMARK    1  A    between atoms: C1_1  and  C2_2
REMARK    2  A    between atoms: C7_8  and  C12_16
REMARK    3  A    between atoms: C8_9  and  O1_15
REMARK    4  A    between atoms: C10_11  and  C11_14
REMARK    5  A    between atoms: C17_21  and  O4_30
REMARK    6  A    between atoms: C19_23  and  O3_28
REMARK    7  A    between atoms: C21_25  and  O2_26
REMARK    8  A    between atoms: O2_26  and  C22_27
REMARK    9  A    between atoms: O3_28  and  C23_29
REMARK                            x       y       z     vdW  Elec       q    Type
REMARK                         _______ _______ _______ _____ _____    ______ ____
ROOT
ATOM      1  C   UNL     1      41.166  18.820  21.698  0.00  0.00    +0.093 C 
ATOM      2  C   UNL     1      42.450  18.861  20.866  0.00  0.00    +0.167 C 
ATOM      3  C   UNL     1      43.547  18.066  21.577  0.00  0.00    +0.131 C 
ATOM      4  C   UNL     1      44.868  18.289  20.884  0.00  0.00    -0.078 A 
ATOM      5  C   UNL     1      45.909  17.408  21.145  0.00  0.00    +0.026 A 
ATOM      6  C   UNL     1      47.135  17.572  20.539  0.00  0.00    +0.076 A 
ATOM      7  C   UNL     1      47.334  18.633  19.656  0.00  0.00    -0.016 A 
ATOM     24  C   UNL     1      46.285  19.518  19.394  0.00  0.00    +0.150 A 
ATOM     27  C   UNL     1      45.053  19.340  20.011  0.00  0.00    -0.156 A 
ATOM     28  C   UNL     1      43.946  20.312  19.694  0.00  0.00    +0.236 C 
ATOM     29  C   UNL     1      43.338  19.959  18.335  0.00  0.00    +0.093 C 
ATOM     30  N   UNL     1      42.898  20.254  20.717  0.00  0.00    -0.501 N 
ATOM     31  H   UNL     1      43.267  20.586  21.594  0.00  0.00    +0.429 HD
ATOM     32  H   UNL     1      42.118  20.831  20.437  0.00  0.00    +0.431 HD
ENDROOT
BRANCH   7   8
ATOM      8  C   UNL     1      48.648  18.820  19.001  0.00  0.00    -0.152 A 
ATOM      9  C   UNL     1      49.611  19.687  19.570  0.00  0.00    +0.059 A 
ATOM     10  C   UNL     1      49.345  20.381  20.760  0.00  0.00    -0.017 A 
ATOM     11  C   UNL     1      50.290  21.210  21.291  0.00  0.00    +0.067 A 
ATOM     12  C   UNL     1      51.523  21.381  20.669  0.00  0.00    -0.037 A 
ATOM     13  C   UNL     1      51.820  20.716  19.500  0.00  0.00    +0.163 A 
ATOM     16  C   UNL     1      50.863  19.853  18.930  0.00  0.00    -0.131 A 
ATOM     17  C   UNL     1      51.133  19.155  17.736  0.00  0.00    +0.216 A 
ATOM     20  C   UNL     1      50.180  18.317  17.199  0.00  0.00    -0.173 A 
ATOM     21  C   UNL     1      48.947  18.143  17.825  0.00  0.00    +0.201 A 
BRANCH  13  14
ATOM     14  O   UNL     1      53.026  20.890  18.901  0.00  0.00    -0.480 OA
ATOM     15  H   UNL     1      53.764  20.481  19.374  0.00  0.00    +0.396 HD
ENDBRANCH  13  14
BRANCH  17  18
ATOM     18  O   UNL     1      52.329  19.309  17.114  0.00  0.00    -0.287 OA
ATOM     19  C   UNL     1      52.301  19.670  15.732  0.00  0.00    +0.249 C 
ENDBRANCH  17  18
BRANCH  21  22
ATOM     22  O   UNL     1      48.026  17.307  17.278  0.00  0.00    -0.312 OA
ATOM     23  C   UNL     1      48.335  15.912  17.282  0.00  0.00    +0.247 C 
ENDBRANCH  21  22
ENDBRANCH   7   8
BRANCH  24  25
ATOM     25  O   UNL     1      46.470  20.554  18.535  0.00  0.00    -0.485 OA
ATOM     26  H   UNL     1      45.696  21.126  18.435  0.00  0.00    +0.395 HD
ENDBRANCH  24  25
TORSDOF 5
ENDMDL
MODEL 6
REMARK VINA RESULT:      -5.8      1.492      2.254
REMARK  Name = ZINC95486322
REMARK  9 active torsions:
REMARK  status: ('A' for Active; 'I' for Inactive)
REMARK    1  A    between atoms: C1_1  and  C2_2
REMARK    2  A    between atoms: C7_8  and  C12_16
REMARK    3  A    between atoms: C8_9  and  O1_15
REMARK    4  A    between atoms: C10_11  and  C11_14
REMARK    5  A    between atoms: C17_21  and  O4_30
REMARK    6  A    between atoms: C19_23  and  O3_28
REMARK    7  A    between atoms: C21_25  and  O2_26
REMARK    8  A    between atoms: O2_26  and  C22_27
REMARK    9  A    between atoms: O3_28  and  C23_29
REMARK                            x       y       z     vdW  Elec       q    Type
REMARK                         _______ _______ _______ _____ _____    ______ ____
ROOT
ATOM      1  C   UNL     1      46.725  11.627  17.253  0.00  0.00    +0.093 C 
ATOM      2  C   UNL     1      46.389  13.001  17.835  0.00  0.00    +0.167 C 
ATOM      3  C   UNL     1      46.831  14.093  16.860  0.00  0.00    +0.131 C 
ATOM      4  C   UNL     1      46.712  15.445  17.519  0.00  0.00    -0.078 A 
ATOM      5  C   UNL     1      46.729  16.576  16.716  0.00  0.00    +0.026 A 
ATOM      6  C   UNL     1      46.626  17.833  17.273  0.00  0.00    +0.076 A 
ATOM      7  C   UNL     1      46.506  17.970  18.655  0.00  0.00    -0.016 A 
ATOM     24  C   UNL     1      46.489  16.829  19.462  0.00  0.00    +0.150 A 
ATOM     27  C   UNL     1      46.591  15.568  18.888  0.00  0.00    -0.156 A 
ATOM     28  C   UNL     1      46.560  14.363  19.792  0.00  0.00    +0.236 C 
ATOM     29  C   UNL     1      45.114  14.079  20.205  0.00  0.00    +0.093 C 
ATOM     30  N   UNL     1      47.102  13.187  19.108  0.00  0.00    -0.501 N 
ATOM     31  H   UNL     1      48.084  13.327  18.927  0.00  0.00    +0.429 HD
ATOM     32  H   UNL     1      46.978  12.370  19.687  0.00  0.00    +0.431 HD
ENDROOT
BRANCH   7   8
ATOM      8  C   UNL     1      46.397  19.314  19.265  0.00  0.00    -0.152 A 
ATOM      9  C   UNL     1      45.152  19.985  19.292  0.00  0.00    +0.059 A 
ATOM     10  C   UNL     1      44.000  19.396  18.747  0.00  0.00    -0.017 A 
ATOM     11  C   UNL     1      42.811  20.062  18.786  0.00  0.00    +0.067 A 
ATOM     12  C   UNL     1      42.717  21.327  19.361  0.00  0.00    -0.037 A 
ATOM     13  C   UNL     1      43.825  21.936  19.905  0.00  0.00    +0.163 A 
ATOM     16  C   UNL     1      45.066  21.271  19.879  0.00  0.00    -0.131 A 
ATOM     17  C   UNL     1      46.221  21.864  20.428  0.00  0.00    +0.216 A 
ATOM     20  C   UNL     1      47.423  21.192  20.391  0.00  0.00    -0.173 A 
ATOM     21  C   UNL     1      47.516  19.924  19.818  0.00  0.00    +0.201 A 
BRANCH  13  14
ATOM     14  O   UNL     1      43.722  23.170  20.464  0.00  0.00    -0.480 OA
ATOM     15  H   UNL     1      43.167  23.784  19.964  0.00  0.00    +0.396 HD
ENDBRANCH  13  14
BRANCH  17  18
ATOM     18  O   UNL     1      46.150  23.096  20.993  0.00  0.00    -0.287 OA
ATOM     19  C   UNL     1      47.079  23.386  22.039  0.00  0.00    +0.249 C 
ENDBRANCH  17  18
BRANCH  21  22
ATOM     22  O   UNL     1      48.712  19.280  19.799  0.00  0.00    -0.312 OA
ATOM     23  C   UNL     1      49.404  19.161  21.043  0.00  0.00    +0.247 C 
ENDBRANCH  21  22
ENDBRANCH   7   8
BRANCH  24  25
ATOM     25  O   UNL     1      46.372  16.952  20.810  0.00  0.00    -0.485 OA
ATOM     26  H   UNL     1      47.199  17.173  21.259  0.00  0.00    +0.395 HD
ENDBRANCH  24  25
TORSDOF 5
ENDMDL
MODEL 7
REMARK VINA RESULT:      -5.7      2.735      7.562
REMARK  Name = ZINC95486322
REMARK  9 active torsions:
REMARK  status: ('A' for Active; 'I' for Inactive)
REMARK    1  A    between atoms: C1_1  and  C2_2
REMARK    2  A    between atoms: C7_8  and  C12_16
REMARK    3  A    between atoms: C8_9  and  O1_15
REMARK    4  A    between atoms: C10_11  and  C11_14
REMARK    5  A    between atoms: C17_21  and  O4_30
REMARK    6  A    between atoms: C19_23  and  O3_28
REMARK    7  A    between atoms: C21_25  and  O2_26
REMARK    8  A    between atoms: O2_26  and  C22_27
REMARK    9  A    between atoms: O3_28  and  C23_29
REMARK                            x       y       z     vdW  Elec       q    Type
REMARK                         _______ _______ _______ _____ _____    ______ ____
ROOT
ATOM      1  C   UNL     1      45.432  23.754  21.026  0.00  0.00    +0.093 C 
ATOM      2  C   UNL     1      45.507  22.305  20.541  0.00  0.00    +0.167 C 
ATOM      3  C   UNL     1      46.878  21.720  20.880  0.00  0.00    +0.131 C 
ATOM      4  C   UNL     1      47.042  20.379  20.210  0.00  0.00    -0.078 A 
ATOM      5  C   UNL     1      48.048  19.534  20.657  0.00  0.00    +0.026 A 
ATOM      6  C   UNL     1      48.238  18.300  20.073  0.00  0.00    +0.076 A 
ATOM      7  C   UNL     1      47.413  17.896  19.024  0.00  0.00    -0.016 A 
ATOM     24  C   UNL     1      46.401  18.748  18.577  0.00  0.00    +0.150 A 
ATOM     27  C   UNL     1      46.218  19.989  19.175  0.00  0.00    -0.156 A 
ATOM     28  C   UNL     1      45.109  20.874  18.667  0.00  0.00    +0.236 C 
ATOM     29  C   UNL     1      43.774  20.384  19.233  0.00  0.00    +0.093 C 
ATOM     30  N   UNL     1      45.324  22.262  19.082  0.00  0.00    -0.501 N 
ATOM     31  H   UNL     1      46.148  22.624  18.627  0.00  0.00    +0.429 HD
ATOM     32  H   UNL     1      44.523  22.821  18.826  0.00  0.00    +0.431 HD
ENDROOT
BRANCH   7   8
ATOM      8  C   UNL     1      47.610  16.574  18.389  0.00  0.00    -0.152 A 
ATOM      9  C   UNL     1      46.822  15.468  18.787  0.00  0.00    +0.059 A 
ATOM     10  C   UNL     1      45.845  15.598  19.786  0.00  0.00    -0.017 A 
ATOM     11  C   UNL     1      45.097  14.518  20.152  0.00  0.00    +0.067 A 
ATOM     12  C   UNL     1      45.288  13.278  19.549  0.00  0.00    -0.037 A 
ATOM     13  C   UNL     1      46.238  13.112  18.566  0.00  0.00    +0.163 A 
ATOM     16  C   UNL     1      47.023  14.211  18.168  0.00  0.00    -0.131 A 
ATOM     17  C   UNL     1      48.004  14.078  17.164  0.00  0.00    +0.216 A 
ATOM     20  C   UNL     1      48.759  15.168  16.792  0.00  0.00    -0.173 A 
ATOM     21  C   UNL     1      48.565  16.411  17.393  0.00  0.00    +0.201 A 
BRANCH  13  14
ATOM     14  O   UNL     1      46.415  11.897  17.985  0.00  0.00    -0.480 OA
ATOM     15  H   UNL     1      45.961  11.174  18.437  0.00  0.00    +0.396 HD
ENDBRANCH  13  14
BRANCH  17  18
ATOM     18  O   UNL     1      48.205  12.877  16.565  0.00  0.00    -0.287 OA
ATOM     19  C   UNL     1      48.284  12.868  15.138  0.00  0.00    +0.249 C 
ENDBRANCH  17  18
BRANCH  21  22
ATOM     22  O   UNL     1      49.319  17.472  17.005  0.00  0.00    -0.312 OA
ATOM     23  C   UNL     1      50.734  17.357  17.173  0.00  0.00    +0.247 C 
ENDBRANCH  21  22
ENDBRANCH   7   8
BRANCH  24  25
ATOM     25  O   UNL     1      45.592  18.363  17.555  0.00  0.00    -0.485 OA
ATOM     26  H   UNL     1      46.021  18.373  16.688  0.00  0.00    +0.395 HD
ENDBRANCH  24  25
TORSDOF 5
ENDMDL
MODEL 8
REMARK VINA RESULT:      -5.6      3.466      8.032
REMARK  Name = ZINC95486322
REMARK  9 active torsions:
REMARK  status: ('A' for Active; 'I' for Inactive)
REMARK    1  A    between atoms: C1_1  and  C2_2
REMARK    2  A    between atoms: C7_8  and  C12_16
REMARK    3  A    between atoms: C8_9  and  O1_15
REMARK    4  A    between atoms: C10_11  and  C11_14
REMARK    5  A    between atoms: C17_21  and  O4_30
REMARK    6  A    between atoms: C19_23  and  O3_28
REMARK    7  A    between atoms: C21_25  and  O2_26
REMARK    8  A    between atoms: O2_26  and  C22_27
REMARK    9  A    between atoms: O3_28  and  C23_29
REMARK                            x       y       z     vdW  Elec       q    Type
REMARK                         _______ _______ _______ _____ _____    ______ ____
ROOT
ATOM      1  C   UNL     1      44.345  23.401  21.756  0.00  0.00    +0.093 C 
ATOM      2  C   UNL     1      45.040  22.188  21.133  0.00  0.00    +0.167 C 
ATOM      3  C   UNL     1      46.540  22.253  21.419  0.00  0.00    +0.131 C 
ATOM      4  C   UNL     1      47.258  21.192  20.624  0.00  0.00    -0.078 A 
ATOM      5  C   UNL     1      48.553  20.852  20.991  0.00  0.00    +0.026 A 
ATOM      6  C   UNL     1      49.251  19.890  20.292  0.00  0.00    +0.076 A 
ATOM      7  C   UNL     1      48.652  19.253  19.207  0.00  0.00    -0.016 A 
ATOM     24  C   UNL     1      47.348  19.596  18.840  0.00  0.00    +0.150 A 
ATOM     27  C   UNL     1      46.655  20.565  19.554  0.00  0.00    -0.156 A 
ATOM     28  C   UNL     1      45.248  20.899  19.131  0.00  0.00    +0.236 C 
ATOM     29  C   UNL     1      44.296  19.816  19.642  0.00  0.00    +0.093 C 
ATOM     30  N   UNL     1      44.836  22.194  19.677  0.00  0.00    -0.501 N 
ATOM     31  H   UNL     1      45.392  22.926  19.261  0.00  0.00    +0.429 HD
ATOM     32  H   UNL     1      43.861  22.354  19.473  0.00  0.00    +0.431 HD
ENDROOT
BRANCH   7   8
ATOM      8  C   UNL     1      49.392  18.220  18.448  0.00  0.00    -0.152 A 
ATOM      9  C   UNL     1      50.328  18.599  17.457  0.00  0.00    +0.059 A 
ATOM     10  C   UNL     1      50.575  19.951  17.173  0.00  0.00    -0.017 A 
ATOM     11  C   UNL     1      51.482  20.291  16.215  0.00  0.00    +0.067 A 
ATOM     12  C   UNL     1      52.175  19.314  15.505  0.00  0.00    -0.037 A 
ATOM     13  C   UNL     1      51.960  17.977  15.756  0.00  0.00    +0.163 A 
ATOM     16  C   UNL     1      51.028  17.597  16.741  0.00  0.00    -0.131 A 
ATOM     17  C   UNL     1      50.783  16.238  17.026  0.00  0.00    +0.216 A 
ATOM     20  C   UNL     1      49.867  15.893  17.995  0.00  0.00    -0.173 A 
ATOM     21  C   UNL     1      49.177  16.872  18.708  0.00  0.00    +0.201 A 
BRANCH  13  14
ATOM     14  O   UNL     1      52.641  17.031  15.058  0.00  0.00    -0.480 OA
ATOM     15  H   UNL     1      53.240  17.391  14.390  0.00  0.00    +0.396 HD
ENDBRANCH  13  14
BRANCH  17  18
ATOM     18  O   UNL     1      51.448  15.271  16.344  0.00  0.00    -0.287 OA
ATOM     19  C   UNL     1      50.930  13.942  16.432  0.00  0.00    +0.249 C 
ENDBRANCH  17  18
BRANCH  21  22
ATOM     22  O   UNL     1      48.282  16.505  19.662  0.00  0.00    -0.312 OA
ATOM     23  C   UNL     1      47.215  15.647  19.254  0.00  0.00    +0.247 C 
ENDBRANCH  21  22
ENDBRANCH   7   8
BRANCH  24  25
ATOM     25  O   UNL     1      46.756  18.979  17.784  0.00  0.00    -0.485 OA
ATOM     26  H   UNL     1      47.047  18.067  17.646  0.00  0.00    +0.395 HD
ENDBRANCH  24  25
TORSDOF 5
ENDMDL
MODEL 9
REMARK VINA RESULT:      -5.5      2.890      4.780
REMARK  Name = ZINC95486322
REMARK  9 active torsions:
REMARK  status: ('A' for Active; 'I' for Inactive)
REMARK    1  A    between atoms: C1_1  and  C2_2
REMARK    2  A    between atoms: C7_8  and  C12_16
REMARK    3  A    between atoms: C8_9  and  O1_15
REMARK    4  A    between atoms: C10_11  and  C11_14
REMARK    5  A    between atoms: C17_21  and  O4_30
REMARK    6  A    between atoms: C19_23  and  O3_28
REMARK    7  A    between atoms: C21_25  and  O2_26
REMARK    8  A    between atoms: O2_26  and  C22_27
REMARK    9  A    between atoms: O3_28  and  C23_29
REMARK                            x       y       z     vdW  Elec       q    Type
REMARK                         _______ _______ _______ _____ _____    ______ ____
ROOT
ATOM      1  C   UNL     1      53.600  17.024  21.617  0.00  0.00    +0.093 C 
ATOM      2  C   UNL     1      52.328  17.805  21.279  0.00  0.00    +0.167 C 
ATOM      3  C   UNL     1      51.172  17.303  22.145  0.00  0.00    +0.131 C 
ATOM      4  C   UNL     1      49.875  17.904  21.664  0.00  0.00    -0.078 A 
ATOM      5  C   UNL     1      48.772  17.860  22.505  0.00  0.00    +0.026 A 
ATOM      6  C   UNL     1      47.565  18.393  22.108  0.00  0.00    +0.076 A 
ATOM      7  C   UNL     1      47.449  18.982  20.850  0.00  0.00    -0.016 A 
ATOM     24  C   UNL     1      48.561  19.027  20.005  0.00  0.00    +0.150 A 
ATOM     27  C   UNL     1      49.773  18.487  20.418  0.00  0.00    -0.156 A 
ATOM     28  C   UNL     1      50.949  18.564  19.480  0.00  0.00    +0.236 C 
ATOM     29  C   UNL     1      51.540  19.974  19.525  0.00  0.00    +0.093 C 
ATOM     30  N   UNL     1      51.983  17.599  19.865  0.00  0.00    -0.501 N 
ATOM     31  H   UNL     1      51.632  16.663  19.735  0.00  0.00    +0.429 HD
ATOM     32  H   UNL     1      52.803  17.735  19.293  0.00  0.00    +0.431 HD
ENDROOT
BRANCH   7   8
ATOM      8  C   UNL     1      46.157  19.557  20.413  0.00  0.00    -0.152 A 
ATOM      9  C   UNL     1      45.877  20.927  20.629  0.00  0.00    +0.059 A 
ATOM     10  C   UNL     1      46.810  21.766  21.256  0.00  0.00    -0.017 A 
ATOM     11  C   UNL     1      46.518  23.083  21.452  0.00  0.00    +0.067 A 
ATOM     12  C   UNL     1      45.300  23.616  21.038  0.00  0.00    -0.037 A 
ATOM     13  C   UNL     1      44.360  22.823  20.418  0.00  0.00    +0.163 A 
ATOM     16  C   UNL     1      44.636  21.459  20.203  0.00  0.00    -0.131 A 
ATOM     17  C   UNL     1      43.698  20.618  19.570  0.00  0.00    +0.216 A 
ATOM     20  C   UNL     1      43.992  19.288  19.371  0.00  0.00    -0.173 A 
ATOM     21  C   UNL     1      45.213  18.756  19.783  0.00  0.00    +0.201 A 
BRANCH  13  14
ATOM     14  O   UNL     1      43.175  23.353  20.018  0.00  0.00    -0.480 OA
ATOM     15  H   UNL     1      42.669  23.769  20.729  0.00  0.00    +0.396 HD
ENDBRANCH  13  14
BRANCH  17  18
ATOM     18  O   UNL     1      42.505  21.119  19.159  0.00  0.00    -0.287 OA
ATOM     19  C   UNL     1      41.591  20.203  18.553  0.00  0.00    +0.249 C 
ENDBRANCH  17  18
BRANCH  21  22
ATOM     22  O   UNL     1      45.481  17.441  19.569  0.00  0.00    -0.312 OA
ATOM     23  C   UNL     1      45.851  17.063  18.242  0.00  0.00    +0.247 C 
ENDBRANCH  21  22
ENDBRANCH   7   8
BRANCH  24  25
ATOM     25  O   UNL     1      48.457  19.599  18.777  0.00  0.00    -0.485 OA
ATOM     26  H   UNL     1      47.590  19.987  18.595  0.00  0.00    +0.395 HD
ENDBRANCH  24  25
TORSDOF 5
ENDMDL
