MODEL 1
REMARK VINA RESULT:      -6.2      0.000      0.000
REMARK  Name = ZINC95486108
REMARK  17 active torsions:
REMARK  status: ('A' for Active; 'I' for Inactive)
REMARK    1  A    between atoms: C1_1  and  C2_2
REMARK    2  A    between atoms: C2_2  and  C3_3
REMARK    3  A    between atoms: C2_2  and  C4_4
REMARK    4  A    between atoms: C5_5  and  C6_6
REMARK    5  A    between atoms: C6_6  and  C7_7
REMARK    6  A    between atoms: C11_13  and  C26_31
REMARK    7  A    between atoms: C13_16  and  C22_27
REMARK    8  A    between atoms: C14_17  and  C15_19
REMARK    9  A    between atoms: C15_19  and  C16_20
REMARK   10  A    between atoms: C16_20  and  C17_21
REMARK   11  A    between atoms: C18_22  and  C19_23
REMARK   12  A    between atoms: C18_22  and  C20_24
REMARK   13  A    between atoms: C23_28  and  C24_29
REMARK   14  A    between atoms: C23_28  and  C25_30
REMARK   15  A    between atoms: C26_31  and  C27_33
REMARK   16  A    between atoms: C30_36  and  O5_40
REMARK   17  A    between atoms: C31_37  and  O4_39
REMARK                            x       y       z     vdW  Elec       q    Type
REMARK                         _______ _______ _______ _____ _____    ______ ____
ROOT
ATOM      6  C   UNL     1      48.807  19.112  20.766  0.00  0.00    -0.020 C 
ATOM      7  C   UNL     1      49.042  18.710  22.224  0.00  0.00    +0.080 C 
ATOM      8  C   UNL     1      48.610  17.239  22.394  0.00  0.00    +0.008 C 
ATOM      9  C   UNL     1      47.175  17.140  21.931  0.00  0.00    +0.159 C 
ATOM     10  C   UNL     1      46.848  16.853  20.661  0.00  0.00    -0.266 C 
ATOM     23  C   UNL     1      47.860  16.573  19.631  0.00  0.00    +0.415 C 
ATOM     24  C   UNL     1      49.320  16.803  19.968  0.00  0.00    -0.095 C 
ATOM     29  O   UNL     1      47.534  16.168  18.536  0.00  0.00    -0.405 OA
ATOM     30  C   UNL     1      49.489  16.424  21.457  0.00  0.00    +0.380 C 
ATOM     31  O   UNL     1      50.228  15.554  21.850  0.00  0.00    -0.413 OA
ATOM     32  C   UNL     1      49.692  18.279  19.840  0.00  0.00    +0.029 C 
ENDROOT
BRANCH  24  25
ATOM     25  C   UNL     1      50.213  15.967  19.088  0.00  0.00    -0.034 C 
ATOM     26  C   UNL     1      50.261  16.195  17.799  0.00  0.00    -0.086 C 
ATOM     27  C   UNL     1      51.047  15.276  16.901  0.00  0.00    +0.083 C 
ATOM     28  C   UNL     1      49.529  17.376  17.215  0.00  0.00    +0.074 C 
ENDBRANCH  24  25
BRANCH  10  11
ATOM     11  C   UNL     1      45.420  16.819  20.285  0.00  0.00    +0.454 C 
ATOM     22  O   UNL     1      44.819  15.761  20.275  0.00  0.00    -0.432 OA
BRANCH  11  12
ATOM     12  C   UNL     1      44.722  18.065  19.919  0.00  0.00    -0.153 A 
ATOM     13  C   UNL     1      45.285  18.933  18.979  0.00  0.00    +0.076 A 
ATOM     14  C   UNL     1      44.632  20.097  18.638  0.00  0.00    +0.001 A 
ATOM     15  C   UNL     1      43.416  20.413  19.228  0.00  0.00    +0.120 A 
ATOM     18  C   UNL     1      42.848  19.552  20.167  0.00  0.00    +0.070 A 
ATOM     21  C   UNL     1      43.494  18.381  20.509  0.00  0.00    +0.078 A 
BRANCH  15  16
ATOM     16  O   UNL     1      42.777  21.563  18.889  0.00  0.00    -0.485 OA
ATOM     17  H   UNL     1      41.935  21.425  18.435  0.00  0.00    +0.395 HD
ENDBRANCH  15  16
BRANCH  18  19
ATOM     19  O   UNL     1      41.656  19.864  20.743  0.00  0.00    -0.483 OA
ATOM     20  H   UNL     1      41.625  19.703  21.695  0.00  0.00    +0.391 HD
ENDBRANCH  18  19
ENDBRANCH  11  12
ENDBRANCH  10  11
BRANCH   6   5
ATOM      5  C   UNL     1      49.144  20.595  20.590  0.00  0.00    +0.070 C 
BRANCH   5   4
ATOM      3  C   UNL     1      46.952  21.609  20.944  0.00  0.00    -0.037 C 
ATOM      4  C   UNL     1      48.173  21.428  21.384  0.00  0.00    -0.053 C 
BRANCH   3   2
ATOM      1  C   UNL     1      45.230  23.387  20.797  0.00  0.00    +0.022 C 
ATOM      2  C   UNL     1      45.981  22.443  21.739  0.00  0.00    +0.002 C 
ATOM     39  C   UNL     1      44.981  21.526  22.446  0.00  0.00    +0.021 C 
ENDBRANCH   3   2
ENDBRANCH   5   4
ENDBRANCH   6   5
BRANCH  32  33
ATOM     33  C   UNL     1      51.161  18.512  20.200  0.00  0.00    +0.036 C 
BRANCH  33  34
ATOM     34  C   UNL     1      51.677  19.750  19.464  0.00  0.00    +0.055 C 
BRANCH  34  35
ATOM     35  C   UNL     1      52.185  19.351  18.103  0.00  0.00    -0.059 C 
ATOM     36  C   UNL     1      51.850  20.052  17.048  0.00  0.00    -0.135 C 
ATOM     37  C   UNL     1      52.280  19.600  15.676  0.00  0.00    +0.068 C 
ATOM     38  C   UNL     1      51.033  21.308  17.205  0.00  0.00    +0.070 C 
ENDBRANCH  34  35
ENDBRANCH  33  34
ENDBRANCH  32  33
TORSDOF 11
ENDMDL
MODEL 2
REMARK VINA RESULT:      -6.1      2.680      6.330
REMARK  Name = ZINC95486108
REMARK  17 active torsions:
REMARK  status: ('A' for Active; 'I' for Inactive)
REMARK    1  A    between atoms: C1_1  and  C2_2
REMARK    2  A    between atoms: C2_2  and  C3_3
REMARK    3  A    between atoms: C2_2  and  C4_4
REMARK    4  A    between atoms: C5_5  and  C6_6
REMARK    5  A    between atoms: C6_6  and  C7_7
REMARK    6  A    between atoms: C11_13  and  C26_31
REMARK    7  A    between atoms: C13_16  and  C22_27
REMARK    8  A    between atoms: C14_17  and  C15_19
REMARK    9  A    between atoms: C15_19  and  C16_20
REMARK   10  A    between atoms: C16_20  and  C17_21
REMARK   11  A    between atoms: C18_22  and  C19_23
REMARK   12  A    between atoms: C18_22  and  C20_24
REMARK   13  A    between atoms: C23_28  and  C24_29
REMARK   14  A    between atoms: C23_28  and  C25_30
REMARK   15  A    between atoms: C26_31  and  C27_33
REMARK   16  A    between atoms: C30_36  and  O5_40
REMARK   17  A    between atoms: C31_37  and  O4_39
REMARK                            x       y       z     vdW  Elec       q    Type
REMARK                         _______ _______ _______ _____ _____    ______ ____
ROOT
ATOM      6  C   UNL     1      47.181  17.418  18.093  0.00  0.00    -0.020 C 
ATOM      7  C   UNL     1      46.894  16.475  16.922  0.00  0.00    +0.080 C 
ATOM      8  C   UNL     1      47.869  15.284  17.012  0.00  0.00    +0.008 C 
ATOM      9  C   UNL     1      49.268  15.854  17.039  0.00  0.00    +0.159 C 
ATOM     10  C   UNL     1      49.895  16.163  18.185  0.00  0.00    -0.266 C 
ATOM     23  C   UNL     1      49.287  15.931  19.504  0.00  0.00    +0.415 C 
ATOM     24  C   UNL     1      47.832  15.510  19.566  0.00  0.00    -0.095 C 
ATOM     29  O   UNL     1      49.933  16.076  20.519  0.00  0.00    -0.405 OA
ATOM     30  C   UNL     1      47.588  14.600  18.341  0.00  0.00    +0.380 C 
ATOM     31  O   UNL     1      47.229  13.450  18.419  0.00  0.00    -0.413 OA
ATOM     32  C   UNL     1      46.900  16.712  19.419  0.00  0.00    +0.029 C 
ENDROOT
BRANCH  24  25
ATOM     25  C   UNL     1      47.537  14.783  20.853  0.00  0.00    -0.034 C 
ATOM     26  C   UNL     1      48.183  13.680  21.145  0.00  0.00    -0.086 C 
ATOM     27  C   UNL     1      47.795  12.881  22.361  0.00  0.00    +0.083 C 
ATOM     28  C   UNL     1      49.312  13.213  20.264  0.00  0.00    +0.074 C 
ENDBRANCH  24  25
BRANCH  10  11
ATOM     11  C   UNL     1      51.247  16.757  18.118  0.00  0.00    +0.454 C 
ATOM     22  O   UNL     1      52.204  16.140  18.546  0.00  0.00    -0.432 OA
BRANCH  11  12
ATOM     12  C   UNL     1      51.435  18.098  17.536  0.00  0.00    -0.153 A 
ATOM     13  C   UNL     1      51.581  18.247  16.154  0.00  0.00    +0.076 A 
ATOM     14  C   UNL     1      51.756  19.502  15.611  0.00  0.00    +0.001 A 
ATOM     15  C   UNL     1      51.790  20.620  16.433  0.00  0.00    +0.120 A 
ATOM     18  C   UNL     1      51.645  20.478  17.814  0.00  0.00    +0.070 A 
ATOM     21  C   UNL     1      51.463  19.225  18.364  0.00  0.00    +0.078 A 
BRANCH  15  16
ATOM     16  O   UNL     1      51.964  21.853  15.893  0.00  0.00    -0.485 OA
ATOM     17  H   UNL     1      51.433  22.544  16.311  0.00  0.00    +0.395 HD
ENDBRANCH  15  16
BRANCH  18  19
ATOM     19  O   UNL     1      51.679  21.575  18.617  0.00  0.00    -0.483 OA
ATOM     20  H   UNL     1      52.554  21.978  18.697  0.00  0.00    +0.391 HD
ENDBRANCH  18  19
ENDBRANCH  11  12
ENDBRANCH  10  11
BRANCH   6   5
ATOM      5  C   UNL     1      46.286  18.654  17.978  0.00  0.00    +0.070 C 
BRANCH   5   4
ATOM      3  C   UNL     1      48.010  19.941  19.132  0.00  0.00    -0.037 C 
ATOM      4  C   UNL     1      46.734  19.692  18.974  0.00  0.00    -0.053 C 
BRANCH   3   2
ATOM      1  C   UNL     1      47.230  21.615  20.787  0.00  0.00    +0.022 C 
ATOM      2  C   UNL     1      48.457  20.980  20.129  0.00  0.00    +0.002 C 
ATOM     39  C   UNL     1      49.325  20.317  21.200  0.00  0.00    +0.021 C 
ENDBRANCH   3   2
ENDBRANCH   5   4
ENDBRANCH   6   5
BRANCH  32  33
ATOM     33  C   UNL     1      45.432  16.282  19.463  0.00  0.00    +0.036 C 
BRANCH  33  34
ATOM     34  C   UNL     1      44.886  16.475  20.879  0.00  0.00    +0.055 C 
BRANCH  34  35
ATOM     35  C   UNL     1      44.237  17.831  20.988  0.00  0.00    -0.059 C 
ATOM     36  C   UNL     1      44.752  18.741  21.777  0.00  0.00    -0.135 C 
ATOM     37  C   UNL     1      44.052  20.063  21.959  0.00  0.00    +0.068 C 
ATOM     38  C   UNL     1      46.043  18.466  22.505  0.00  0.00    +0.070 C 
ENDBRANCH  34  35
ENDBRANCH  33  34
ENDBRANCH  32  33
TORSDOF 11
ENDMDL
MODEL 3
REMARK VINA RESULT:      -6.1      2.395      5.104
REMARK  Name = ZINC95486108
REMARK  17 active torsions:
REMARK  status: ('A' for Active; 'I' for Inactive)
REMARK    1  A    between atoms: C1_1  and  C2_2
REMARK    2  A    between atoms: C2_2  and  C3_3
REMARK    3  A    between atoms: C2_2  and  C4_4
REMARK    4  A    between atoms: C5_5  and  C6_6
REMARK    5  A    between atoms: C6_6  and  C7_7
REMARK    6  A    between atoms: C11_13  and  C26_31
REMARK    7  A    between atoms: C13_16  and  C22_27
REMARK    8  A    between atoms: C14_17  and  C15_19
REMARK    9  A    between atoms: C15_19  and  C16_20
REMARK   10  A    between atoms: C16_20  and  C17_21
REMARK   11  A    between atoms: C18_22  and  C19_23
REMARK   12  A    between atoms: C18_22  and  C20_24
REMARK   13  A    between atoms: C23_28  and  C24_29
REMARK   14  A    between atoms: C23_28  and  C25_30
REMARK   15  A    between atoms: C26_31  and  C27_33
REMARK   16  A    between atoms: C30_36  and  O5_40
REMARK   17  A    between atoms: C31_37  and  O4_39
REMARK                            x       y       z     vdW  Elec       q    Type
REMARK                         _______ _______ _______ _____ _____    ______ ____
ROOT
ATOM      6  C   UNL     1      49.098  17.305  20.697  0.00  0.00    -0.020 C 
ATOM      7  C   UNL     1      50.435  16.834  21.275  0.00  0.00    +0.080 C 
ATOM      8  C   UNL     1      51.389  16.535  20.101  0.00  0.00    +0.008 C 
ATOM      9  C   UNL     1      50.696  15.532  19.208  0.00  0.00    +0.159 C 
ATOM     10  C   UNL     1      49.914  15.904  18.183  0.00  0.00    -0.266 C 
ATOM     23  C   UNL     1      49.704  17.315  17.822  0.00  0.00    +0.415 C 
ATOM     24  C   UNL     1      50.233  18.387  18.755  0.00  0.00    -0.095 C 
ATOM     29  O   UNL     1      49.121  17.615  16.803  0.00  0.00    -0.405 OA
ATOM     30  C   UNL     1      51.555  17.842  19.341  0.00  0.00    +0.380 C 
ATOM     31  O   UNL     1      52.627  18.381  19.199  0.00  0.00    -0.413 OA
ATOM     32  C   UNL     1      49.286  18.614  19.932  0.00  0.00    +0.029 C 
ENDROOT
BRANCH  24  25
ATOM     25  C   UNL     1      50.457  19.681  18.016  0.00  0.00    -0.034 C 
ATOM     26  C   UNL     1      51.265  19.714  16.984  0.00  0.00    -0.086 C 
ATOM     27  C   UNL     1      51.595  21.030  16.329  0.00  0.00    +0.083 C 
ATOM     28  C   UNL     1      51.863  18.437  16.454  0.00  0.00    +0.074 C 
ENDBRANCH  24  25
BRANCH  10  11
ATOM     11  C   UNL     1      49.239  14.859  17.386  0.00  0.00    +0.454 C 
ATOM     22  O   UNL     1      49.773  14.415  16.387  0.00  0.00    -0.432 OA
BRANCH  11  12
ATOM     12  C   UNL     1      47.917  14.353  17.802  0.00  0.00    -0.153 A 
ATOM     13  C   UNL     1      47.377  14.735  19.033  0.00  0.00    +0.076 A 
ATOM     14  C   UNL     1      46.142  14.262  19.420  0.00  0.00    +0.001 A 
ATOM     15  C   UNL     1      45.432  13.405  18.589  0.00  0.00    +0.120 A 
ATOM     18  C   UNL     1      45.965  13.020  17.359  0.00  0.00    +0.070 A 
ATOM     21  C   UNL     1      47.200  13.495  16.963  0.00  0.00    +0.078 A 
BRANCH  15  16
ATOM     16  O   UNL     1      44.215  12.941  18.975  0.00  0.00    -0.485 OA
ATOM     17  H   UNL     1      44.243  12.358  19.746  0.00  0.00    +0.395 HD
ENDBRANCH  15  16
BRANCH  18  19
ATOM     19  O   UNL     1      45.267  12.181  16.548  0.00  0.00    -0.483 OA
ATOM     20  H   UNL     1      44.611  12.625  15.994  0.00  0.00    +0.391 HD
ENDBRANCH  18  19
ENDBRANCH  11  12
ENDBRANCH  10  11
BRANCH   6   5
ATOM      5  C   UNL     1      48.103  17.524  21.839  0.00  0.00    +0.070 C 
BRANCH   5   4
ATOM      3  C   UNL     1      45.734  18.093  21.990  0.00  0.00    -0.037 C 
ATOM      4  C   UNL     1      46.703  17.566  21.284  0.00  0.00    -0.053 C 
BRANCH   3   2
ATOM      1  C   UNL     1      44.362  17.755  19.952  0.00  0.00    +0.022 C 
ATOM      2  C   UNL     1      44.333  18.134  21.434  0.00  0.00    +0.002 C 
ATOM     39  C   UNL     1      43.453  17.142  22.197  0.00  0.00    +0.021 C 
ENDBRANCH   3   2
ENDBRANCH   5   4
ENDBRANCH   6   5
BRANCH  32  33
ATOM     33  C   UNL     1      49.831  19.682  20.882  0.00  0.00    +0.036 C 
BRANCH  33  34
ATOM     34  C   UNL     1      48.801  20.803  21.036  0.00  0.00    +0.055 C 
BRANCH  34  35
ATOM     35  C   UNL     1      47.851  20.778  19.866  0.00  0.00    -0.059 C 
ATOM     36  C   UNL     1      46.614  21.182  20.018  0.00  0.00    -0.135 C 
ATOM     37  C   UNL     1      45.639  21.070  18.875  0.00  0.00    +0.068 C 
ATOM     38  C   UNL     1      46.166  21.759  21.337  0.00  0.00    +0.070 C 
ENDBRANCH  34  35
ENDBRANCH  33  34
ENDBRANCH  32  33
TORSDOF 11
ENDMDL
MODEL 4
REMARK VINA RESULT:      -5.8      3.499      7.147
REMARK  Name = ZINC95486108
REMARK  17 active torsions:
REMARK  status: ('A' for Active; 'I' for Inactive)
REMARK    1  A    between atoms: C1_1  and  C2_2
REMARK    2  A    between atoms: C2_2  and  C3_3
REMARK    3  A    between atoms: C2_2  and  C4_4
REMARK    4  A    between atoms: C5_5  and  C6_6
REMARK    5  A    between atoms: C6_6  and  C7_7
REMARK    6  A    between atoms: C11_13  and  C26_31
REMARK    7  A    between atoms: C13_16  and  C22_27
REMARK    8  A    between atoms: C14_17  and  C15_19
REMARK    9  A    between atoms: C15_19  and  C16_20
REMARK   10  A    between atoms: C16_20  and  C17_21
REMARK   11  A    between atoms: C18_22  and  C19_23
REMARK   12  A    between atoms: C18_22  and  C20_24
REMARK   13  A    between atoms: C23_28  and  C24_29
REMARK   14  A    between atoms: C23_28  and  C25_30
REMARK   15  A    between atoms: C26_31  and  C27_33
REMARK   16  A    between atoms: C30_36  and  O5_40
REMARK   17  A    between atoms: C31_37  and  O4_39
REMARK                            x       y       z     vdW  Elec       q    Type
REMARK                         _______ _______ _______ _____ _____    ______ ____
ROOT
ATOM      6  C   UNL     1      49.096  16.070  17.860  0.00  0.00    -0.020 C 
ATOM      7  C   UNL     1      48.018  17.057  17.408  0.00  0.00    +0.080 C 
ATOM      8  C   UNL     1      46.683  16.293  17.292  0.00  0.00    +0.008 C 
ATOM      9  C   UNL     1      46.913  15.133  16.352  0.00  0.00    +0.159 C 
ATOM     10  C   UNL     1      47.308  13.925  16.786  0.00  0.00    -0.266 C 
ATOM     23  C   UNL     1      47.504  13.625  18.212  0.00  0.00    +0.415 C 
ATOM     24  C   UNL     1      47.446  14.768  19.207  0.00  0.00    -0.095 C 
ATOM     29  O   UNL     1      47.709  12.490  18.584  0.00  0.00    -0.405 OA
ATOM     30  C   UNL     1      46.378  15.752  18.681  0.00  0.00    +0.380 C 
ATOM     31  O   UNL     1      45.382  16.054  19.293  0.00  0.00    -0.413 OA
ATOM     32  C   UNL     1      48.769  15.531  19.252  0.00  0.00    +0.029 C 
ENDROOT
BRANCH  24  25
ATOM     25  C   UNL     1      47.094  14.265  20.584  0.00  0.00    -0.034 C 
ATOM     26  C   UNL     1      45.957  13.645  20.783  0.00  0.00    -0.086 C 
ATOM     27  C   UNL     1      45.543  13.264  22.180  0.00  0.00    +0.083 C 
ATOM     28  C   UNL     1      45.064  13.314  19.615  0.00  0.00    +0.074 C 
ENDBRANCH  24  25
BRANCH  10  11
ATOM     11  C   UNL     1      47.552  12.858  15.793  0.00  0.00    +0.454 C 
ATOM     22  O   UNL     1      46.793  11.910  15.720  0.00  0.00    -0.432 OA
BRANCH  11  12
ATOM     12  C   UNL     1      48.717  12.941  14.893  0.00  0.00    -0.153 A 
ATOM     13  C   UNL     1      50.006  13.045  15.424  0.00  0.00    +0.076 A 
ATOM     14  C   UNL     1      51.094  13.122  14.581  0.00  0.00    +0.001 A 
ATOM     15  C   UNL     1      50.913  13.097  13.205  0.00  0.00    +0.120 A 
ATOM     18  C   UNL     1      49.630  12.992  12.669  0.00  0.00    +0.070 A 
ATOM     21  C   UNL     1      48.536  12.909  13.507  0.00  0.00    +0.078 A 
BRANCH  15  16
ATOM     16  O   UNL     1      51.988  13.173  12.379  0.00  0.00    -0.485 OA
ATOM     17  H   UNL     1      51.772  13.441  11.476  0.00  0.00    +0.395 HD
ENDBRANCH  15  16
BRANCH  18  19
ATOM     19  O   UNL     1      49.456  12.967  11.320  0.00  0.00    -0.483 OA
ATOM     20  H   UNL     1      50.246  12.709  10.827  0.00  0.00    +0.391 HD
ENDBRANCH  18  19
ENDBRANCH  11  12
ENDBRANCH  10  11
BRANCH   6   5
ATOM      5  C   UNL     1      50.450  16.782  17.897  0.00  0.00    +0.070 C 
BRANCH   5   4
ATOM      3  C   UNL     1      51.148  19.117  18.047  0.00  0.00    -0.037 C 
ATOM      4  C   UNL     1      50.251  18.253  17.640  0.00  0.00    -0.053 C 
BRANCH   3   2
ATOM      1  C   UNL     1      51.592  21.396  18.919  0.00  0.00    +0.022 C 
ATOM      2  C   UNL     1      50.948  20.588  17.789  0.00  0.00    +0.002 C 
ATOM     39  C   UNL     1      51.598  20.965  16.457  0.00  0.00    +0.021 C 
ENDBRANCH   3   2
ENDBRANCH   5   4
ENDBRANCH   6   5
BRANCH  32  33
ATOM     33  C   UNL     1      48.703  16.695  20.242  0.00  0.00    +0.036 C 
BRANCH  33  34
ATOM     34  C   UNL     1      49.785  16.521  21.309  0.00  0.00    +0.055 C 
BRANCH  34  35
ATOM     35  C   UNL     1      50.443  17.849  21.580  0.00  0.00    -0.059 C 
ATOM     36  C   UNL     1      51.743  17.969  21.469  0.00  0.00    -0.135 C 
ATOM     37  C   UNL     1      52.412  19.270  21.830  0.00  0.00    +0.068 C 
ATOM     38  C   UNL     1      52.570  16.807  20.982  0.00  0.00    +0.070 C 
ENDBRANCH  34  35
ENDBRANCH  33  34
ENDBRANCH  32  33
TORSDOF 11
ENDMDL
MODEL 5
REMARK VINA RESULT:      -5.8      2.642      4.807
REMARK  Name = ZINC95486108
REMARK  17 active torsions:
REMARK  status: ('A' for Active; 'I' for Inactive)
REMARK    1  A    between atoms: C1_1  and  C2_2
REMARK    2  A    between atoms: C2_2  and  C3_3
REMARK    3  A    between atoms: C2_2  and  C4_4
REMARK    4  A    between atoms: C5_5  and  C6_6
REMARK    5  A    between atoms: C6_6  and  C7_7
REMARK    6  A    between atoms: C11_13  and  C26_31
REMARK    7  A    between atoms: C13_16  and  C22_27
REMARK    8  A    between atoms: C14_17  and  C15_19
REMARK    9  A    between atoms: C15_19  and  C16_20
REMARK   10  A    between atoms: C16_20  and  C17_21
REMARK   11  A    between atoms: C18_22  and  C19_23
REMARK   12  A    between atoms: C18_22  and  C20_24
REMARK   13  A    between atoms: C23_28  and  C24_29
REMARK   14  A    between atoms: C23_28  and  C25_30
REMARK   15  A    between atoms: C26_31  and  C27_33
REMARK   16  A    between atoms: C30_36  and  O5_40
REMARK   17  A    between atoms: C31_37  and  O4_39
REMARK                            x       y       z     vdW  Elec       q    Type
REMARK                         _______ _______ _______ _____ _____    ______ ____
ROOT
ATOM      6  C   UNL     1      48.856  16.178  18.434  0.00  0.00    -0.020 C 
ATOM      7  C   UNL     1      49.763  16.208  19.666  0.00  0.00    +0.080 C 
ATOM      8  C   UNL     1      49.027  15.506  20.825  0.00  0.00    +0.008 C 
ATOM      9  C   UNL     1      47.699  16.205  20.999  0.00  0.00    +0.159 C 
ATOM     10  C   UNL     1      46.590  15.811  20.354  0.00  0.00    -0.266 C 
ATOM     23  C   UNL     1      46.571  14.642  19.462  0.00  0.00    +0.415 C 
ATOM     24  C   UNL     1      47.887  13.978  19.109  0.00  0.00    -0.095 C 
ATOM     29  O   UNL     1      45.526  14.219  19.016  0.00  0.00    -0.405 OA
ATOM     30  C   UNL     1      48.777  14.076  20.369  0.00  0.00    +0.380 C 
ATOM     31  O   UNL     1      49.220  13.118  20.956  0.00  0.00    -0.413 OA
ATOM     32  C   UNL     1      48.609  14.735  17.996  0.00  0.00    +0.029 C 
ENDROOT
BRANCH  24  25
ATOM     25  C   UNL     1      47.674  12.542  18.703  0.00  0.00    -0.034 C 
ATOM     26  C   UNL     1      47.033  12.264  17.594  0.00  0.00    -0.086 C 
ATOM     27  C   UNL     1      46.701  10.835  17.256  0.00  0.00    +0.083 C 
ATOM     28  C   UNL     1      46.628  13.374  16.659  0.00  0.00    +0.074 C 
ENDBRANCH  24  25
BRANCH  10  11
ATOM     11  C   UNL     1      45.343  16.579  20.548  0.00  0.00    +0.454 C 
ATOM     22  O   UNL     1      44.396  16.068  21.117  0.00  0.00    -0.432 OA
BRANCH  11  12
ATOM     12  C   UNL     1      45.244  17.964  20.052  0.00  0.00    -0.153 A 
ATOM     13  C   UNL     1      45.786  18.302  18.808  0.00  0.00    +0.076 A 
ATOM     14  C   UNL     1      45.692  19.597  18.345  0.00  0.00    +0.001 A 
ATOM     15  C   UNL     1      45.063  20.568  19.112  0.00  0.00    +0.120 A 
ATOM     18  C   UNL     1      44.520  20.237  20.354  0.00  0.00    +0.070 A 
ATOM     21  C   UNL     1      44.605  18.941  20.821  0.00  0.00    +0.078 A 
BRANCH  15  16
ATOM     16  O   UNL     1      44.974  21.843  18.652  0.00  0.00    -0.485 OA
ATOM     17  H   UNL     1      44.731  21.907  17.719  0.00  0.00    +0.395 HD
ENDBRANCH  15  16
BRANCH  18  19
ATOM     19  O   UNL     1      43.904  21.191  21.102  0.00  0.00    -0.483 OA
ATOM     20  H   UNL     1      43.951  22.079  20.724  0.00  0.00    +0.391 HD
ENDBRANCH  18  19
ENDBRANCH  11  12
ENDBRANCH  10  11
BRANCH   6   5
ATOM      5  C   UNL     1      49.526  16.947  17.293  0.00  0.00    +0.070 C 
BRANCH   5   4
ATOM      3  C   UNL     1      50.912  18.956  17.302  0.00  0.00    -0.037 C 
ATOM      4  C   UNL     1      49.842  18.348  17.750  0.00  0.00    -0.053 C 
BRANCH   3   2
ATOM      1  C   UNL     1      51.472  21.249  16.540  0.00  0.00    +0.022 C 
ATOM      2  C   UNL     1      51.228  20.358  17.760  0.00  0.00    +0.002 C 
ATOM     39  C   UNL     1      50.050  20.908  18.566  0.00  0.00    +0.021 C 
ENDBRANCH   3   2
ENDBRANCH   5   4
ENDBRANCH   6   5
BRANCH  32  33
ATOM     33  C   UNL     1      49.947  14.075  17.655  0.00  0.00    +0.036 C 
BRANCH  33  34
ATOM     34  C   UNL     1      50.035  13.849  16.145  0.00  0.00    +0.055 C 
BRANCH  34  35
ATOM     35  C   UNL     1      50.216  12.379  15.865  0.00  0.00    -0.059 C 
ATOM     36  C   UNL     1      49.594  11.823  14.855  0.00  0.00    -0.135 C 
ATOM     37  C   UNL     1      49.700  10.337  14.631  0.00  0.00    +0.068 C 
ATOM     38  C   UNL     1      48.772  12.670  13.918  0.00  0.00    +0.070 C 
ENDBRANCH  34  35
ENDBRANCH  33  34
ENDBRANCH  32  33
TORSDOF 11
ENDMDL
MODEL 6
REMARK VINA RESULT:      -5.7      1.922      3.947
REMARK  Name = ZINC95486108
REMARK  17 active torsions:
REMARK  status: ('A' for Active; 'I' for Inactive)
REMARK    1  A    between atoms: C1_1  and  C2_2
REMARK    2  A    between atoms: C2_2  and  C3_3
REMARK    3  A    between atoms: C2_2  and  C4_4
REMARK    4  A    between atoms: C5_5  and  C6_6
REMARK    5  A    between atoms: C6_6  and  C7_7
REMARK    6  A    between atoms: C11_13  and  C26_31
REMARK    7  A    between atoms: C13_16  and  C22_27
REMARK    8  A    between atoms: C14_17  and  C15_19
REMARK    9  A    between atoms: C15_19  and  C16_20
REMARK   10  A    between atoms: C16_20  and  C17_21
REMARK   11  A    between atoms: C18_22  and  C19_23
REMARK   12  A    between atoms: C18_22  and  C20_24
REMARK   13  A    between atoms: C23_28  and  C24_29
REMARK   14  A    between atoms: C23_28  and  C25_30
REMARK   15  A    between atoms: C26_31  and  C27_33
REMARK   16  A    between atoms: C30_36  and  O5_40
REMARK   17  A    between atoms: C31_37  and  O4_39
REMARK                            x       y       z     vdW  Elec       q    Type
REMARK                         _______ _______ _______ _____ _____    ______ ____
ROOT
ATOM      6  C   UNL     1      48.256  17.265  21.190  0.00  0.00    -0.020 C 
ATOM      7  C   UNL     1      47.844  16.493  22.445  0.00  0.00    +0.080 C 
ATOM      8  C   UNL     1      46.394  16.003  22.256  0.00  0.00    +0.008 C 
ATOM      9  C   UNL     1      45.549  17.218  21.953  0.00  0.00    +0.159 C 
ATOM     10  C   UNL     1      45.329  17.645  20.700  0.00  0.00    -0.266 C 
ATOM     23  C   UNL     1      45.858  16.940  19.522  0.00  0.00    +0.415 C 
ATOM     24  C   UNL     1      46.842  15.806  19.739  0.00  0.00    -0.095 C 
ATOM     29  O   UNL     1      45.517  17.258  18.404  0.00  0.00    -0.405 OA
ATOM     30  C   UNL     1      46.406  15.092  21.038  0.00  0.00    +0.380 C 
ATOM     31  O   UNL     1      46.084  13.930  21.091  0.00  0.00    -0.413 OA
ATOM     32  C   UNL     1      48.255  16.337  19.976  0.00  0.00    +0.029 C 
ENDROOT
BRANCH  24  25
ATOM     25  C   UNL     1      46.836  14.858  18.567  0.00  0.00    -0.034 C 
ATOM     26  C   UNL     1      47.257  15.264  17.394  0.00  0.00    -0.086 C 
ATOM     27  C   UNL     1      47.126  14.364  16.194  0.00  0.00    +0.083 C 
ATOM     28  C   UNL     1      47.872  16.632  17.247  0.00  0.00    +0.074 C 
ENDBRANCH  24  25
BRANCH  10  11
ATOM     11  C   UNL     1      44.526  18.868  20.495  0.00  0.00    +0.454 C 
ATOM     22  O   UNL     1      43.388  18.785  20.073  0.00  0.00    -0.432 OA
BRANCH  11  12
ATOM     12  C   UNL     1      45.104  20.190  20.802  0.00  0.00    -0.153 A 
ATOM     13  C   UNL     1      46.457  20.437  20.553  0.00  0.00    +0.076 A 
ATOM     14  C   UNL     1      46.995  21.673  20.839  0.00  0.00    +0.001 A 
ATOM     15  C   UNL     1      46.197  22.675  21.376  0.00  0.00    +0.120 A 
ATOM     18  C   UNL     1      44.846  22.434  21.626  0.00  0.00    +0.070 A 
ATOM     21  C   UNL     1      44.299  21.200  21.336  0.00  0.00    +0.078 A 
BRANCH  15  16
ATOM     16  O   UNL     1      46.732  23.890  21.657  0.00  0.00    -0.485 OA
ATOM     17  H   UNL     1      46.913  24.033  22.596  0.00  0.00    +0.395 HD
ENDBRANCH  15  16
BRANCH  18  19
ATOM     19  O   UNL     1      44.066  23.418  22.152  0.00  0.00    -0.483 OA
ATOM     20  H   UNL     1      44.284  24.304  21.834  0.00  0.00    +0.391 HD
ENDBRANCH  18  19
ENDBRANCH  11  12
ENDBRANCH  10  11
BRANCH   6   5
ATOM      5  C   UNL     1      49.661  17.839  21.387  0.00  0.00    +0.070 C 
BRANCH   5   4
ATOM      3  C   UNL     1      51.039  19.147  19.854  0.00  0.00    -0.037 C 
ATOM      4  C   UNL     1      49.874  18.984  20.432  0.00  0.00    -0.053 C 
BRANCH   3   2
ATOM      1  C   UNL     1      49.903  20.938  18.568  0.00  0.00    +0.022 C 
ATOM      2  C   UNL     1      51.251  20.293  18.899  0.00  0.00    +0.002 C 
ATOM     39  C   UNL     1      52.169  21.332  19.546  0.00  0.00    +0.021 C 
ENDBRANCH   3   2
ENDBRANCH   5   4
ENDBRANCH   6   5
BRANCH  32  33
ATOM     33  C   UNL     1      49.242  15.192  20.213  0.00  0.00    +0.036 C 
BRANCH  33  34
ATOM     34  C   UNL     1      50.525  15.452  19.421  0.00  0.00    +0.055 C 
BRANCH  34  35
ATOM     35  C   UNL     1      50.646  14.438  18.313  0.00  0.00    -0.059 C 
ATOM     36  C   UNL     1      51.057  14.812  17.126  0.00  0.00    -0.135 C 
ATOM     37  C   UNL     1      51.089  13.819  15.993  0.00  0.00    +0.068 C 
ATOM     38  C   UNL     1      51.497  16.234  16.894  0.00  0.00    +0.070 C 
ENDBRANCH  34  35
ENDBRANCH  33  34
ENDBRANCH  32  33
TORSDOF 11
ENDMDL
MODEL 7
REMARK VINA RESULT:      -5.6      2.632      6.025
REMARK  Name = ZINC95486108
REMARK  17 active torsions:
REMARK  status: ('A' for Active; 'I' for Inactive)
REMARK    1  A    between atoms: C1_1  and  C2_2
REMARK    2  A    between atoms: C2_2  and  C3_3
REMARK    3  A    between atoms: C2_2  and  C4_4
REMARK    4  A    between atoms: C5_5  and  C6_6
REMARK    5  A    between atoms: C6_6  and  C7_7
REMARK    6  A    between atoms: C11_13  and  C26_31
REMARK    7  A    between atoms: C13_16  and  C22_27
REMARK    8  A    between atoms: C14_17  and  C15_19
REMARK    9  A    between atoms: C15_19  and  C16_20
REMARK   10  A    between atoms: C16_20  and  C17_21
REMARK   11  A    between atoms: C18_22  and  C19_23
REMARK   12  A    between atoms: C18_22  and  C20_24
REMARK   13  A    between atoms: C23_28  and  C24_29
REMARK   14  A    between atoms: C23_28  and  C25_30
REMARK   15  A    between atoms: C26_31  and  C27_33
REMARK   16  A    between atoms: C30_36  and  O5_40
REMARK   17  A    between atoms: C31_37  and  O4_39
REMARK                            x       y       z     vdW  Elec       q    Type
REMARK                         _______ _______ _______ _____ _____    ______ ____
ROOT
ATOM      6  C   UNL     1      49.264  17.421  20.601  0.00  0.00    -0.020 C 
ATOM      7  C   UNL     1      50.569  16.887  21.195  0.00  0.00    +0.080 C 
ATOM      8  C   UNL     1      51.388  16.242  20.059  0.00  0.00    +0.008 C 
ATOM      9  C   UNL     1      50.510  15.195  19.415  0.00  0.00    +0.159 C 
ATOM     10  C   UNL     1      49.708  15.473  18.374  0.00  0.00    -0.266 C 
ATOM     23  C   UNL     1      49.654  16.805  17.754  0.00  0.00    +0.415 C 
ATOM     24  C   UNL     1      50.382  17.950  18.432  0.00  0.00    -0.095 C 
ATOM     29  O   UNL     1      49.040  16.986  16.725  0.00  0.00    -0.405 OA
ATOM     30  C   UNL     1      51.664  17.347  19.050  0.00  0.00    +0.380 C 
ATOM     31  O   UNL     1      52.781  17.695  18.754  0.00  0.00    -0.413 OA
ATOM     32  C   UNL     1      49.560  18.524  19.585  0.00  0.00    +0.029 C 
ENDROOT
BRANCH  24  25
ATOM     25  C   UNL     1      50.714  19.037  17.443  0.00  0.00    -0.034 C 
ATOM     26  C   UNL     1      51.444  18.764  16.389  0.00  0.00    -0.086 C 
ATOM     27  C   UNL     1      51.890  19.874  15.474  0.00  0.00    +0.083 C 
ATOM     28  C   UNL     1      51.839  17.340  16.095  0.00  0.00    +0.074 C 
ENDBRANCH  24  25
BRANCH  10  11
ATOM     11  C   UNL     1      48.849  14.400  17.832  0.00  0.00    +0.454 C 
ATOM     22  O   UNL     1      47.903  13.993  18.479  0.00  0.00    -0.432 OA
BRANCH  11  12
ATOM     12  C   UNL     1      49.140  13.821  16.508  0.00  0.00    -0.153 A 
ATOM     13  C   UNL     1      50.464  13.652  16.092  0.00  0.00    +0.076 A 
ATOM     14  C   UNL     1      50.734  13.110  14.854  0.00  0.00    +0.001 A 
ATOM     15  C   UNL     1      49.693  12.732  14.016  0.00  0.00    +0.120 A 
ATOM     18  C   UNL     1      48.369  12.898  14.424  0.00  0.00    +0.070 A 
ATOM     21  C   UNL     1      48.092  13.435  15.666  0.00  0.00    +0.078 A 
BRANCH  15  16
ATOM     16  O   UNL     1      49.964  12.200  12.797  0.00  0.00    -0.485 OA
ATOM     17  H   UNL     1      49.690  11.278  12.700  0.00  0.00    +0.395 HD
ENDBRANCH  15  16
BRANCH  18  19
ATOM     19  O   UNL     1      47.352  12.527  13.601  0.00  0.00    -0.483 OA
ATOM     20  H   UNL     1      46.578  13.102  13.649  0.00  0.00    +0.391 HD
ENDBRANCH  18  19
ENDBRANCH  11  12
ENDBRANCH  10  11
BRANCH   6   5
ATOM      5  C   UNL     1      48.392  17.988  21.723  0.00  0.00    +0.070 C 
BRANCH   5   4
ATOM      3  C   UNL     1      46.564  17.114  20.361  0.00  0.00    -0.037 C 
ATOM      4  C   UNL     1      46.970  17.525  21.537  0.00  0.00    -0.053 C 
BRANCH   3   2
ATOM      1  C   UNL     1      45.089  15.123  20.258  0.00  0.00    +0.022 C 
ATOM      2  C   UNL     1      45.142  16.650  20.175  0.00  0.00    +0.002 C 
ATOM     39  C   UNL     1      44.263  17.252  21.273  0.00  0.00    +0.021 C 
ENDBRANCH   3   2
ENDBRANCH   5   4
ENDBRANCH   6   5
BRANCH  32  33
ATOM     33  C   UNL     1      50.305  19.666  20.280  0.00  0.00    +0.036 C 
BRANCH  33  34
ATOM     34  C   UNL     1      49.483  20.952  20.172  0.00  0.00    +0.055 C 
BRANCH  34  35
ATOM     35  C   UNL     1      48.325  20.731  19.234  0.00  0.00    -0.059 C 
ATOM     36  C   UNL     1      47.096  20.875  19.666  0.00  0.00    -0.135 C 
ATOM     37  C   UNL     1      45.936  20.564  18.756  0.00  0.00    +0.068 C 
ATOM     38  C   UNL     1      46.843  21.350  21.074  0.00  0.00    +0.070 C 
ENDBRANCH  34  35
ENDBRANCH  33  34
ENDBRANCH  32  33
TORSDOF 11
ENDMDL
MODEL 8
REMARK VINA RESULT:      -5.4      3.612      8.092
REMARK  Name = ZINC95486108
REMARK  17 active torsions:
REMARK  status: ('A' for Active; 'I' for Inactive)
REMARK    1  A    between atoms: C1_1  and  C2_2
REMARK    2  A    between atoms: C2_2  and  C3_3
REMARK    3  A    between atoms: C2_2  and  C4_4
REMARK    4  A    between atoms: C5_5  and  C6_6
REMARK    5  A    between atoms: C6_6  and  C7_7
REMARK    6  A    between atoms: C11_13  and  C26_31
REMARK    7  A    between atoms: C13_16  and  C22_27
REMARK    8  A    between atoms: C14_17  and  C15_19
REMARK    9  A    between atoms: C15_19  and  C16_20
REMARK   10  A    between atoms: C16_20  and  C17_21
REMARK   11  A    between atoms: C18_22  and  C19_23
REMARK   12  A    between atoms: C18_22  and  C20_24
REMARK   13  A    between atoms: C23_28  and  C24_29
REMARK   14  A    between atoms: C23_28  and  C25_30
REMARK   15  A    between atoms: C26_31  and  C27_33
REMARK   16  A    between atoms: C30_36  and  O5_40
REMARK   17  A    between atoms: C31_37  and  O4_39
REMARK                            x       y       z     vdW  Elec       q    Type
REMARK                         _______ _______ _______ _____ _____    ______ ____
ROOT
ATOM      6  C   UNL     1      49.995  18.393  21.105  0.00  0.00    -0.020 C 
ATOM      7  C   UNL     1      50.500  19.328  22.205  0.00  0.00    +0.080 C 
ATOM      8  C   UNL     1      52.028  19.470  22.054  0.00  0.00    +0.008 C 
ATOM      9  C   UNL     1      52.611  18.076  22.089  0.00  0.00    +0.159 C 
ATOM     10  C   UNL     1      52.795  17.346  20.978  0.00  0.00    -0.266 C 
ATOM     23  C   UNL     1      52.483  17.862  19.636  0.00  0.00    +0.415 C 
ATOM     24  C   UNL     1      51.753  19.186  19.520  0.00  0.00    -0.095 C 
ATOM     29  O   UNL     1      52.802  17.242  18.644  0.00  0.00    -0.405 OA
ATOM     30  C   UNL     1      52.268  20.071  20.677  0.00  0.00    +0.380 C 
ATOM     31  O   UNL     1      52.826  21.130  20.516  0.00  0.00    -0.413 OA
ATOM     32  C   UNL     1      50.250  19.009  19.730  0.00  0.00    +0.029 C 
ENDROOT
BRANCH  24  25
ATOM     25  C   UNL     1      52.015  19.829  18.183  0.00  0.00    -0.034 C 
ATOM     26  C   UNL     1      51.519  19.298  17.092  0.00  0.00    -0.086 C 
ATOM     27  C   UNL     1      51.891  19.860  15.745  0.00  0.00    +0.083 C 
ATOM     28  C   UNL     1      50.578  18.125  17.186  0.00  0.00    +0.074 C 
ENDBRANCH  24  25
BRANCH  10  11
ATOM     11  C   UNL     1      53.330  15.975  21.107  0.00  0.00    +0.454 C 
ATOM     22  O   UNL     1      52.572  15.041  21.290  0.00  0.00    -0.432 OA
BRANCH  11  12
ATOM     12  C   UNL     1      54.782  15.738  21.016  0.00  0.00    -0.153 A 
ATOM     13  C   UNL     1      55.649  16.343  21.932  0.00  0.00    +0.076 A 
ATOM     14  C   UNL     1      57.006  16.120  21.846  0.00  0.00    +0.001 A 
ATOM     15  C   UNL     1      57.517  15.298  20.851  0.00  0.00    +0.120 A 
ATOM     18  C   UNL     1      56.657  14.692  19.934  0.00  0.00    +0.070 A 
ATOM     21  C   UNL     1      55.296  14.905  20.018  0.00  0.00    +0.078 A 
BRANCH  15  16
ATOM     16  O   UNL     1      58.855  15.082  20.770  0.00  0.00    -0.485 OA
ATOM     17  H   UNL     1      59.384  15.891  20.779  0.00  0.00    +0.395 HD
ENDBRANCH  15  16
BRANCH  18  19
ATOM     19  O   UNL     1      57.161  13.886  18.961  0.00  0.00    -0.483 OA
ATOM     20  H   UNL     1      57.396  14.352  18.147  0.00  0.00    +0.391 HD
ENDBRANCH  18  19
ENDBRANCH  11  12
ENDBRANCH  10  11
BRANCH   6   5
ATOM      5  C   UNL     1      48.492  18.164  21.286  0.00  0.00    +0.070 C 
BRANCH   5   4
ATOM      3  C   UNL     1      47.314  16.751  19.682  0.00  0.00    -0.037 C 
ATOM      4  C   UNL     1      48.116  16.822  20.716  0.00  0.00    -0.053 C 
BRANCH   3   2
ATOM      1  C   UNL     1      45.557  15.001  19.633  0.00  0.00    +0.022 C 
ATOM      2  C   UNL     1      46.938  15.407  19.112  0.00  0.00    +0.002 C 
ATOM     39  C   UNL     1      46.902  15.494  17.585  0.00  0.00    +0.021 C 
ENDBRANCH   3   2
ENDBRANCH   5   4
ENDBRANCH   6   5
BRANCH  32  33
ATOM     33  C   UNL     1      49.517  20.349  19.632  0.00  0.00    +0.036 C 
BRANCH  33  34
ATOM     34  C   UNL     1      48.296  20.198  18.723  0.00  0.00    +0.055 C 
BRANCH  34  35
ATOM     35  C   UNL     1      47.164  21.037  19.257  0.00  0.00    -0.059 C 
ATOM     36  C   UNL     1      45.925  20.723  18.972  0.00  0.00    -0.135 C 
ATOM     37  C   UNL     1      44.798  21.615  19.426  0.00  0.00    +0.068 C 
ATOM     38  C   UNL     1      45.626  19.471  18.188  0.00  0.00    +0.070 C 
ENDBRANCH  34  35
ENDBRANCH  33  34
ENDBRANCH  32  33
TORSDOF 11
ENDMDL
MODEL 9
REMARK VINA RESULT:      -5.3      3.458      6.677
REMARK  Name = ZINC95486108
REMARK  17 active torsions:
REMARK  status: ('A' for Active; 'I' for Inactive)
REMARK    1  A    between atoms: C1_1  and  C2_2
REMARK    2  A    between atoms: C2_2  and  C3_3
REMARK    3  A    between atoms: C2_2  and  C4_4
REMARK    4  A    between atoms: C5_5  and  C6_6
REMARK    5  A    between atoms: C6_6  and  C7_7
REMARK    6  A    between atoms: C11_13  and  C26_31
REMARK    7  A    between atoms: C13_16  and  C22_27
REMARK    8  A    between atoms: C14_17  and  C15_19
REMARK    9  A    between atoms: C15_19  and  C16_20
REMARK   10  A    between atoms: C16_20  and  C17_21
REMARK   11  A    between atoms: C18_22  and  C19_23
REMARK   12  A    between atoms: C18_22  and  C20_24
REMARK   13  A    between atoms: C23_28  and  C24_29
REMARK   14  A    between atoms: C23_28  and  C25_30
REMARK   15  A    between atoms: C26_31  and  C27_33
REMARK   16  A    between atoms: C30_36  and  O5_40
REMARK   17  A    between atoms: C31_37  and  O4_39
REMARK                            x       y       z     vdW  Elec       q    Type
REMARK                         _______ _______ _______ _____ _____    ______ ____
ROOT
ATOM      6  C   UNL     1      49.158  16.575  19.403  0.00  0.00    -0.020 C 
ATOM      7  C   UNL     1      49.711  16.312  20.805  0.00  0.00    +0.080 C 
ATOM      8  C   UNL     1      51.190  15.898  20.670  0.00  0.00    +0.008 C 
ATOM      9  C   UNL     1      51.238  14.711  19.738  0.00  0.00    +0.159 C 
ATOM     10  C   UNL     1      51.389  14.845  18.411  0.00  0.00    -0.266 C 
ATOM     23  C   UNL     1      51.562  16.156  17.766  0.00  0.00    +0.415 C 
ATOM     24  C   UNL     1      51.372  17.406  18.603  0.00  0.00    -0.095 C 
ATOM     29  O   UNL     1      51.849  16.236  16.591  0.00  0.00    -0.405 OA
ATOM     30  C   UNL     1      51.905  17.071  20.015  0.00  0.00    +0.380 C 
ATOM     31  O   UNL     1      52.813  17.661  20.549  0.00  0.00    -0.413 OA
ATOM     32  C   UNL     1      49.891  17.749  18.758  0.00  0.00    +0.029 C 
ENDROOT
BRANCH  24  25
ATOM     25  C   UNL     1      52.113  18.573  18.004  0.00  0.00    -0.034 C 
ATOM     26  C   UNL     1      51.721  19.080  16.860  0.00  0.00    -0.086 C 
ATOM     27  C   UNL     1      52.539  20.155  16.194  0.00  0.00    +0.083 C 
ATOM     28  C   UNL     1      50.453  18.586  16.213  0.00  0.00    +0.074 C 
ENDBRANCH  24  25
BRANCH  10  11
ATOM     11  C   UNL     1      51.381  13.632  17.567  0.00  0.00    +0.454 C 
ATOM     22  O   UNL     1      52.287  12.825  17.654  0.00  0.00    -0.432 OA
BRANCH  11  12
ATOM     12  C   UNL     1      50.276  13.401  16.618  0.00  0.00    -0.153 A 
ATOM     13  C   UNL     1      48.959  13.677  16.996  0.00  0.00    +0.076 A 
ATOM     14  C   UNL     1      47.927  13.461  16.108  0.00  0.00    +0.001 A 
ATOM     15  C   UNL     1      48.193  12.968  14.838  0.00  0.00    +0.120 A 
ATOM     18  C   UNL     1      49.505  12.690  14.454  0.00  0.00    +0.070 A 
ATOM     21  C   UNL     1      50.543  12.911  15.337  0.00  0.00    +0.078 A 
BRANCH  15  16
ATOM     16  O   UNL     1      47.173  12.756  13.967  0.00  0.00    -0.485 OA
ATOM     17  H   UNL     1      46.739  11.898  14.070  0.00  0.00    +0.395 HD
ENDBRANCH  15  16
BRANCH  18  19
ATOM     19  O   UNL     1      49.761  12.208  13.208  0.00  0.00    -0.483 OA
ATOM     20  H   UNL     1      49.804  12.889  12.524  0.00  0.00    +0.391 HD
ENDBRANCH  18  19
ENDBRANCH  11  12
ENDBRANCH  10  11
BRANCH   6   5
ATOM      5  C   UNL     1      47.666  16.901  19.501  0.00  0.00    +0.070 C 
BRANCH   5   4
ATOM      3  C   UNL     1      45.868  15.272  19.235  0.00  0.00    -0.037 C 
ATOM      4  C   UNL     1      46.909  15.669  19.923  0.00  0.00    -0.053 C 
BRANCH   3   2
ATOM      1  C   UNL     1      45.270  12.952  18.592  0.00  0.00    +0.022 C 
ATOM      2  C   UNL     1      45.111  14.039  19.658  0.00  0.00    +0.002 C 
ATOM     39  C   UNL     1      45.666  13.532  20.990  0.00  0.00    +0.021 C 
ENDBRANCH   3   2
ENDBRANCH   5   4
ENDBRANCH   6   5
BRANCH  32  33
ATOM     33  C   UNL     1      49.701  18.999  19.619  0.00  0.00    +0.036 C 
BRANCH  33  34
ATOM     34  C   UNL     1      48.867  20.027  18.851  0.00  0.00    +0.055 C 
BRANCH  34  35
ATOM     35  C   UNL     1      48.035  20.825  19.821  0.00  0.00    -0.059 C 
ATOM     36  C   UNL     1      46.737  20.901  19.663  0.00  0.00    -0.135 C 
ATOM     37  C   UNL     1      45.916  21.775  20.576  0.00  0.00    +0.068 C 
ATOM     38  C   UNL     1      46.064  20.114  18.567  0.00  0.00    +0.070 C 
ENDBRANCH  34  35
ENDBRANCH  33  34
ENDBRANCH  32  33
TORSDOF 11
ENDMDL
