MODEL 1
REMARK VINA RESULT:      -6.2      0.000      0.000
REMARK  Name = ZINC95486011
REMARK  7 active torsions:
REMARK  status: ('A' for Active; 'I' for Inactive)
REMARK    1  A    between atoms: C1_1  and  C2_2
REMARK    2  A    between atoms: C2_2  and  C4_4
REMARK    3  A    between atoms: C17_20  and  O5_30
REMARK    4  A    between atoms: C18_21  and  O4_28
REMARK    5  A    between atoms: C21_24  and  O3_27
REMARK    6  A    between atoms: O4_28  and  C23_29
REMARK    7  A    between atoms: O5_30  and  C24_31
REMARK                            x       y       z     vdW  Elec       q    Type
REMARK                         _______ _______ _______ _____ _____    ______ ____
ROOT
ATOM      3  C   UNL     1      42.748  20.512  19.375  0.00  0.00    +0.214 C 
ATOM      4  C   UNL     1      43.332  19.285  18.630  0.00  0.00    +0.103 C 
ATOM      5  C   UNL     1      44.812  19.528  18.744  0.00  0.00    -0.230 A 
ATOM      6  C   UNL     1      44.984  20.862  19.136  0.00  0.00    +0.188 A 
ATOM      7  C   UNL     1      46.269  21.386  19.335  0.00  0.00    -0.033 A 
ATOM      8  C   UNL     1      47.339  20.555  19.129  0.00  0.00    +0.154 A 
ATOM      9  C   UNL     1      47.171  19.226  18.734  0.00  0.00    -0.282 A 
ATOM     10  C   UNL     1      48.344  18.358  18.518  0.00  0.00    +0.387 C 
ATOM     11  O   UNL     1      49.460  18.678  18.874  0.00  0.00    -0.429 OA
ATOM     12  C   UNL     1      48.063  17.041  17.825  0.00  0.00    +0.116 C 
ATOM     15  C   UNL     1      49.184  16.067  18.054  0.00  0.00    -0.121 A 
ATOM     16  C   UNL     1      50.488  16.542  18.010  0.00  0.00    +0.009 A 
ATOM     17  C   UNL     1      51.556  15.682  18.190  0.00  0.00    +0.095 A 
ATOM     20  C   UNL     1      51.317  14.330  18.416  0.00  0.00    +0.120 A 
ATOM     23  C   UNL     1      50.017  13.862  18.464  0.00  0.00    -0.045 A 
ATOM     24  C   UNL     1      48.945  14.730  18.287  0.00  0.00    -0.051 A 
ATOM     25  C   UNL     1      47.558  14.145  18.364  0.00  0.00    +0.100 C 
ATOM     26  C   UNL     1      46.513  15.114  17.813  0.00  0.00    +0.077 C 
ATOM     27  C   UNL     1      46.767  16.487  18.431  0.00  0.00    +0.203 C 
ATOM     28  O   UNL     1      45.704  17.397  18.159  0.00  0.00    -0.281 OA
ATOM     29  C   UNL     1      45.882  18.684  18.534  0.00  0.00    +0.240 A 
ATOM     30  O   UNL     1      43.798  21.493  19.268  0.00  0.00    -0.282 OA
ENDROOT
BRANCH   3   2
ATOM      1  C   UNL     1      40.538  20.009  18.081  0.00  0.00    +0.087 C 
ATOM      2  C   UNL     1      41.492  20.998  18.699  0.00  0.00    -0.132 C 
ATOM     31  C   UNL     1      41.230  22.281  18.648  0.00  0.00    +0.050 C 
ENDBRANCH   3   2
BRANCH  12  13
ATOM     13  O   UNL     1      47.886  17.252  16.422  0.00  0.00    -0.514 OA
ATOM     14  H   UNL     1      46.968  17.405  16.160  0.00  0.00    +0.385 HD
ENDBRANCH  12  13
BRANCH  17  18
ATOM     18  O   UNL     1      52.830  16.155  18.145  0.00  0.00    -0.304 OA
ATOM     19  C   UNL     1      53.308  16.841  19.303  0.00  0.00    +0.240 C 
ENDBRANCH  17  18
BRANCH  20  21
ATOM     21  O   UNL     1      52.358  13.472  18.591  0.00  0.00    -0.303 OA
ATOM     22  C   UNL     1      52.229  12.170  18.015  0.00  0.00    +0.240 C 
ENDBRANCH  20  21
TORSDOF 4
ENDMDL
MODEL 2
REMARK VINA RESULT:      -6.1      2.241      8.667
REMARK  Name = ZINC95486011
REMARK  7 active torsions:
REMARK  status: ('A' for Active; 'I' for Inactive)
REMARK    1  A    between atoms: C1_1  and  C2_2
REMARK    2  A    between atoms: C2_2  and  C4_4
REMARK    3  A    between atoms: C17_20  and  O5_30
REMARK    4  A    between atoms: C18_21  and  O4_28
REMARK    5  A    between atoms: C21_24  and  O3_27
REMARK    6  A    between atoms: O4_28  and  C23_29
REMARK    7  A    between atoms: O5_30  and  C24_31
REMARK                            x       y       z     vdW  Elec       q    Type
REMARK                         _______ _______ _______ _____ _____    ______ ____
ROOT
ATOM      3  C   UNL     1      49.237  12.868  20.308  0.00  0.00    +0.214 C 
ATOM      4  C   UNL     1      49.247  14.219  19.550  0.00  0.00    +0.103 C 
ATOM      5  C   UNL     1      47.821  14.672  19.705  0.00  0.00    -0.230 A 
ATOM      6  C   UNL     1      47.078  13.564  20.130  0.00  0.00    +0.188 A 
ATOM      7  C   UNL     1      45.702  13.680  20.370  0.00  0.00    -0.033 A 
ATOM      8  C   UNL     1      45.116  14.902  20.171  0.00  0.00    +0.154 A 
ATOM      9  C   UNL     1      45.854  16.008  19.742  0.00  0.00    -0.282 A 
ATOM     10  C   UNL     1      45.193  17.311  19.536  0.00  0.00    +0.387 C 
ATOM     11  O   UNL     1      44.065  17.533  19.924  0.00  0.00    -0.429 OA
ATOM     12  C   UNL     1      46.017  18.352  18.806  0.00  0.00    +0.116 C 
ATOM     15  C   UNL     1      45.464  19.730  19.040  0.00  0.00    -0.121 A 
ATOM     16  C   UNL     1      44.086  19.895  19.038  0.00  0.00    +0.009 A 
ATOM     17  C   UNL     1      43.528  21.147  19.223  0.00  0.00    +0.095 A 
ATOM     20  C   UNL     1      44.359  22.247  19.414  0.00  0.00    +0.120 A 
ATOM     23  C   UNL     1      45.730  22.076  19.420  0.00  0.00    -0.045 A 
ATOM     24  C   UNL     1      46.289  20.817  19.237  0.00  0.00    -0.051 A 
ATOM     25  C   UNL     1      47.792  20.712  19.269  0.00  0.00    +0.100 C 
ATOM     26  C   UNL     1      48.269  19.370  18.715  0.00  0.00    +0.077 C 
ATOM     27  C   UNL     1      47.442  18.266  19.369  0.00  0.00    +0.203 C 
ATOM     28  O   UNL     1      47.970  16.971  19.093  0.00  0.00    -0.281 OA
ATOM     29  C   UNL     1      47.242  15.907  19.501  0.00  0.00    +0.240 A 
ATOM     30  O   UNL     1      47.854  12.466  20.248  0.00  0.00    -0.282 OA
ENDROOT
BRANCH   3   2
ATOM      1  C   UNL     1      49.933  11.587  18.143  0.00  0.00    +0.087 C 
ATOM      2  C   UNL     1      50.116  11.860  19.614  0.00  0.00    -0.132 C 
ATOM     31  C   UNL     1      51.039  11.220  20.289  0.00  0.00    +0.050 C 
ENDBRANCH   3   2
BRANCH  12  13
ATOM     13  O   UNL     1      46.036  18.071  17.405  0.00  0.00    -0.514 OA
ATOM     14  H   UNL     1      45.518  17.295  17.153  0.00  0.00    +0.385 HD
ENDBRANCH  12  13
BRANCH  17  18
ATOM     18  O   UNL     1      42.176  21.301  19.219  0.00  0.00    -0.304 OA
ATOM     19  C   UNL     1      41.421  20.378  18.433  0.00  0.00    +0.240 C 
ENDBRANCH  17  18
BRANCH  20  21
ATOM     21  O   UNL     1      43.823  23.484  19.593  0.00  0.00    -0.303 OA
ATOM     22  C   UNL     1      44.431  24.564  18.881  0.00  0.00    +0.240 C 
ENDBRANCH  20  21
TORSDOF 4
ENDMDL
MODEL 3
REMARK VINA RESULT:      -6.1      2.567      8.512
REMARK  Name = ZINC95486011
REMARK  7 active torsions:
REMARK  status: ('A' for Active; 'I' for Inactive)
REMARK    1  A    between atoms: C1_1  and  C2_2
REMARK    2  A    between atoms: C2_2  and  C4_4
REMARK    3  A    between atoms: C17_20  and  O5_30
REMARK    4  A    between atoms: C18_21  and  O4_28
REMARK    5  A    between atoms: C21_24  and  O3_27
REMARK    6  A    between atoms: O4_28  and  C23_29
REMARK    7  A    between atoms: O5_30  and  C24_31
REMARK                            x       y       z     vdW  Elec       q    Type
REMARK                         _______ _______ _______ _____ _____    ______ ____
ROOT
ATOM      3  C   UNL     1      52.685  16.887  19.160  0.00  0.00    +0.214 C 
ATOM      4  C   UNL     1      51.371  16.784  19.976  0.00  0.00    +0.103 C 
ATOM      5  C   UNL     1      50.671  18.061  19.599  0.00  0.00    -0.230 A 
ATOM      6  C   UNL     1      51.623  18.893  18.995  0.00  0.00    +0.188 A 
ATOM      7  C   UNL     1      51.262  20.163  18.526  0.00  0.00    -0.033 A 
ATOM      8  C   UNL     1      49.960  20.559  18.682  0.00  0.00    +0.154 A 
ATOM      9  C   UNL     1      49.010  19.734  19.287  0.00  0.00    -0.282 A 
ATOM     10  C   UNL     1      47.615  20.190  19.441  0.00  0.00    +0.387 C 
ATOM     11  O   UNL     1      47.191  21.176  18.875  0.00  0.00    -0.429 OA
ATOM     12  C   UNL     1      46.749  19.346  20.355  0.00  0.00    +0.116 C 
ATOM     15  C   UNL     1      45.292  19.607  20.098  0.00  0.00    -0.121 A 
ATOM     16  C   UNL     1      44.887  20.914  19.869  0.00  0.00    +0.009 A 
ATOM     17  C   UNL     1      43.553  21.210  19.653  0.00  0.00    +0.095 A 
ATOM     20  C   UNL     1      42.613  20.184  19.665  0.00  0.00    +0.120 A 
ATOM     23  C   UNL     1      43.022  18.882  19.888  0.00  0.00    -0.045 A 
ATOM     24  C   UNL     1      44.363  18.588  20.102  0.00  0.00    -0.051 A 
ATOM     25  C   UNL     1      44.730  17.144  20.327  0.00  0.00    +0.100 C 
ATOM     26  C   UNL     1      46.145  17.009  20.887  0.00  0.00    +0.077 C 
ATOM     27  C   UNL     1      47.074  17.880  20.044  0.00  0.00    +0.203 C 
ATOM     28  O   UNL     1      48.447  17.637  20.343  0.00  0.00    -0.281 OA
ATOM     29  C   UNL     1      49.358  18.450  19.761  0.00  0.00    +0.240 A 
ATOM     30  O   UNL     1      52.838  18.306  18.959  0.00  0.00    -0.282 OA
ENDROOT
BRANCH   3   2
ATOM      1  C   UNL     1      53.911  16.534  21.437  0.00  0.00    +0.087 C 
ATOM      2  C   UNL     1      53.845  16.331  19.945  0.00  0.00    -0.132 C 
ATOM     31  C   UNL     1      54.796  15.672  19.330  0.00  0.00    +0.050 C 
ENDBRANCH   3   2
BRANCH  12  13
ATOM     13  O   UNL     1      47.057  19.628  21.721  0.00  0.00    -0.514 OA
ATOM     14  H   UNL     1      47.428  18.878  22.205  0.00  0.00    +0.385 HD
ENDBRANCH  12  13
BRANCH  17  18
ATOM     18  O   UNL     1      43.164  22.494  19.430  0.00  0.00    -0.304 OA
ATOM     19  C   UNL     1      44.187  23.491  19.431  0.00  0.00    +0.240 C 
ENDBRANCH  17  18
BRANCH  20  21
ATOM     21  O   UNL     1      41.298  20.461  19.458  0.00  0.00    -0.303 OA
ATOM     22  C   UNL     1      40.756  20.118  18.181  0.00  0.00    +0.240 C 
ENDBRANCH  20  21
TORSDOF 4
ENDMDL
MODEL 4
REMARK VINA RESULT:      -6.1      3.023      8.628
REMARK  Name = ZINC95486011
REMARK  7 active torsions:
REMARK  status: ('A' for Active; 'I' for Inactive)
REMARK    1  A    between atoms: C1_1  and  C2_2
REMARK    2  A    between atoms: C2_2  and  C4_4
REMARK    3  A    between atoms: C17_20  and  O5_30
REMARK    4  A    between atoms: C18_21  and  O4_28
REMARK    5  A    between atoms: C21_24  and  O3_27
REMARK    6  A    between atoms: O4_28  and  C23_29
REMARK    7  A    between atoms: O5_30  and  C24_31
REMARK                            x       y       z     vdW  Elec       q    Type
REMARK                         _______ _______ _______ _____ _____    ______ ____
ROOT
ATOM      3  C   UNL     1      50.164  11.797  15.186  0.00  0.00    +0.214 C 
ATOM      4  C   UNL     1      49.883  13.313  15.341  0.00  0.00    +0.103 C 
ATOM      5  C   UNL     1      48.641  13.313  16.189  0.00  0.00    -0.230 A 
ATOM      6  C   UNL     1      48.119  12.013  16.160  0.00  0.00    +0.188 A 
ATOM      7  C   UNL     1      46.953  11.698  16.872  0.00  0.00    -0.033 A 
ATOM      8  C   UNL     1      46.347  12.698  17.586  0.00  0.00    +0.154 A 
ATOM      9  C   UNL     1      46.863  13.996  17.614  0.00  0.00    -0.282 A 
ATOM     10  C   UNL     1      46.186  15.051  18.391  0.00  0.00    +0.387 C 
ATOM     11  O   UNL     1      45.307  14.803  19.191  0.00  0.00    -0.429 OA
ATOM     12  C   UNL     1      46.660  16.465  18.124  0.00  0.00    +0.116 C 
ATOM     15  C   UNL     1      46.257  17.383  19.243  0.00  0.00    -0.121 A 
ATOM     16  C   UNL     1      44.994  17.232  19.797  0.00  0.00    +0.009 A 
ATOM     17  C   UNL     1      44.566  18.067  20.813  0.00  0.00    +0.095 A 
ATOM     20  C   UNL     1      45.414  19.068  21.280  0.00  0.00    +0.120 A 
ATOM     23  C   UNL     1      46.673  19.212  20.728  0.00  0.00    -0.045 A 
ATOM     24  C   UNL     1      47.102  18.368  19.710  0.00  0.00    -0.051 A 
ATOM     25  C   UNL     1      48.492  18.582  19.170  0.00  0.00    +0.100 C 
ATOM     26  C   UNL     1      48.697  17.839  17.850  0.00  0.00    +0.077 C 
ATOM     27  C   UNL     1      48.189  16.410  18.027  0.00  0.00    +0.203 C 
ATOM     28  O   UNL     1      48.553  15.577  16.928  0.00  0.00    -0.281 OA
ATOM     29  C   UNL     1      48.039  14.327  16.904  0.00  0.00    +0.240 A 
ATOM     30  O   UNL     1      48.868  11.199  15.387  0.00  0.00    -0.282 OA
ENDROOT
BRANCH   3   2
ATOM      1  C   UNL     1      50.748  12.578  12.766  0.00  0.00    +0.087 C 
ATOM      2  C   UNL     1      50.685  11.490  13.806  0.00  0.00    -0.132 C 
ATOM     31  C   UNL     1      51.083  10.277  13.511  0.00  0.00    +0.050 C 
ENDBRANCH   3   2
BRANCH  12  13
ATOM     13  O   UNL     1      46.116  16.940  16.890  0.00  0.00    -0.514 OA
ATOM     14  H   UNL     1      45.327  17.489  16.993  0.00  0.00    +0.385 HD
ENDBRANCH  12  13
BRANCH  17  18
ATOM     18  O   UNL     1      43.327  17.913  21.350  0.00  0.00    -0.304 OA
ATOM     19  C   UNL     1      43.166  16.881  22.325  0.00  0.00    +0.240 C 
ENDBRANCH  17  18
BRANCH  20  21
ATOM     21  O   UNL     1      45.004  19.900  22.275  0.00  0.00    -0.303 OA
ATOM     22  C   UNL     1      44.698  21.247  21.909  0.00  0.00    +0.240 C 
ENDBRANCH  20  21
TORSDOF 4
ENDMDL
MODEL 5
REMARK VINA RESULT:      -5.9      2.729      3.677
REMARK  Name = ZINC95486011
REMARK  7 active torsions:
REMARK  status: ('A' for Active; 'I' for Inactive)
REMARK    1  A    between atoms: C1_1  and  C2_2
REMARK    2  A    between atoms: C2_2  and  C4_4
REMARK    3  A    between atoms: C17_20  and  O5_30
REMARK    4  A    between atoms: C18_21  and  O4_28
REMARK    5  A    between atoms: C21_24  and  O3_27
REMARK    6  A    between atoms: O4_28  and  C23_29
REMARK    7  A    between atoms: O5_30  and  C24_31
REMARK                            x       y       z     vdW  Elec       q    Type
REMARK                         _______ _______ _______ _____ _____    ______ ____
ROOT
ATOM      3  C   UNL     1      42.217  20.048  19.256  0.00  0.00    +0.214 C 
ATOM      4  C   UNL     1      43.606  19.559  18.773  0.00  0.00    +0.103 C 
ATOM      5  C   UNL     1      43.902  18.452  19.748  0.00  0.00    -0.230 A 
ATOM      6  C   UNL     1      43.006  18.590  20.816  0.00  0.00    +0.188 A 
ATOM      7  C   UNL     1      43.033  17.689  21.888  0.00  0.00    -0.033 A 
ATOM      8  C   UNL     1      43.962  16.682  21.857  0.00  0.00    +0.154 A 
ATOM      9  C   UNL     1      44.860  16.544  20.796  0.00  0.00    -0.282 A 
ATOM     10  C   UNL     1      45.849  15.450  20.793  0.00  0.00    +0.387 C 
ATOM     11  O   UNL     1      45.789  14.521  21.572  0.00  0.00    -0.429 OA
ATOM     12  C   UNL     1      46.945  15.563  19.752  0.00  0.00    +0.116 C 
ATOM     15  C   UNL     1      47.607  14.233  19.529  0.00  0.00    -0.121 A 
ATOM     16  C   UNL     1      47.860  13.429  20.631  0.00  0.00    +0.009 A 
ATOM     17  C   UNL     1      48.490  12.207  20.482  0.00  0.00    +0.095 A 
ATOM     20  C   UNL     1      48.871  11.784  19.212  0.00  0.00    +0.120 A 
ATOM     23  C   UNL     1      48.613  12.585  18.116  0.00  0.00    -0.045 A 
ATOM     24  C   UNL     1      47.976  13.812  18.269  0.00  0.00    -0.051 A 
ATOM     25  C   UNL     1      47.720  14.621  17.024  0.00  0.00    +0.100 C 
ATOM     26  C   UNL     1      47.347  16.064  17.365  0.00  0.00    +0.077 C 
ATOM     27  C   UNL     1      46.277  16.032  18.454  0.00  0.00    +0.203 C 
ATOM     28  O   UNL     1      45.699  17.317  18.669  0.00  0.00    -0.281 OA
ATOM     29  C   UNL     1      44.841  17.443  19.706  0.00  0.00    +0.240 A 
ATOM     30  O   UNL     1      42.193  19.654  20.642  0.00  0.00    -0.282 OA
ENDROOT
BRANCH   3   2
ATOM      1  C   UNL     1      43.210  22.431  19.636  0.00  0.00    +0.087 C 
ATOM      2  C   UNL     1      42.104  21.544  19.125  0.00  0.00    -0.132 C 
ATOM     31  C   UNL     1      41.044  22.074  18.567  0.00  0.00    +0.050 C 
ENDBRANCH   3   2
BRANCH  12  13
ATOM     13  O   UNL     1      47.918  16.524  20.167  0.00  0.00    -0.514 OA
ATOM     14  H   UNL     1      47.810  17.394  19.761  0.00  0.00    +0.385 HD
ENDBRANCH  12  13
BRANCH  17  18
ATOM     18  O   UNL     1      48.735  11.426  21.567  0.00  0.00    -0.304 OA
ATOM     19  C   UNL     1      49.811  11.819  22.419  0.00  0.00    +0.240 C 
ENDBRANCH  17  18
BRANCH  20  21
ATOM     21  O   UNL     1      49.495  10.586  19.051  0.00  0.00    -0.303 OA
ATOM     22  C   UNL     1      50.913  10.612  18.871  0.00  0.00    +0.240 C 
ENDBRANCH  20  21
TORSDOF 4
ENDMDL
MODEL 6
REMARK VINA RESULT:      -5.8      1.885      8.698
REMARK  Name = ZINC95486011
REMARK  7 active torsions:
REMARK  status: ('A' for Active; 'I' for Inactive)
REMARK    1  A    between atoms: C1_1  and  C2_2
REMARK    2  A    between atoms: C2_2  and  C4_4
REMARK    3  A    between atoms: C17_20  and  O5_30
REMARK    4  A    between atoms: C18_21  and  O4_28
REMARK    5  A    between atoms: C21_24  and  O3_27
REMARK    6  A    between atoms: O4_28  and  C23_29
REMARK    7  A    between atoms: O5_30  and  C24_31
REMARK                            x       y       z     vdW  Elec       q    Type
REMARK                         _______ _______ _______ _____ _____    ______ ____
ROOT
ATOM      3  C   UNL     1      50.853  11.749  18.015  0.00  0.00    +0.214 C 
ATOM      4  C   UNL     1      50.831  13.243  17.603  0.00  0.00    +0.103 C 
ATOM      5  C   UNL     1      49.384  13.600  17.809  0.00  0.00    -0.230 A 
ATOM      6  C   UNL     1      48.674  12.399  17.929  0.00  0.00    +0.188 A 
ATOM      7  C   UNL     1      47.288  12.409  18.139  0.00  0.00    -0.033 A 
ATOM      8  C   UNL     1      46.660  13.625  18.217  0.00  0.00    +0.154 A 
ATOM      9  C   UNL     1      47.365  14.824  18.094  0.00  0.00    -0.282 A 
ATOM     10  C   UNL     1      46.659  16.117  18.181  0.00  0.00    +0.387 C 
ATOM     11  O   UNL     1      45.512  16.203  18.569  0.00  0.00    -0.429 OA
ATOM     12  C   UNL     1      47.461  17.329  17.753  0.00  0.00    +0.116 C 
ATOM     15  C   UNL     1      46.847  18.591  18.290  0.00  0.00    -0.121 A 
ATOM     16  C   UNL     1      45.464  18.708  18.276  0.00  0.00    +0.009 A 
ATOM     17  C   UNL     1      44.852  19.859  18.736  0.00  0.00    +0.095 A 
ATOM     20  C   UNL     1      45.632  20.907  19.215  0.00  0.00    +0.120 A 
ATOM     23  C   UNL     1      47.009  20.784  19.231  0.00  0.00    -0.045 A 
ATOM     24  C   UNL     1      47.622  19.624  18.772  0.00  0.00    -0.051 A 
ATOM     25  C   UNL     1      49.127  19.563  18.834  0.00  0.00    +0.100 C 
ATOM     26  C   UNL     1      49.672  18.410  17.992  0.00  0.00    +0.077 C 
ATOM     27  C   UNL     1      48.871  17.155  18.332  0.00  0.00    +0.203 C 
ATOM     28  O   UNL     1      49.458  15.982  17.772  0.00  0.00    -0.281 OA
ATOM     29  C   UNL     1      48.762  14.828  17.886  0.00  0.00    +0.240 A 
ATOM     30  O   UNL     1      49.489  11.330  17.809  0.00  0.00    -0.282 OA
ENDROOT
BRANCH   3   2
ATOM      1  C   UNL     1      51.341  10.521  15.765  0.00  0.00    +0.087 C 
ATOM      2  C   UNL     1      51.790  10.967  17.132  0.00  0.00    -0.132 C 
ATOM     31  C   UNL     1      52.996  10.673  17.554  0.00  0.00    +0.050 C 
ENDBRANCH   3   2
BRANCH  12  13
ATOM     13  O   UNL     1      47.531  17.394  16.327  0.00  0.00    -0.514 OA
ATOM     14  H   UNL     1      47.212  18.226  15.955  0.00  0.00    +0.385 HD
ENDBRANCH  12  13
BRANCH  17  18
ATOM     18  O   UNL     1      43.496  19.967  18.719  0.00  0.00    -0.304 OA
ATOM     19  C   UNL     1      42.782  19.331  19.780  0.00  0.00    +0.240 C 
ENDBRANCH  17  18
BRANCH  20  21
ATOM     21  O   UNL     1      45.043  22.047  19.666  0.00  0.00    -0.303 OA
ATOM     22  C   UNL     1      45.169  22.335  21.060  0.00  0.00    +0.240 C 
ENDBRANCH  20  21
TORSDOF 4
ENDMDL
MODEL 7
REMARK VINA RESULT:      -5.7      3.033      3.611
REMARK  Name = ZINC95486011
REMARK  7 active torsions:
REMARK  status: ('A' for Active; 'I' for Inactive)
REMARK    1  A    between atoms: C1_1  and  C2_2
REMARK    2  A    between atoms: C2_2  and  C4_4
REMARK    3  A    between atoms: C17_20  and  O5_30
REMARK    4  A    between atoms: C18_21  and  O4_28
REMARK    5  A    between atoms: C21_24  and  O3_27
REMARK    6  A    between atoms: O4_28  and  C23_29
REMARK    7  A    between atoms: O5_30  and  C24_31
REMARK                            x       y       z     vdW  Elec       q    Type
REMARK                         _______ _______ _______ _____ _____    ______ ____
ROOT
ATOM      3  C   UNL     1      41.390  20.739  19.462  0.00  0.00    +0.214 C 
ATOM      4  C   UNL     1      42.539  19.729  19.214  0.00  0.00    +0.103 C 
ATOM      5  C   UNL     1      43.754  20.557  19.532  0.00  0.00    -0.230 A 
ATOM      6  C   UNL     1      43.347  21.897  19.559  0.00  0.00    +0.188 A 
ATOM      7  C   UNL     1      44.268  22.915  19.841  0.00  0.00    -0.033 A 
ATOM      8  C   UNL     1      45.568  22.556  20.081  0.00  0.00    +0.154 A 
ATOM      9  C   UNL     1      45.978  21.221  20.050  0.00  0.00    -0.282 A 
ATOM     10  C   UNL     1      47.386  20.867  20.312  0.00  0.00    +0.387 C 
ATOM     11  O   UNL     1      48.180  21.664  20.766  0.00  0.00    -0.429 OA
ATOM     12  C   UNL     1      47.774  19.441  19.976  0.00  0.00    +0.116 C 
ATOM     15  C   UNL     1      49.047  19.056  20.675  0.00  0.00    -0.121 A 
ATOM     16  C   UNL     1      50.069  19.992  20.746  0.00  0.00    +0.009 A 
ATOM     17  C   UNL     1      51.269  19.678  21.357  0.00  0.00    +0.095 A 
ATOM     20  C   UNL     1      51.449  18.411  21.905  0.00  0.00    +0.120 A 
ATOM     23  C   UNL     1      50.426  17.484  21.836  0.00  0.00    -0.045 A 
ATOM     24  C   UNL     1      49.220  17.803  21.225  0.00  0.00    -0.051 A 
ATOM     25  C   UNL     1      48.151  16.742  21.201  0.00  0.00    +0.100 C 
ATOM     26  C   UNL     1      47.038  17.093  20.213  0.00  0.00    +0.077 C 
ATOM     27  C   UNL     1      46.628  18.543  20.458  0.00  0.00    +0.203 C 
ATOM     28  O   UNL     1      45.441  18.887  19.747  0.00  0.00    -0.281 OA
ATOM     29  C   UNL     1      45.060  20.184  19.772  0.00  0.00    +0.240 A 
ATOM     30  O   UNL     1      42.031  22.017  19.283  0.00  0.00    -0.282 OA
ENDROOT
BRANCH   3   2
ATOM      1  C   UNL     1      40.278  19.330  17.568  0.00  0.00    +0.087 C 
ATOM      2  C   UNL     1      40.287  20.549  18.454  0.00  0.00    -0.132 C 
ATOM     31  C   UNL     1      39.337  21.445  18.345  0.00  0.00    +0.050 C 
ENDBRANCH   3   2
BRANCH  12  13
ATOM     13  O   UNL     1      47.937  19.297  18.563  0.00  0.00    -0.514 OA
ATOM     14  H   UNL     1      48.595  19.892  18.180  0.00  0.00    +0.385 HD
ENDBRANCH  12  13
BRANCH  17  18
ATOM     18  O   UNL     1      52.267  20.601  21.422  0.00  0.00    -0.304 OA
ATOM     19  C   UNL     1      52.556  21.327  20.227  0.00  0.00    +0.240 C 
ENDBRANCH  17  18
BRANCH  20  21
ATOM     21  O   UNL     1      52.626  18.088  22.505  0.00  0.00    -0.303 OA
ATOM     22  C   UNL     1      53.454  17.133  21.837  0.00  0.00    +0.240 C 
ENDBRANCH  20  21
TORSDOF 4
ENDMDL
MODEL 8
REMARK VINA RESULT:      -5.5      2.097      3.470
REMARK  Name = ZINC95486011
REMARK  7 active torsions:
REMARK  status: ('A' for Active; 'I' for Inactive)
REMARK    1  A    between atoms: C1_1  and  C2_2
REMARK    2  A    between atoms: C2_2  and  C4_4
REMARK    3  A    between atoms: C17_20  and  O5_30
REMARK    4  A    between atoms: C18_21  and  O4_28
REMARK    5  A    between atoms: C21_24  and  O3_27
REMARK    6  A    between atoms: O4_28  and  C23_29
REMARK    7  A    between atoms: O5_30  and  C24_31
REMARK                            x       y       z     vdW  Elec       q    Type
REMARK                         _______ _______ _______ _____ _____    ______ ____
ROOT
ATOM      3  C   UNL     1      44.787  21.664  19.128  0.00  0.00    +0.214 C 
ATOM      4  C   UNL     1      46.259  21.178  19.119  0.00  0.00    +0.103 C 
ATOM      5  C   UNL     1      46.093  19.686  19.224  0.00  0.00    -0.230 A 
ATOM      6  C   UNL     1      44.772  19.443  19.624  0.00  0.00    +0.188 A 
ATOM      7  C   UNL     1      44.312  18.131  19.800  0.00  0.00    -0.033 A 
ATOM      8  C   UNL     1      45.194  17.106  19.575  0.00  0.00    +0.154 A 
ATOM      9  C   UNL     1      46.512  17.345  19.181  0.00  0.00    -0.282 A 
ATOM     10  C   UNL     1      47.437  16.220  18.949  0.00  0.00    +0.387 C 
ATOM     11  O   UNL     1      47.053  15.071  18.876  0.00  0.00    -0.429 OA
ATOM     12  C   UNL     1      48.899  16.595  18.807  0.00  0.00    +0.116 C 
ATOM     15  C   UNL     1      49.670  15.490  18.141  0.00  0.00    -0.121 A 
ATOM     16  C   UNL     1      49.382  14.180  18.496  0.00  0.00    +0.009 A 
ATOM     17  C   UNL     1      50.081  13.128  17.931  0.00  0.00    +0.095 A 
ATOM     20  C   UNL     1      51.081  13.392  16.999  0.00  0.00    +0.120 A 
ATOM     23  C   UNL     1      51.360  14.698  16.645  0.00  0.00    -0.045 A 
ATOM     24  C   UNL     1      50.654  15.753  17.212  0.00  0.00    -0.051 A 
ATOM     25  C   UNL     1      51.010  17.147  16.766  0.00  0.00    +0.100 C 
ATOM     26  C   UNL     1      50.421  18.200  17.703  0.00  0.00    +0.077 C 
ATOM     27  C   UNL     1      48.951  17.857  17.937  0.00  0.00    +0.203 C 
ATOM     28  O   UNL     1      48.260  18.909  18.607  0.00  0.00    -0.281 OA
ATOM     29  C   UNL     1      46.988  18.663  18.995  0.00  0.00    +0.240 A 
ATOM     30  O   UNL     1      44.091  20.595  19.798  0.00  0.00    -0.282 OA
ENDROOT
BRANCH   3   2
ATOM      1  C   UNL     1      44.477  24.255  19.164  0.00  0.00    +0.087 C 
ATOM      2  C   UNL     1      44.656  22.952  19.899  0.00  0.00    -0.132 C 
ATOM     31  C   UNL     1      44.699  22.939  21.209  0.00  0.00    +0.050 C 
ENDBRANCH   3   2
BRANCH  12  13
ATOM     13  O   UNL     1      49.461  16.871  20.091  0.00  0.00    -0.514 OA
ATOM     14  H   UNL     1      49.327  17.779  20.393  0.00  0.00    +0.385 HD
ENDBRANCH  12  13
BRANCH  17  18
ATOM     18  O   UNL     1      49.794  11.847  18.284  0.00  0.00    -0.304 OA
ATOM     19  C   UNL     1      48.439  11.559  18.635  0.00  0.00    +0.240 C 
ENDBRANCH  17  18
BRANCH  20  21
ATOM     21  O   UNL     1      51.779  12.368  16.439  0.00  0.00    -0.303 OA
ATOM     22  C   UNL     1      51.851  12.336  15.012  0.00  0.00    +0.240 C 
ENDBRANCH  20  21
TORSDOF 4
ENDMDL
MODEL 9
REMARK VINA RESULT:      -5.4      2.205      3.002
REMARK  Name = ZINC95486011
REMARK  7 active torsions:
REMARK  status: ('A' for Active; 'I' for Inactive)
REMARK    1  A    between atoms: C1_1  and  C2_2
REMARK    2  A    between atoms: C2_2  and  C4_4
REMARK    3  A    between atoms: C17_20  and  O5_30
REMARK    4  A    between atoms: C18_21  and  O4_28
REMARK    5  A    between atoms: C21_24  and  O3_27
REMARK    6  A    between atoms: O4_28  and  C23_29
REMARK    7  A    between atoms: O5_30  and  C24_31
REMARK                            x       y       z     vdW  Elec       q    Type
REMARK                         _______ _______ _______ _____ _____    ______ ____
ROOT
ATOM      3  C   UNL     1      46.022  20.857  20.831  0.00  0.00    +0.214 C 
ATOM      4  C   UNL     1      45.645  19.573  20.049  0.00  0.00    +0.103 C 
ATOM      5  C   UNL     1      46.954  19.209  19.403  0.00  0.00    -0.230 A 
ATOM      6  C   UNL     1      47.789  20.329  19.499  0.00  0.00    +0.188 A 
ATOM      7  C   UNL     1      49.093  20.290  18.986  0.00  0.00    -0.033 A 
ATOM      8  C   UNL     1      49.513  19.131  18.389  0.00  0.00    +0.154 A 
ATOM      9  C   UNL     1      48.681  18.014  18.287  0.00  0.00    -0.282 A 
ATOM     10  C   UNL     1      49.163  16.781  17.636  0.00  0.00    +0.387 C 
ATOM     11  O   UNL     1      50.333  16.607  17.366  0.00  0.00    -0.429 OA
ATOM     12  C   UNL     1      48.100  15.746  17.330  0.00  0.00    +0.116 C 
ATOM     15  C   UNL     1      48.719  14.396  17.102  0.00  0.00    -0.121 A 
ATOM     16  C   UNL     1      49.900  14.328  16.376  0.00  0.00    +0.009 A 
ATOM     17  C   UNL     1      50.497  13.107  16.118  0.00  0.00    +0.095 A 
ATOM     20  C   UNL     1      49.905  11.940  16.592  0.00  0.00    +0.120 A 
ATOM     23  C   UNL     1      48.732  12.014  17.319  0.00  0.00    -0.045 A 
ATOM     24  C   UNL     1      48.136  13.242  17.580  0.00  0.00    -0.051 A 
ATOM     25  C   UNL     1      46.864  13.239  18.389  0.00  0.00    +0.100 C 
ATOM     26  C   UNL     1      46.145  14.585  18.301  0.00  0.00    +0.077 C 
ATOM     27  C   UNL     1      47.171  15.688  18.549  0.00  0.00    +0.203 C 
ATOM     28  O   UNL     1      46.552  16.961  18.719  0.00  0.00    -0.281 OA
ATOM     29  C   UNL     1      47.366  18.037  18.804  0.00  0.00    +0.240 A 
ATOM     30  O   UNL     1      47.166  21.357  20.111  0.00  0.00    -0.282 OA
ENDROOT
BRANCH   3   2
ATOM      1  C   UNL     1      43.966  21.900  19.606  0.00  0.00    +0.087 C 
ATOM      2  C   UNL     1      44.892  21.853  20.795  0.00  0.00    -0.132 C 
ATOM     31  C   UNL     1      44.714  22.679  21.796  0.00  0.00    +0.050 C 
ENDBRANCH   3   2
BRANCH  12  13
ATOM     13  O   UNL     1      47.354  16.136  16.175  0.00  0.00    -0.514 OA
ATOM     14  H   UNL     1      47.042  17.050  16.198  0.00  0.00    +0.385 HD
ENDBRANCH  12  13
BRANCH  17  18
ATOM     18  O   UNL     1      51.654  13.048  15.405  0.00  0.00    -0.304 OA
ATOM     19  C   UNL     1      51.600  13.479  14.044  0.00  0.00    +0.240 C 
ENDBRANCH  17  18
BRANCH  20  21
ATOM     21  O   UNL     1      50.479  10.733  16.341  0.00  0.00    -0.303 OA
ATOM     22  C   UNL     1      51.467  10.280  17.268  0.00  0.00    +0.240 C 
ENDBRANCH  20  21
TORSDOF 4
ENDMDL
