MODEL 1
REMARK VINA RESULT:      -6.4      0.000      0.000
REMARK  Name = ZINC15121588
REMARK  8 active torsions:
REMARK  status: ('A' for Active; 'I' for Inactive)
REMARK    1  A    between atoms: C1_1  and  C2_2
REMARK    2  A    between atoms: C8_8  and  O3_27
REMARK    3  A    between atoms: C10_10  and  O2_26
REMARK    4  A    between atoms: C11_11  and  C12_12
REMARK    5  A    between atoms: C17_17  and  O1_18
REMARK    6  A    between atoms: C18_19  and  C22_25
REMARK    7  A    between atoms: C19_21  and  C21_24
REMARK    8  A    between atoms: O3_27  and  C23_28
REMARK                            x       y       z     vdW  Elec       q    Type
REMARK                         _______ _______ _______ _____ _____    ______ ____
ROOT
ATOM     16  C   UNL     1      45.805  17.117  19.536  0.00  0.00    -0.029 A 
ATOM     17  C   UNL     1      45.203  16.201  20.396  0.00  0.00    +0.079 A 
ATOM     18  C   UNL     1      45.165  14.866  20.057  0.00  0.00    +0.029 A 
ATOM     19  C   UNL     1      45.721  14.423  18.865  0.00  0.00    -0.076 A 
ATOM     20  C   UNL     1      46.322  15.320  18.006  0.00  0.00    -0.154 A 
ATOM     21  C   UNL     1      46.943  14.883  16.705  0.00  0.00    +0.235 C 
ATOM     22  N   UNL     1      46.457  13.550  16.323  0.00  0.00    -0.511 N 
ATOM     23  H   UNL     1      45.459  13.605  16.090  0.00  0.00    +0.432 HD
ATOM     24  H   UNL     1      46.981  13.218  15.505  0.00  0.00    +0.435 HD
ATOM     25  C   UNL     1      46.647  12.607  17.440  0.00  0.00    +0.171 C 
ATOM     26  C   UNL     1      46.400  11.179  16.950  0.00  0.00    +0.094 C 
ATOM     27  C   UNL     1      48.464  14.843  16.860  0.00  0.00    +0.098 C 
ATOM     28  C   UNL     1      45.645  12.951  18.543  0.00  0.00    +0.130 C 
ATOM     29  C   UNL     1      46.365  16.670  18.338  0.00  0.00    +0.142 A 
ENDROOT
BRANCH  16  15
ATOM      1  C   UNL     1      48.129  18.164  20.878  0.00  0.00    +0.093 C 
ATOM      2  C   UNL     1      46.978  19.076  20.545  0.00  0.00    -0.046 A 
ATOM      3  C   UNL     1      47.047  20.392  20.876  0.00  0.00    +0.013 A 
ATOM      4  C   UNL     1      45.976  21.252  20.575  0.00  0.00    +0.008 A 
ATOM      5  C   UNL     1      46.026  22.615  20.916  0.00  0.00    -0.022 A 
ATOM      6  C   UNL     1      44.978  23.430  20.616  0.00  0.00    +0.073 A 
ATOM      7  C   UNL     1      43.845  22.937  19.972  0.00  0.00    -0.093 A 
ATOM      8  C   UNL     1      43.757  21.608  19.623  0.00  0.00    +0.157 A 
ATOM     11  C   UNL     1      44.828  20.740  19.921  0.00  0.00    -0.104 A 
ATOM     12  C   UNL     1      44.774  19.377  19.579  0.00  0.00    +0.179 A 
ATOM     15  C   UNL     1      45.850  18.555  19.890  0.00  0.00    -0.109 A 
BRANCH   8   9
ATOM      9  O   UNL     1      42.649  21.137  18.995  0.00  0.00    -0.298 OA
ATOM     10  C   UNL     1      41.548  22.038  18.860  0.00  0.00    +0.245 C 
ENDBRANCH   8   9
BRANCH  12  13
ATOM     13  O   UNL     1      43.684  18.870  18.952  0.00  0.00    -0.475 OA
ATOM     14  H   UNL     1      43.883  18.156  18.332  0.00  0.00    +0.391 HD
ENDBRANCH  12  13
ENDBRANCH  16  15
BRANCH  29  30
ATOM     30  O   UNL     1      46.954  17.556  17.493  0.00  0.00    -0.487 OA
ATOM     31  H   UNL     1      47.415  17.142  16.749  0.00  0.00    +0.396 HD
ENDBRANCH  29  30
TORSDOF 4
ENDMDL
MODEL 2
REMARK VINA RESULT:      -6.2      4.685      6.303
REMARK  Name = ZINC15121588
REMARK  8 active torsions:
REMARK  status: ('A' for Active; 'I' for Inactive)
REMARK    1  A    between atoms: C1_1  and  C2_2
REMARK    2  A    between atoms: C8_8  and  O3_27
REMARK    3  A    between atoms: C10_10  and  O2_26
REMARK    4  A    between atoms: C11_11  and  C12_12
REMARK    5  A    between atoms: C17_17  and  O1_18
REMARK    6  A    between atoms: C18_19  and  C22_25
REMARK    7  A    between atoms: C19_21  and  C21_24
REMARK    8  A    between atoms: O3_27  and  C23_28
REMARK                            x       y       z     vdW  Elec       q    Type
REMARK                         _______ _______ _______ _____ _____    ______ ____
ROOT
ATOM     16  C   UNL     1      45.992  21.836  20.714  0.00  0.00    -0.029 A 
ATOM     17  C   UNL     1      46.283  22.461  21.925  0.00  0.00    +0.079 A 
ATOM     18  C   UNL     1      47.541  22.337  22.473  0.00  0.00    +0.029 A 
ATOM     19  C   UNL     1      48.524  21.596  21.832  0.00  0.00    -0.076 A 
ATOM     20  C   UNL     1      48.248  20.975  20.631  0.00  0.00    -0.154 A 
ATOM     21  C   UNL     1      49.285  20.166  19.897  0.00  0.00    +0.235 C 
ATOM     22  N   UNL     1      50.390  19.805  20.796  0.00  0.00    -0.511 N 
ATOM     23  H   UNL     1      50.050  19.147  21.506  0.00  0.00    +0.432 HD
ATOM     24  H   UNL     1      51.140  19.363  20.252  0.00  0.00    +0.435 HD
ATOM     25  C   UNL     1      50.913  21.014  21.459  0.00  0.00    +0.171 C 
ATOM     26  C   UNL     1      52.224  20.677  22.172  0.00  0.00    +0.094 C 
ATOM     27  C   UNL     1      49.830  20.986  18.727  0.00  0.00    +0.098 C 
ATOM     28  C   UNL     1      49.880  21.492  22.481  0.00  0.00    +0.130 C 
ATOM     29  C   UNL     1      46.981  21.091  20.069  0.00  0.00    +0.142 A 
ENDROOT
BRANCH  16  15
ATOM      1  C   UNL     1      45.182  24.357  19.579  0.00  0.00    +0.093 C 
ATOM      2  C   UNL     1      44.237  23.184  19.560  0.00  0.00    -0.046 A 
ATOM      3  C   UNL     1      43.007  23.324  19.000  0.00  0.00    +0.013 A 
ATOM      4  C   UNL     1      42.113  22.238  18.981  0.00  0.00    +0.008 A 
ATOM      5  C   UNL     1      40.834  22.365  18.412  0.00  0.00    -0.022 A 
ATOM      6  C   UNL     1      39.985  21.301  18.406  0.00  0.00    +0.073 A 
ATOM      7  C   UNL     1      40.360  20.078  18.955  0.00  0.00    -0.093 A 
ATOM      8  C   UNL     1      41.604  19.914  19.522  0.00  0.00    +0.157 A 
ATOM     11  C   UNL     1      42.505  20.998  19.544  0.00  0.00    -0.104 A 
ATOM     12  C   UNL     1      43.783  20.868  20.114  0.00  0.00    +0.179 A 
ATOM     15  C   UNL     1      44.642  21.961  20.115  0.00  0.00    -0.109 A 
BRANCH   8   9
ATOM      9  O   UNL     1      41.960  18.717  20.056  0.00  0.00    -0.298 OA
ATOM     10  C   UNL     1      41.294  18.316  21.254  0.00  0.00    +0.245 C 
ENDBRANCH   8   9
BRANCH  12  13
ATOM     13  O   UNL     1      44.176  19.689  20.657  0.00  0.00    -0.475 OA
ATOM     14  H   UNL     1      45.078  19.430  20.427  0.00  0.00    +0.391 HD
ENDBRANCH  12  13
ENDBRANCH  16  15
BRANCH  29  30
ATOM     30  O   UNL     1      46.706  20.480  18.887  0.00  0.00    -0.487 OA
ATOM     31  H   UNL     1      45.761  20.352  18.722  0.00  0.00    +0.396 HD
ENDBRANCH  29  30
TORSDOF 4
ENDMDL
MODEL 3
REMARK VINA RESULT:      -6.1      4.069      6.917
REMARK  Name = ZINC15121588
REMARK  8 active torsions:
REMARK  status: ('A' for Active; 'I' for Inactive)
REMARK    1  A    between atoms: C1_1  and  C2_2
REMARK    2  A    between atoms: C8_8  and  O3_27
REMARK    3  A    between atoms: C10_10  and  O2_26
REMARK    4  A    between atoms: C11_11  and  C12_12
REMARK    5  A    between atoms: C17_17  and  O1_18
REMARK    6  A    between atoms: C18_19  and  C22_25
REMARK    7  A    between atoms: C19_21  and  C21_24
REMARK    8  A    between atoms: O3_27  and  C23_28
REMARK                            x       y       z     vdW  Elec       q    Type
REMARK                         _______ _______ _______ _____ _____    ______ ____
ROOT
ATOM     16  C   UNL     1      45.481  21.482  19.977  0.00  0.00    -0.029 A 
ATOM     17  C   UNL     1      45.067  22.764  19.623  0.00  0.00    +0.079 A 
ATOM     18  C   UNL     1      43.765  22.978  19.227  0.00  0.00    +0.029 A 
ATOM     19  C   UNL     1      42.858  21.929  19.177  0.00  0.00    -0.076 A 
ATOM     20  C   UNL     1      43.256  20.655  19.528  0.00  0.00    -0.154 A 
ATOM     21  C   UNL     1      42.305  19.487  19.494  0.00  0.00    +0.235 C 
ATOM     22  N   UNL     1      41.124  19.805  18.678  0.00  0.00    -0.511 N 
ATOM     23  H   UNL     1      41.405  19.897  17.695  0.00  0.00    +0.432 HD
ATOM     24  H   UNL     1      40.436  19.049  18.768  0.00  0.00    +0.435 HD
ATOM     25  C   UNL     1      40.524  21.071  19.135  0.00  0.00    +0.171 C 
ATOM     26  C   UNL     1      39.156  21.255  18.475  0.00  0.00    +0.094 C 
ATOM     27  C   UNL     1      41.861  19.156  20.920  0.00  0.00    +0.098 C 
ATOM     28  C   UNL     1      41.448  22.221  18.731  0.00  0.00    +0.130 C 
ATOM     29  C   UNL     1      44.568  20.426  19.927  0.00  0.00    +0.142 A 
ENDROOT
BRANCH  16  15
ATOM      1  C   UNL     1      46.384  22.528  22.505  0.00  0.00    +0.093 C 
ATOM      2  C   UNL     1      47.330  21.745  21.632  0.00  0.00    -0.046 A 
ATOM      3  C   UNL     1      48.606  21.533  22.049  0.00  0.00    +0.013 A 
ATOM      4  C   UNL     1      49.500  20.808  21.241  0.00  0.00    +0.008 A 
ATOM      5  C   UNL     1      50.826  20.583  21.652  0.00  0.00    -0.022 A 
ATOM      6  C   UNL     1      51.675  19.880  20.853  0.00  0.00    +0.073 A 
ATOM      7  C   UNL     1      51.254  19.373  19.627  0.00  0.00    -0.093 A 
ATOM      8  C   UNL     1      49.964  19.572  19.188  0.00  0.00    +0.157 A 
ATOM     11  C   UNL     1      49.062  20.297  19.994  0.00  0.00    -0.104 A 
ATOM     12  C   UNL     1      47.737  20.520  19.580  0.00  0.00    +0.179 A 
ATOM     15  C   UNL     1      46.879  21.240  20.403  0.00  0.00    -0.109 A 
BRANCH   8   9
ATOM      9  O   UNL     1      49.563  19.073  17.990  0.00  0.00    -0.298 OA
ATOM     10  C   UNL     1      50.339  18.007  17.440  0.00  0.00    +0.245 C 
ENDBRANCH   8   9
BRANCH  12  13
ATOM     13  O   UNL     1      47.300  20.038  18.390  0.00  0.00    -0.475 OA
ATOM     14  H   UNL     1      47.346  19.076  18.313  0.00  0.00    +0.391 HD
ENDBRANCH  12  13
ENDBRANCH  16  15
BRANCH  29  30
ATOM     30  O   UNL     1      44.962  19.173  20.272  0.00  0.00    -0.487 OA
ATOM     31  H   UNL     1      44.268  18.644  20.690  0.00  0.00    +0.396 HD
ENDBRANCH  29  30
TORSDOF 4
ENDMDL
MODEL 4
REMARK VINA RESULT:      -6.0      3.598      6.559
REMARK  Name = ZINC15121588
REMARK  8 active torsions:
REMARK  status: ('A' for Active; 'I' for Inactive)
REMARK    1  A    between atoms: C1_1  and  C2_2
REMARK    2  A    between atoms: C8_8  and  O3_27
REMARK    3  A    between atoms: C10_10  and  O2_26
REMARK    4  A    between atoms: C11_11  and  C12_12
REMARK    5  A    between atoms: C17_17  and  O1_18
REMARK    6  A    between atoms: C18_19  and  C22_25
REMARK    7  A    between atoms: C19_21  and  C21_24
REMARK    8  A    between atoms: O3_27  and  C23_28
REMARK                            x       y       z     vdW  Elec       q    Type
REMARK                         _______ _______ _______ _____ _____    ______ ____
ROOT
ATOM     16  C   UNL     1      46.381  18.131  19.464  0.00  0.00    -0.029 A 
ATOM     17  C   UNL     1      46.097  17.115  20.374  0.00  0.00    +0.079 A 
ATOM     18  C   UNL     1      44.888  17.105  21.034  0.00  0.00    +0.029 A 
ATOM     19  C   UNL     1      43.947  18.099  20.802  0.00  0.00    -0.076 A 
ATOM     20  C   UNL     1      44.216  19.109  19.901  0.00  0.00    -0.154 A 
ATOM     21  C   UNL     1      43.222  20.203  19.613  0.00  0.00    +0.235 C 
ATOM     22  N   UNL     1      42.205  20.270  20.672  0.00  0.00    -0.511 N 
ATOM     23  H   UNL     1      42.643  20.585  21.545  0.00  0.00    +0.432 HD
ATOM     24  H   UNL     1      41.472  20.935  20.398  0.00  0.00    +0.435 HD
ATOM     25  C   UNL     1      41.607  18.939  20.878  0.00  0.00    +0.171 C 
ATOM     26  C   UNL     1      40.373  19.067  21.774  0.00  0.00    +0.094 C 
ATOM     27  C   UNL     1      42.540  19.927  18.272  0.00  0.00    +0.098 C 
ATOM     28  C   UNL     1      42.642  18.040  21.556  0.00  0.00    +0.130 C 
ATOM     29  C   UNL     1      45.434  19.129  19.231  0.00  0.00    +0.142 A 
ENDROOT
BRANCH  16  15
ATOM      1  C   UNL     1      46.663  16.647  17.011  0.00  0.00    +0.093 C 
ATOM      2  C   UNL     1      47.828  17.432  17.554  0.00  0.00    -0.046 A 
ATOM      3  C   UNL     1      49.006  17.439  16.877  0.00  0.00    +0.013 A 
ATOM      4  C   UNL     1      50.103  18.163  17.377  0.00  0.00    +0.008 A 
ATOM      5  C   UNL     1      51.331  18.177  16.694  0.00  0.00    -0.022 A 
ATOM      6  C   UNL     1      52.380  18.885  17.196  0.00  0.00    +0.073 A 
ATOM      7  C   UNL     1      52.261  19.602  18.384  0.00  0.00    -0.093 A 
ATOM      8  C   UNL     1      51.074  19.613  19.083  0.00  0.00    +0.157 A 
ATOM     11  C   UNL     1      49.971  18.890  18.586  0.00  0.00    -0.104 A 
ATOM     12  C   UNL     1      48.743  18.877  19.272  0.00  0.00    +0.179 A 
ATOM     15  C   UNL     1      47.679  18.151  18.750  0.00  0.00    -0.109 A 
BRANCH   8   9
ATOM      9  O   UNL     1      50.968  20.316  20.240  0.00  0.00    -0.298 OA
ATOM     10  C   UNL     1      51.952  21.323  20.480  0.00  0.00    +0.245 C 
ENDBRANCH   8   9
BRANCH  12  13
ATOM     13  O   UNL     1      48.598  19.567  20.432  0.00  0.00    -0.475 OA
ATOM     14  H   UNL     1      49.014  20.439  20.425  0.00  0.00    +0.391 HD
ENDBRANCH  12  13
ENDBRANCH  16  15
BRANCH  29  30
ATOM     30  O   UNL     1      45.702  20.123  18.344  0.00  0.00    -0.487 OA
ATOM     31  H   UNL     1      46.460  19.943  17.770  0.00  0.00    +0.396 HD
ENDBRANCH  29  30
TORSDOF 4
ENDMDL
MODEL 5
REMARK VINA RESULT:      -5.9      2.283      4.244
REMARK  Name = ZINC15121588
REMARK  8 active torsions:
REMARK  status: ('A' for Active; 'I' for Inactive)
REMARK    1  A    between atoms: C1_1  and  C2_2
REMARK    2  A    between atoms: C8_8  and  O3_27
REMARK    3  A    between atoms: C10_10  and  O2_26
REMARK    4  A    between atoms: C11_11  and  C12_12
REMARK    5  A    between atoms: C17_17  and  O1_18
REMARK    6  A    between atoms: C18_19  and  C22_25
REMARK    7  A    between atoms: C19_21  and  C21_24
REMARK    8  A    between atoms: O3_27  and  C23_28
REMARK                            x       y       z     vdW  Elec       q    Type
REMARK                         _______ _______ _______ _____ _____    ______ ____
ROOT
ATOM     16  C   UNL     1      47.028  14.878  18.163  0.00  0.00    -0.029 A 
ATOM     17  C   UNL     1      46.504  14.107  17.127  0.00  0.00    +0.079 A 
ATOM     18  C   UNL     1      47.347  13.572  16.178  0.00  0.00    +0.029 A 
ATOM     19  C   UNL     1      48.716  13.793  16.242  0.00  0.00    -0.076 A 
ATOM     20  C   UNL     1      49.246  14.553  17.264  0.00  0.00    -0.154 A 
ATOM     21  C   UNL     1      50.726  14.814  17.376  0.00  0.00    +0.235 C 
ATOM     22  N   UNL     1      51.398  14.535  16.100  0.00  0.00    -0.511 N 
ATOM     23  H   UNL     1      51.099  15.224  15.400  0.00  0.00    +0.432 HD
ATOM     24  H   UNL     1      52.415  14.599  16.229  0.00  0.00    +0.435 HD
ATOM     25  C   UNL     1      51.048  13.181  15.633  0.00  0.00    +0.171 C 
ATOM     26  C   UNL     1      51.955  12.796  14.462  0.00  0.00    +0.094 C 
ATOM     27  C   UNL     1      51.315  13.917  18.466  0.00  0.00    +0.098 C 
ATOM     28  C   UNL     1      49.590  13.187  15.173  0.00  0.00    +0.130 C 
ATOM     29  C   UNL     1      48.405  15.099  18.227  0.00  0.00    +0.142 A 
ENDROOT
BRANCH  16  15
ATOM      1  C   UNL     1      46.479  13.384  20.564  0.00  0.00    +0.093 C 
ATOM      2  C   UNL     1      45.855  14.740  20.362  0.00  0.00    -0.046 A 
ATOM      3  C   UNL     1      45.040  15.252  21.320  0.00  0.00    +0.013 A 
ATOM      4  C   UNL     1      44.446  16.515  21.141  0.00  0.00    +0.008 A 
ATOM      5  C   UNL     1      43.595  17.059  22.117  0.00  0.00    -0.022 A 
ATOM      6  C   UNL     1      43.031  18.282  21.923  0.00  0.00    +0.073 A 
ATOM      7  C   UNL     1      43.282  19.014  20.764  0.00  0.00    -0.093 A 
ATOM      8  C   UNL     1      44.110  18.515  19.783  0.00  0.00    +0.157 A 
ATOM     11  C   UNL     1      44.708  17.251  19.958  0.00  0.00    -0.104 A 
ATOM     12  C   UNL     1      45.559  16.709  18.979  0.00  0.00    +0.179 A 
ATOM     15  C   UNL     1      46.130  15.459  19.188  0.00  0.00    -0.109 A 
BRANCH   8   9
ATOM      9  O   UNL     1      44.349  19.236  18.658  0.00  0.00    -0.298 OA
ATOM     10  C   UNL     1      44.843  20.565  18.831  0.00  0.00    +0.245 C 
ENDBRANCH   8   9
BRANCH  12  13
ATOM     13  O   UNL     1      45.822  17.399  17.840  0.00  0.00    -0.475 OA
ATOM     14  H   UNL     1      46.186  16.858  17.127  0.00  0.00    +0.391 HD
ENDBRANCH  12  13
ENDBRANCH  16  15
BRANCH  29  30
ATOM     30  O   UNL     1      48.924  15.849  19.234  0.00  0.00    -0.487 OA
ATOM     31  H   UNL     1      48.318  16.521  19.576  0.00  0.00    +0.396 HD
ENDBRANCH  29  30
TORSDOF 4
ENDMDL
MODEL 6
REMARK VINA RESULT:      -5.4      3.176      4.699
REMARK  Name = ZINC15121588
REMARK  8 active torsions:
REMARK  status: ('A' for Active; 'I' for Inactive)
REMARK    1  A    between atoms: C1_1  and  C2_2
REMARK    2  A    between atoms: C8_8  and  O3_27
REMARK    3  A    between atoms: C10_10  and  O2_26
REMARK    4  A    between atoms: C11_11  and  C12_12
REMARK    5  A    between atoms: C17_17  and  O1_18
REMARK    6  A    between atoms: C18_19  and  C22_25
REMARK    7  A    between atoms: C19_21  and  C21_24
REMARK    8  A    between atoms: O3_27  and  C23_28
REMARK                            x       y       z     vdW  Elec       q    Type
REMARK                         _______ _______ _______ _____ _____    ______ ____
ROOT
ATOM     16  C   UNL     1      46.743  19.116  20.742  0.00  0.00    -0.029 A 
ATOM     17  C   UNL     1      47.039  19.027  22.101  0.00  0.00    +0.079 A 
ATOM     18  C   UNL     1      48.294  18.627  22.503  0.00  0.00    +0.029 A 
ATOM     19  C   UNL     1      49.271  18.313  21.567  0.00  0.00    -0.076 A 
ATOM     20  C   UNL     1      48.990  18.401  20.219  0.00  0.00    -0.154 A 
ATOM     21  C   UNL     1      50.020  18.075  19.170  0.00  0.00    +0.235 C 
ATOM     22  N   UNL     1      51.121  17.293  19.750  0.00  0.00    -0.511 N 
ATOM     23  H   UNL     1      50.774  16.366  20.022  0.00  0.00    +0.432 HD
ATOM     24  H   UNL     1      51.868  17.188  19.053  0.00  0.00    +0.435 HD
ATOM     25  C   UNL     1      51.654  17.984  20.939  0.00  0.00    +0.171 C 
ATOM     26  C   UNL     1      52.961  17.317  21.372  0.00  0.00    +0.094 C 
ATOM     27  C   UNL     1      50.574  19.375  18.586  0.00  0.00    +0.098 C 
ATOM     28  C   UNL     1      50.626  17.877  22.065  0.00  0.00    +0.130 C 
ATOM     29  C   UNL     1      47.726  18.801  19.802  0.00  0.00    +0.142 A 
ENDROOT
BRANCH  16  15
ATOM      1  C   UNL     1      44.702  17.126  20.322  0.00  0.00    +0.093 C 
ATOM      2  C   UNL     1      44.393  18.583  20.091  0.00  0.00    -0.046 A 
ATOM      3  C   UNL     1      43.148  18.948  19.690  0.00  0.00    +0.013 A 
ATOM      4  C   UNL     1      42.848  20.304  19.465  0.00  0.00    +0.008 A 
ATOM      5  C   UNL     1      41.568  20.701  19.043  0.00  0.00    -0.022 A 
ATOM      6  C   UNL     1      41.300  22.019  18.830  0.00  0.00    +0.073 A 
ATOM      7  C   UNL     1      42.278  22.992  19.024  0.00  0.00    -0.093 A 
ATOM      8  C   UNL     1      43.545  22.643  19.436  0.00  0.00    +0.157 A 
ATOM     11  C   UNL     1      43.851  21.285  19.664  0.00  0.00    -0.104 A 
ATOM     12  C   UNL     1      45.133  20.891  20.085  0.00  0.00    +0.179 A 
ATOM     15  C   UNL     1      45.395  19.543  20.299  0.00  0.00    -0.109 A 
BRANCH   8   9
ATOM      9  O   UNL     1      44.492  23.599  19.622  0.00  0.00    -0.298 OA
ATOM     10  C   UNL     1      44.432  24.744  18.771  0.00  0.00    +0.245 C 
ENDBRANCH   8   9
BRANCH  12  13
ATOM     13  O   UNL     1      46.106  21.817  20.281  0.00  0.00    -0.475 OA
ATOM     14  H   UNL     1      46.543  21.752  21.140  0.00  0.00    +0.391 HD
ENDBRANCH  12  13
ENDBRANCH  16  15
BRANCH  29  30
ATOM     30  O   UNL     1      47.446  18.886  18.475  0.00  0.00    -0.487 OA
ATOM     31  H   UNL     1      47.913  18.235  17.933  0.00  0.00    +0.396 HD
ENDBRANCH  29  30
TORSDOF 4
ENDMDL
MODEL 7
REMARK VINA RESULT:      -5.4      2.304      7.758
REMARK  Name = ZINC15121588
REMARK  8 active torsions:
REMARK  status: ('A' for Active; 'I' for Inactive)
REMARK    1  A    between atoms: C1_1  and  C2_2
REMARK    2  A    between atoms: C8_8  and  O3_27
REMARK    3  A    between atoms: C10_10  and  O2_26
REMARK    4  A    between atoms: C11_11  and  C12_12
REMARK    5  A    between atoms: C17_17  and  O1_18
REMARK    6  A    between atoms: C18_19  and  C22_25
REMARK    7  A    between atoms: C19_21  and  C21_24
REMARK    8  A    between atoms: O3_27  and  C23_28
REMARK                            x       y       z     vdW  Elec       q    Type
REMARK                         _______ _______ _______ _____ _____    ______ ____
ROOT
ATOM     16  C   UNL     1      46.065  18.831  20.466  0.00  0.00    -0.029 A 
ATOM     17  C   UNL     1      46.957  19.215  21.466  0.00  0.00    +0.079 A 
ATOM     18  C   UNL     1      47.120  20.551  21.761  0.00  0.00    +0.029 A 
ATOM     19  C   UNL     1      46.403  21.521  21.074  0.00  0.00    -0.076 A 
ATOM     20  C   UNL     1      45.515  21.152  20.085  0.00  0.00    -0.154 A 
ATOM     21  C   UNL     1      44.712  22.170  19.317  0.00  0.00    +0.235 C 
ATOM     22  N   UNL     1      45.299  23.509  19.465  0.00  0.00    -0.511 N 
ATOM     23  H   UNL     1      46.210  23.536  18.992  0.00  0.00    +0.432 HD
ATOM     24  H   UNL     1      44.673  24.203  19.040  0.00  0.00    +0.435 HD
ATOM     25  C   UNL     1      45.480  23.823  20.894  0.00  0.00    +0.171 C 
ATOM     26  C   UNL     1      45.828  25.305  21.050  0.00  0.00    +0.094 C 
ATOM     27  C   UNL     1      43.277  22.184  19.846  0.00  0.00    +0.098 C 
ATOM     28  C   UNL     1      46.625  22.967  21.438  0.00  0.00    +0.130 C 
ATOM     29  C   UNL     1      45.344  19.807  19.776  0.00  0.00    +0.142 A 
ENDROOT
BRANCH  16  15
ATOM      1  C   UNL     1      44.154  17.276  21.960  0.00  0.00    +0.093 C 
ATOM      2  C   UNL     1      44.956  16.630  20.860  0.00  0.00    -0.046 A 
ATOM      3  C   UNL     1      44.766  15.315  20.576  0.00  0.00    +0.013 A 
ATOM      4  C   UNL     1      45.513  14.699  19.555  0.00  0.00    +0.008 A 
ATOM      5  C   UNL     1      45.336  13.338  19.251  0.00  0.00    -0.022 A 
ATOM      6  C   UNL     1      46.069  12.762  18.259  0.00  0.00    +0.073 A 
ATOM      7  C   UNL     1      47.000  13.500  17.532  0.00  0.00    -0.093 A 
ATOM      8  C   UNL     1      47.204  14.835  17.800  0.00  0.00    +0.157 A 
ATOM     11  C   UNL     1      46.458  15.459  18.822  0.00  0.00    -0.104 A 
ATOM     12  C   UNL     1      46.638  16.820  19.124  0.00  0.00    +0.179 A 
ATOM     15  C   UNL     1      45.884  17.397  20.138  0.00  0.00    -0.109 A 
BRANCH   8   9
ATOM      9  O   UNL     1      48.114  15.546  17.086  0.00  0.00    -0.298 OA
ATOM     10  C   UNL     1      49.423  14.987  16.966  0.00  0.00    +0.245 C 
ENDBRANCH   8   9
BRANCH  12  13
ATOM     13  O   UNL     1      47.538  17.563  18.433  0.00  0.00    -0.475 OA
ATOM     14  H   UNL     1      47.856  18.341  18.910  0.00  0.00    +0.391 HD
ENDBRANCH  12  13
ENDBRANCH  16  15
BRANCH  29  30
ATOM     30  O   UNL     1      44.472  19.442  18.801  0.00  0.00    -0.487 OA
ATOM     31  H   UNL     1      44.050  20.188  18.351  0.00  0.00    +0.396 HD
ENDBRANCH  29  30
TORSDOF 4
ENDMDL
MODEL 8
REMARK VINA RESULT:      -5.3      2.311      4.154
REMARK  Name = ZINC15121588
REMARK  8 active torsions:
REMARK  status: ('A' for Active; 'I' for Inactive)
REMARK    1  A    between atoms: C1_1  and  C2_2
REMARK    2  A    between atoms: C8_8  and  O3_27
REMARK    3  A    between atoms: C10_10  and  O2_26
REMARK    4  A    between atoms: C11_11  and  C12_12
REMARK    5  A    between atoms: C17_17  and  O1_18
REMARK    6  A    between atoms: C18_19  and  C22_25
REMARK    7  A    between atoms: C19_21  and  C21_24
REMARK    8  A    between atoms: O3_27  and  C23_28
REMARK                            x       y       z     vdW  Elec       q    Type
REMARK                         _______ _______ _______ _____ _____    ______ ____
ROOT
ATOM     16  C   UNL     1      47.663  15.223  19.129  0.00  0.00    -0.029 A 
ATOM     17  C   UNL     1      48.917  15.807  19.297  0.00  0.00    +0.079 A 
ATOM     18  C   UNL     1      49.985  15.363  18.549  0.00  0.00    +0.029 A 
ATOM     19  C   UNL     1      49.826  14.339  17.626  0.00  0.00    -0.076 A 
ATOM     20  C   UNL     1      48.588  13.755  17.449  0.00  0.00    -0.154 A 
ATOM     21  C   UNL     1      48.369  12.644  16.455  0.00  0.00    +0.235 C 
ATOM     22  N   UNL     1      49.649  12.036  16.067  0.00  0.00    -0.511 N 
ATOM     23  H   UNL     1      50.050  11.543  16.873  0.00  0.00    +0.432 HD
ATOM     24  H   UNL     1      49.491  11.370  15.302  0.00  0.00    +0.435 HD
ATOM     25  C   UNL     1      50.586  13.082  15.619  0.00  0.00    +0.171 C 
ATOM     26  C   UNL     1      51.804  12.429  14.964  0.00  0.00    +0.094 C 
ATOM     27  C   UNL     1      47.678  13.208  15.213  0.00  0.00    +0.098 C 
ATOM     28  C   UNL     1      51.031  13.891  16.838  0.00  0.00    +0.130 C 
ATOM     29  C   UNL     1      47.504  14.193  18.200  0.00  0.00    +0.142 A 
ENDROOT
BRANCH  16  15
ATOM      1  C   UNL     1      46.908  13.767  21.498  0.00  0.00    +0.093 C 
ATOM      2  C   UNL     1      46.131  14.990  21.086  0.00  0.00    -0.046 A 
ATOM      3  C   UNL     1      45.079  15.401  21.841  0.00  0.00    +0.013 A 
ATOM      4  C   UNL     1      44.342  16.538  21.463  0.00  0.00    +0.008 A 
ATOM      5  C   UNL     1      43.247  16.976  22.227  0.00  0.00    -0.022 A 
ATOM      6  C   UNL     1      42.547  18.079  21.843  0.00  0.00    +0.073 A 
ATOM      7  C   UNL     1      42.896  18.789  20.698  0.00  0.00    -0.093 A 
ATOM      8  C   UNL     1      43.963  18.392  19.922  0.00  0.00    +0.157 A 
ATOM     11  C   UNL     1      44.706  17.254  20.296  0.00  0.00    -0.104 A 
ATOM     12  C   UNL     1      45.801  16.818  19.528  0.00  0.00    +0.179 A 
ATOM     15  C   UNL     1      46.508  15.691  19.930  0.00  0.00    -0.109 A 
BRANCH   8   9
ATOM      9  O   UNL     1      44.296  19.092  18.807  0.00  0.00    -0.298 OA
ATOM     10  C   UNL     1      44.483  20.500  18.957  0.00  0.00    +0.245 C 
ENDBRANCH   8   9
BRANCH  12  13
ATOM     13  O   UNL     1      46.164  17.491  18.407  0.00  0.00    -0.475 OA
ATOM     14  H   UNL     1      46.044  16.989  17.591  0.00  0.00    +0.391 HD
ENDBRANCH  12  13
ENDBRANCH  16  15
BRANCH  29  30
ATOM     30  O   UNL     1      46.285  13.618  18.029  0.00  0.00    -0.487 OA
ATOM     31  H   UNL     1      45.718  14.082  17.396  0.00  0.00    +0.396 HD
ENDBRANCH  29  30
TORSDOF 4
ENDMDL
MODEL 9
REMARK VINA RESULT:      -5.3      2.572      7.679
REMARK  Name = ZINC15121588
REMARK  8 active torsions:
REMARK  status: ('A' for Active; 'I' for Inactive)
REMARK    1  A    between atoms: C1_1  and  C2_2
REMARK    2  A    between atoms: C8_8  and  O3_27
REMARK    3  A    between atoms: C10_10  and  O2_26
REMARK    4  A    between atoms: C11_11  and  C12_12
REMARK    5  A    between atoms: C17_17  and  O1_18
REMARK    6  A    between atoms: C18_19  and  C22_25
REMARK    7  A    between atoms: C19_21  and  C21_24
REMARK    8  A    between atoms: O3_27  and  C23_28
REMARK                            x       y       z     vdW  Elec       q    Type
REMARK                         _______ _______ _______ _____ _____    ______ ____
ROOT
ATOM     16  C   UNL     1      47.953  18.069  19.015  0.00  0.00    -0.029 A 
ATOM     17  C   UNL     1      48.703  18.586  20.070  0.00  0.00    +0.079 A 
ATOM     18  C   UNL     1      48.351  19.792  20.634  0.00  0.00    +0.029 A 
ATOM     19  C   UNL     1      47.254  20.501  20.162  0.00  0.00    -0.076 A 
ATOM     20  C   UNL     1      46.502  19.998  19.121  0.00  0.00    -0.154 A 
ATOM     21  C   UNL     1      45.301  20.730  18.581  0.00  0.00    +0.235 C 
ATOM     22  N   UNL     1      45.323  22.138  18.999  0.00  0.00    -0.511 N 
ATOM     23  H   UNL     1      46.106  22.618  18.539  0.00  0.00    +0.432 HD
ATOM     24  H   UNL     1      44.441  22.587  18.728  0.00  0.00    +0.435 HD
ATOM     25  C   UNL     1      45.487  22.226  20.462  0.00  0.00    +0.171 C 
ATOM     26  C   UNL     1      45.235  23.664  20.918  0.00  0.00    +0.094 C 
ATOM     27  C   UNL     1      44.028  20.065  19.105  0.00  0.00    +0.098 C 
ATOM     28  C   UNL     1      46.918  21.818  20.815  0.00  0.00    +0.130 C 
ATOM     29  C   UNL     1      46.850  18.782  18.542  0.00  0.00    +0.142 A 
ENDROOT
BRANCH  16  15
ATOM      1  C   UNL     1      50.201  17.956  17.217  0.00  0.00    +0.093 C 
ATOM      2  C   UNL     1      49.417  16.706  17.522  0.00  0.00    -0.046 A 
ATOM      3  C   UNL     1      49.782  15.529  16.949  0.00  0.00    +0.013 A 
ATOM      4  C   UNL     1      49.054  14.357  17.223  0.00  0.00    +0.008 A 
ATOM      5  C   UNL     1      49.411  13.131  16.635  0.00  0.00    -0.022 A 
ATOM      6  C   UNL     1      48.693  12.009  16.913  0.00  0.00    +0.073 A 
ATOM      7  C   UNL     1      47.600  12.050  17.775  0.00  0.00    -0.093 A 
ATOM      8  C   UNL     1      47.218  13.231  18.371  0.00  0.00    +0.157 A 
ATOM     11  C   UNL     1      47.944  14.409  18.102  0.00  0.00    -0.104 A 
ATOM     12  C   UNL     1      47.584  15.634  18.691  0.00  0.00    +0.179 A 
ATOM     15  C   UNL     1      48.324  16.773  18.400  0.00  0.00    -0.109 A 
BRANCH   8   9
ATOM      9  O   UNL     1      46.151  13.260  19.211  0.00  0.00    -0.298 OA
ATOM     10  C   UNL     1      44.889  12.868  18.670  0.00  0.00    +0.245 C 
ENDBRANCH   8   9
BRANCH  12  13
ATOM     13  O   UNL     1      46.524  15.704  19.535  0.00  0.00    -0.475 OA
ATOM     14  H   UNL     1      46.430  14.935  20.113  0.00  0.00    +0.391 HD
ENDBRANCH  12  13
ENDBRANCH  16  15
BRANCH  29  30
ATOM     30  O   UNL     1      46.112  18.286  17.515  0.00  0.00    -0.487 OA
ATOM     31  H   UNL     1      45.160  18.431  17.609  0.00  0.00    +0.396 HD
ENDBRANCH  29  30
TORSDOF 4
ENDMDL
