MODEL 1
REMARK VINA RESULT:      -6.4      0.000      0.000
REMARK  Name = ZINC03869685
REMARK  6 active torsions:
REMARK  status: ('A' for Active; 'I' for Inactive)
REMARK    1  A    between atoms: C3_3  and  O7_22
REMARK    2  A    between atoms: C4_4  and  O6_21
REMARK    3  A    between atoms: C6_6  and  C7_7
REMARK    4  A    between atoms: C8_8  and  O5_20
REMARK    5  A    between atoms: C11_12  and  O4_19
REMARK    6  A    between atoms: C13_14  and  O3_18
REMARK                            x       y       z     vdW  Elec       q    Type
REMARK                         _______ _______ _______ _____ _____    ______ ____
ROOT
ATOM     11  C   UNL     1      43.881  18.630  20.410  0.00  0.00    +0.135 A 
ATOM     12  C   UNL     1      44.723  19.683  20.603  0.00  0.00    -0.043 A 
ATOM     15  C   UNL     1      44.320  20.983  20.200  0.00  0.00    +0.401 A 
ATOM     16  C   UNL     1      42.989  21.119  19.585  0.00  0.00    -0.269 A 
ATOM     17  C   UNL     1      42.510  22.363  19.157  0.00  0.00    +0.224 A 
ATOM     20  C   UNL     1      41.256  22.449  18.584  0.00  0.00    -0.057 A 
ATOM     21  C   UNL     1      40.475  21.307  18.435  0.00  0.00    +0.200 A 
ATOM     24  C   UNL     1      40.942  20.073  18.856  0.00  0.00    -0.029 A 
ATOM     25  C   UNL     1      42.199  19.966  19.433  0.00  0.00    +0.188 A 
ATOM     26  O   UNL     1      45.048  21.950  20.355  0.00  0.00    -0.448 OA
ATOM     27  O   UNL     1      42.671  18.769  19.843  0.00  0.00    -0.197 OA
ENDROOT
BRANCH  11  10
ATOM      1  C   UNL     1      43.986  16.814  22.107  0.00  0.00    +0.063 A 
ATOM      2  C   UNL     1      44.392  15.556  22.502  0.00  0.00    +0.008 A 
ATOM      3  C   UNL     1      45.129  14.759  21.639  0.00  0.00    +0.103 A 
ATOM      6  C   UNL     1      45.463  15.225  20.367  0.00  0.00    +0.079 A 
ATOM      9  C   UNL     1      45.059  16.483  19.965  0.00  0.00    +0.067 A 
ATOM     10  C   UNL     1      44.315  17.287  20.835  0.00  0.00    -0.045 A 
BRANCH   3   4
ATOM      4  O   UNL     1      45.528  13.522  22.033  0.00  0.00    -0.486 OA
ATOM      5  H   UNL     1      44.842  12.844  21.959  0.00  0.00    +0.392 HD
ENDBRANCH   3   4
BRANCH   6   7
ATOM      7  O   UNL     1      46.186  14.440  19.524  0.00  0.00    -0.484 OA
ATOM      8  H   UNL     1      47.040  14.817  19.271  0.00  0.00    +0.391 HD
ENDBRANCH   6   7
ENDBRANCH  11  10
BRANCH  12  13
ATOM     13  O   UNL     1      45.941  19.491  21.178  0.00  0.00    -0.450 OA
ATOM     14  H   UNL     1      46.671  19.440  20.546  0.00  0.00    +0.408 HD
ENDBRANCH  12  13
BRANCH  17  18
ATOM     18  O   UNL     1      43.272  23.477  19.304  0.00  0.00    -0.473 OA
ATOM     19  H   UNL     1      44.028  23.518  18.702  0.00  0.00    +0.404 HD
ENDBRANCH  17  18
BRANCH  21  22
ATOM     22  O   UNL     1      39.244  21.404  17.870  0.00  0.00    -0.487 OA
ATOM     23  H   UNL     1      38.798  22.245  18.040  0.00  0.00    +0.405 HD
ENDBRANCH  21  22
TORSDOF 6
ENDMDL
MODEL 2
REMARK VINA RESULT:      -6.1      5.036      8.109
REMARK  Name = ZINC03869685
REMARK  6 active torsions:
REMARK  status: ('A' for Active; 'I' for Inactive)
REMARK    1  A    between atoms: C3_3  and  O7_22
REMARK    2  A    between atoms: C4_4  and  O6_21
REMARK    3  A    between atoms: C6_6  and  C7_7
REMARK    4  A    between atoms: C8_8  and  O5_20
REMARK    5  A    between atoms: C11_12  and  O4_19
REMARK    6  A    between atoms: C13_14  and  O3_18
REMARK                            x       y       z     vdW  Elec       q    Type
REMARK                         _______ _______ _______ _____ _____    ______ ____
ROOT
ATOM     11  C   UNL     1      48.204  20.474  19.719  0.00  0.00    +0.135 A 
ATOM     12  C   UNL     1      48.350  19.147  19.988  0.00  0.00    -0.043 A 
ATOM     15  C   UNL     1      49.396  18.419  19.365  0.00  0.00    +0.401 A 
ATOM     16  C   UNL     1      50.279  19.155  18.446  0.00  0.00    -0.269 A 
ATOM     17  C   UNL     1      51.337  18.516  17.786  0.00  0.00    +0.224 A 
ATOM     20  C   UNL     1      52.144  19.242  16.931  0.00  0.00    -0.057 A 
ATOM     21  C   UNL     1      51.906  20.598  16.729  0.00  0.00    +0.200 A 
ATOM     24  C   UNL     1      50.862  21.237  17.377  0.00  0.00    -0.029 A 
ATOM     25  C   UNL     1      50.041  20.525  18.238  0.00  0.00    +0.188 A 
ATOM     26  O   UNL     1      49.556  17.228  19.580  0.00  0.00    -0.448 OA
ATOM     27  O   UNL     1      49.016  21.132  18.874  0.00  0.00    -0.197 OA
ENDROOT
BRANCH  11  10
ATOM      1  C   UNL     1      47.364  21.953  21.535  0.00  0.00    +0.063 A 
ATOM      2  C   UNL     1      46.341  22.647  22.147  0.00  0.00    +0.008 A 
ATOM      3  C   UNL     1      45.060  22.615  21.614  0.00  0.00    +0.103 A 
ATOM      6  C   UNL     1      44.801  21.881  20.457  0.00  0.00    +0.079 A 
ATOM      9  C   UNL     1      45.821  21.183  19.839  0.00  0.00    +0.067 A 
ATOM     10  C   UNL     1      47.112  21.216  20.375  0.00  0.00    -0.045 A 
BRANCH   3   4
ATOM      4  O   UNL     1      44.056  23.299  22.221  0.00  0.00    -0.486 OA
ATOM      5  H   UNL     1      43.376  22.734  22.614  0.00  0.00    +0.392 HD
ENDBRANCH   3   4
BRANCH   6   7
ATOM      7  O   UNL     1      43.544  21.851  19.938  0.00  0.00    -0.484 OA
ATOM      8  H   UNL     1      43.430  22.405  19.154  0.00  0.00    +0.391 HD
ENDBRANCH   6   7
ENDBRANCH  11  10
BRANCH  12  13
ATOM     13  O   UNL     1      47.499  18.524  20.849  0.00  0.00    -0.450 OA
ATOM     14  H   UNL     1      47.778  18.562  21.774  0.00  0.00    +0.408 HD
ENDBRANCH  12  13
BRANCH  17  18
ATOM     18  O   UNL     1      51.568  17.194  17.986  0.00  0.00    -0.473 OA
ATOM     19  H   UNL     1      52.245  17.009  18.652  0.00  0.00    +0.404 HD
ENDBRANCH  17  18
BRANCH  21  22
ATOM     22  O   UNL     1      52.706  21.302  15.885  0.00  0.00    -0.487 OA
ATOM     23  H   UNL     1      53.486  21.682  16.310  0.00  0.00    +0.405 HD
ENDBRANCH  21  22
TORSDOF 6
ENDMDL
MODEL 3
REMARK VINA RESULT:      -6.1      1.197      1.467
REMARK  Name = ZINC03869685
REMARK  6 active torsions:
REMARK  status: ('A' for Active; 'I' for Inactive)
REMARK    1  A    between atoms: C3_3  and  O7_22
REMARK    2  A    between atoms: C4_4  and  O6_21
REMARK    3  A    between atoms: C6_6  and  C7_7
REMARK    4  A    between atoms: C8_8  and  O5_20
REMARK    5  A    between atoms: C11_12  and  O4_19
REMARK    6  A    between atoms: C13_14  and  O3_18
REMARK                            x       y       z     vdW  Elec       q    Type
REMARK                         _______ _______ _______ _____ _____    ______ ____
ROOT
ATOM     11  C   UNL     1      44.714  18.729  19.654  0.00  0.00    +0.135 A 
ATOM     12  C   UNL     1      45.616  19.642  20.108  0.00  0.00    -0.043 A 
ATOM     15  C   UNL     1      45.272  21.019  20.115  0.00  0.00    +0.401 A 
ATOM     16  C   UNL     1      43.934  21.386  19.622  0.00  0.00    -0.269 A 
ATOM     17  C   UNL     1      43.511  22.721  19.593  0.00  0.00    +0.224 A 
ATOM     20  C   UNL     1      42.247  23.024  19.122  0.00  0.00    -0.057 A 
ATOM     21  C   UNL     1      41.404  22.009  18.682  0.00  0.00    +0.200 A 
ATOM     24  C   UNL     1      41.815  20.687  18.707  0.00  0.00    -0.029 A 
ATOM     25  C   UNL     1      43.080  20.363  19.176  0.00  0.00    +0.188 A 
ATOM     26  O   UNL     1      46.055  21.867  20.514  0.00  0.00    -0.448 OA
ATOM     27  O   UNL     1      43.498  19.079  19.202  0.00  0.00    -0.197 OA
ENDROOT
BRANCH  11  10
ATOM      1  C   UNL     1      44.761  16.492  20.743  0.00  0.00    +0.063 A 
ATOM      2  C   UNL     1      45.110  15.158  20.740  0.00  0.00    +0.008 A 
ATOM      3  C   UNL     1      45.786  14.617  19.656  0.00  0.00    +0.103 A 
ATOM      6  C   UNL     1      46.117  15.420  18.564  0.00  0.00    +0.079 A 
ATOM      9  C   UNL     1      45.770  16.757  18.561  0.00  0.00    +0.067 A 
ATOM     10  C   UNL     1      45.087  17.302  19.653  0.00  0.00    -0.045 A 
BRANCH   3   4
ATOM      4  O   UNL     1      46.130  13.303  19.658  0.00  0.00    -0.486 OA
ATOM      5  H   UNL     1      45.995  12.859  18.809  0.00  0.00    +0.392 HD
ENDBRANCH   3   4
BRANCH   6   7
ATOM      7  O   UNL     1      46.780  14.886  17.504  0.00  0.00    -0.484 OA
ATOM      8  H   UNL     1      47.699  15.177  17.428  0.00  0.00    +0.391 HD
ENDBRANCH   6   7
ENDBRANCH  11  10
BRANCH  12  13
ATOM     13  O   UNL     1      46.838  19.239  20.552  0.00  0.00    -0.450 OA
ATOM     14  H   UNL     1      46.933  19.259  21.514  0.00  0.00    +0.408 HD
ENDBRANCH  12  13
BRANCH  17  18
ATOM     18  O   UNL     1      44.335  23.709  20.024  0.00  0.00    -0.473 OA
ATOM     19  H   UNL     1      44.040  24.599  19.785  0.00  0.00    +0.404 HD
ENDBRANCH  17  18
BRANCH  21  22
ATOM     22  O   UNL     1      40.164  22.319  18.221  0.00  0.00    -0.487 OA
ATOM     23  H   UNL     1      39.610  22.782  18.864  0.00  0.00    +0.405 HD
ENDBRANCH  21  22
TORSDOF 6
ENDMDL
MODEL 4
REMARK VINA RESULT:      -5.9      4.561      6.296
REMARK  Name = ZINC03869685
REMARK  6 active torsions:
REMARK  status: ('A' for Active; 'I' for Inactive)
REMARK    1  A    between atoms: C3_3  and  O7_22
REMARK    2  A    between atoms: C4_4  and  O6_21
REMARK    3  A    between atoms: C6_6  and  C7_7
REMARK    4  A    between atoms: C8_8  and  O5_20
REMARK    5  A    between atoms: C11_12  and  O4_19
REMARK    6  A    between atoms: C13_14  and  O3_18
REMARK                            x       y       z     vdW  Elec       q    Type
REMARK                         _______ _______ _______ _____ _____    ______ ____
ROOT
ATOM     11  C   UNL     1      48.182  20.361  19.538  0.00  0.00    +0.135 A 
ATOM     12  C   UNL     1      47.805  19.054  19.602  0.00  0.00    -0.043 A 
ATOM     15  C   UNL     1      46.428  18.727  19.700  0.00  0.00    +0.401 A 
ATOM     16  C   UNL     1      45.468  19.843  19.726  0.00  0.00    -0.269 A 
ATOM     17  C   UNL     1      44.089  19.614  19.821  0.00  0.00    +0.224 A 
ATOM     20  C   UNL     1      43.220  20.688  19.844  0.00  0.00    -0.057 A 
ATOM     21  C   UNL     1      43.713  21.987  19.771  0.00  0.00    +0.200 A 
ATOM     24  C   UNL     1      45.075  22.222  19.677  0.00  0.00    -0.029 A 
ATOM     25  C   UNL     1      45.963  21.157  19.654  0.00  0.00    +0.188 A 
ATOM     26  O   UNL     1      46.053  17.567  19.760  0.00  0.00    -0.448 OA
ATOM     27  O   UNL     1      47.293  21.370  19.568  0.00  0.00    -0.197 OA
ENDROOT
BRANCH  11  10
ATOM      1  C   UNL     1      50.380  20.853  20.595  0.00  0.00    +0.063 A 
ATOM      2  C   UNL     1      51.722  21.154  20.498  0.00  0.00    +0.008 A 
ATOM      3  C   UNL     1      52.319  21.289  19.253  0.00  0.00    +0.103 A 
ATOM      6  C   UNL     1      51.562  21.122  18.092  0.00  0.00    +0.079 A 
ATOM      9  C   UNL     1      50.218  20.821  18.182  0.00  0.00    +0.067 A 
ATOM     10  C   UNL     1      49.617  20.684  19.437  0.00  0.00    -0.045 A 
BRANCH   3   4
ATOM      4  O   UNL     1      53.640  21.587  19.162  0.00  0.00    -0.486 OA
ATOM      5  H   UNL     1      53.867  22.474  19.477  0.00  0.00    +0.392 HD
ENDBRANCH   3   4
BRANCH   6   7
ATOM      7  O   UNL     1      52.150  21.257  16.873  0.00  0.00    -0.484 OA
ATOM      8  H   UNL     1      51.610  21.731  16.227  0.00  0.00    +0.391 HD
ENDBRANCH   6   7
ENDBRANCH  11  10
BRANCH  12  13
ATOM     13  O   UNL     1      48.743  18.068  19.572  0.00  0.00    -0.450 OA
ATOM     14  H   UNL     1      49.618  18.348  19.876  0.00  0.00    +0.408 HD
ENDBRANCH  12  13
BRANCH  17  18
ATOM     18  O   UNL     1      43.610  18.346  19.890  0.00  0.00    -0.473 OA
ATOM     19  H   UNL     1      44.212  17.678  19.533  0.00  0.00    +0.404 HD
ENDBRANCH  17  18
BRANCH  21  22
ATOM     22  O   UNL     1      42.849  23.035  19.795  0.00  0.00    -0.487 OA
ATOM     23  H   UNL     1      43.067  23.737  19.167  0.00  0.00    +0.405 HD
ENDBRANCH  21  22
TORSDOF 6
ENDMDL
MODEL 5
REMARK VINA RESULT:      -5.8      2.257      7.086
REMARK  Name = ZINC03869685
REMARK  6 active torsions:
REMARK  status: ('A' for Active; 'I' for Inactive)
REMARK    1  A    between atoms: C3_3  and  O7_22
REMARK    2  A    between atoms: C4_4  and  O6_21
REMARK    3  A    between atoms: C6_6  and  C7_7
REMARK    4  A    between atoms: C8_8  and  O5_20
REMARK    5  A    between atoms: C11_12  and  O4_19
REMARK    6  A    between atoms: C13_14  and  O3_18
REMARK                            x       y       z     vdW  Elec       q    Type
REMARK                         _______ _______ _______ _____ _____    ______ ____
ROOT
ATOM     11  C   UNL     1      45.228  18.240  19.365  0.00  0.00    +0.135 A 
ATOM     12  C   UNL     1      44.898  17.402  20.386  0.00  0.00    -0.043 A 
ATOM     15  C   UNL     1      45.116  16.007  20.244  0.00  0.00    +0.401 A 
ATOM     16  C   UNL     1      45.697  15.539  18.975  0.00  0.00    -0.269 A 
ATOM     17  C   UNL     1      45.946  14.179  18.747  0.00  0.00    +0.224 A 
ATOM     20  C   UNL     1      46.492  13.780  17.542  0.00  0.00    -0.057 A 
ATOM     21  C   UNL     1      46.793  14.722  16.565  0.00  0.00    +0.200 A 
ATOM     24  C   UNL     1      46.550  16.069  16.782  0.00  0.00    -0.029 A 
ATOM     25  C   UNL     1      46.002  16.489  17.984  0.00  0.00    +0.188 A 
ATOM     26  O   UNL     1      44.831  15.226  21.137  0.00  0.00    -0.448 OA
ATOM     27  O   UNL     1      45.754  17.797  18.210  0.00  0.00    -0.197 OA
ENDROOT
BRANCH  11  10
ATOM      1  C   UNL     1      46.042  20.524  19.927  0.00  0.00    +0.063 A 
ATOM      2  C   UNL     1      45.822  21.877  20.079  0.00  0.00    +0.008 A 
ATOM      3  C   UNL     1      44.564  22.411  19.840  0.00  0.00    +0.103 A 
ATOM      6  C   UNL     1      43.515  21.581  19.444  0.00  0.00    +0.079 A 
ATOM      9  C   UNL     1      43.727  20.225  19.289  0.00  0.00    +0.067 A 
ATOM     10  C   UNL     1      44.996  19.687  19.529  0.00  0.00    -0.045 A 
BRANCH   3   4
ATOM      4  O   UNL     1      44.352  23.743  19.993  0.00  0.00    -0.486 OA
ATOM      5  H   UNL     1      44.438  24.252  19.175  0.00  0.00    +0.392 HD
ENDBRANCH   3   4
BRANCH   6   7
ATOM      7  O   UNL     1      42.282  22.107  19.211  0.00  0.00    -0.484 OA
ATOM      8  H   UNL     1      41.774  21.635  18.538  0.00  0.00    +0.391 HD
ENDBRANCH   6   7
ENDBRANCH  11  10
BRANCH  12  13
ATOM     13  O   UNL     1      44.364  17.899  21.536  0.00  0.00    -0.450 OA
ATOM     14  H   UNL     1      43.813  18.683  21.406  0.00  0.00    +0.408 HD
ENDBRANCH  12  13
BRANCH  17  18
ATOM     18  O   UNL     1      45.653  13.261  19.702  0.00  0.00    -0.473 OA
ATOM     19  H   UNL     1      45.998  12.377  19.517  0.00  0.00    +0.404 HD
ENDBRANCH  17  18
BRANCH  21  22
ATOM     22  O   UNL     1      47.330  14.318  15.384  0.00  0.00    -0.487 OA
ATOM     23  H   UNL     1      46.715  13.832  14.818  0.00  0.00    +0.405 HD
ENDBRANCH  21  22
TORSDOF 6
ENDMDL
MODEL 6
REMARK VINA RESULT:      -5.8      2.552      6.988
REMARK  Name = ZINC03869685
REMARK  6 active torsions:
REMARK  status: ('A' for Active; 'I' for Inactive)
REMARK    1  A    between atoms: C3_3  and  O7_22
REMARK    2  A    between atoms: C4_4  and  O6_21
REMARK    3  A    between atoms: C6_6  and  C7_7
REMARK    4  A    between atoms: C8_8  and  O5_20
REMARK    5  A    between atoms: C11_12  and  O4_19
REMARK    6  A    between atoms: C13_14  and  O3_18
REMARK                            x       y       z     vdW  Elec       q    Type
REMARK                         _______ _______ _______ _____ _____    ______ ____
ROOT
ATOM     11  C   UNL     1      45.459  19.626  20.058  0.00  0.00    +0.135 A 
ATOM     12  C   UNL     1      44.717  18.821  20.867  0.00  0.00    -0.043 A 
ATOM     15  C   UNL     1      44.708  17.420  20.640  0.00  0.00    +0.401 A 
ATOM     16  C   UNL     1      45.517  16.910  19.521  0.00  0.00    -0.269 A 
ATOM     17  C   UNL     1      45.567  15.542  19.223  0.00  0.00    +0.224 A 
ATOM     20  C   UNL     1      46.339  15.104  18.165  0.00  0.00    -0.057 A 
ATOM     21  C   UNL     1      47.061  16.015  17.401  0.00  0.00    +0.200 A 
ATOM     24  C   UNL     1      47.017  17.369  17.689  0.00  0.00    -0.029 A 
ATOM     25  C   UNL     1      46.248  17.829  18.747  0.00  0.00    +0.188 A 
ATOM     26  O   UNL     1      44.053  16.667  21.343  0.00  0.00    -0.448 OA
ATOM     27  O   UNL     1      46.190  19.147  19.037  0.00  0.00    -0.197 OA
ENDROOT
BRANCH  11  10
ATOM      1  C   UNL     1      46.333  21.630  21.248  0.00  0.00    +0.063 A 
ATOM      2  C   UNL     1      46.330  22.989  21.479  0.00  0.00    +0.008 A 
ATOM      3  C   UNL     1      45.459  23.814  20.781  0.00  0.00    +0.103 A 
ATOM      6  C   UNL     1      44.582  23.271  19.842  0.00  0.00    +0.079 A 
ATOM      9  C   UNL     1      44.579  21.910  19.605  0.00  0.00    +0.067 A 
ATOM     10  C   UNL     1      45.457  21.080  20.308  0.00  0.00    -0.045 A 
BRANCH   3   4
ATOM      4  O   UNL     1      45.459  25.152  21.014  0.00  0.00    -0.486 OA
ATOM      5  H   UNL     1      46.220  25.463  21.524  0.00  0.00    +0.392 HD
ENDBRANCH   3   4
BRANCH   6   7
ATOM      7  O   UNL     1      43.729  24.082  19.160  0.00  0.00    -0.484 OA
ATOM      8  H   UNL     1      44.019  25.003  19.110  0.00  0.00    +0.391 HD
ENDBRANCH   6   7
ENDBRANCH  11  10
BRANCH  12  13
ATOM     13  O   UNL     1      43.989  19.355  21.886  0.00  0.00    -0.450 OA
ATOM     14  H   UNL     1      44.043  18.854  22.712  0.00  0.00    +0.408 HD
ENDBRANCH  12  13
BRANCH  17  18
ATOM     18  O   UNL     1      44.863  14.654  19.970  0.00  0.00    -0.473 OA
ATOM     19  H   UNL     1      44.059  15.021  20.363  0.00  0.00    +0.404 HD
ENDBRANCH  17  18
BRANCH  21  22
ATOM     22  O   UNL     1      47.816  15.572  16.363  0.00  0.00    -0.487 OA
ATOM     23  H   UNL     1      48.559  15.012  16.627  0.00  0.00    +0.405 HD
ENDBRANCH  21  22
TORSDOF 6
ENDMDL
MODEL 7
REMARK VINA RESULT:      -5.8      4.801      7.820
REMARK  Name = ZINC03869685
REMARK  6 active torsions:
REMARK  status: ('A' for Active; 'I' for Inactive)
REMARK    1  A    between atoms: C3_3  and  O7_22
REMARK    2  A    between atoms: C4_4  and  O6_21
REMARK    3  A    between atoms: C6_6  and  C7_7
REMARK    4  A    between atoms: C8_8  and  O5_20
REMARK    5  A    between atoms: C11_12  and  O4_19
REMARK    6  A    between atoms: C13_14  and  O3_18
REMARK                            x       y       z     vdW  Elec       q    Type
REMARK                         _______ _______ _______ _____ _____    ______ ____
ROOT
ATOM     11  C   UNL     1      47.683  20.842  19.903  0.00  0.00    +0.135 A 
ATOM     12  C   UNL     1      48.232  20.609  21.127  0.00  0.00    -0.043 A 
ATOM     15  C   UNL     1      49.641  20.494  21.250  0.00  0.00    +0.401 A 
ATOM     16  C   UNL     1      50.442  20.637  20.023  0.00  0.00    -0.269 A 
ATOM     17  C   UNL     1      51.839  20.538  20.051  0.00  0.00    +0.224 A 
ATOM     20  C   UNL     1      52.555  20.678  18.877  0.00  0.00    -0.057 A 
ATOM     21  C   UNL     1      51.891  20.916  17.678  0.00  0.00    +0.200 A 
ATOM     24  C   UNL     1      50.510  21.015  17.642  0.00  0.00    -0.029 A 
ATOM     25  C   UNL     1      49.774  20.877  18.809  0.00  0.00    +0.188 A 
ATOM     26  O   UNL     1      50.169  20.284  22.330  0.00  0.00    -0.448 OA
ATOM     27  O   UNL     1      48.427  20.965  18.790  0.00  0.00    -0.197 OA
ENDROOT
BRANCH  11  10
ATOM      1  C   UNL     1      45.474  19.926  19.213  0.00  0.00    +0.063 A 
ATOM      2  C   UNL     1      44.103  20.037  19.112  0.00  0.00    +0.008 A 
ATOM      3  C   UNL     1      43.458  21.172  19.582  0.00  0.00    +0.103 A 
ATOM      6  C   UNL     1      44.194  22.206  20.161  0.00  0.00    +0.079 A 
ATOM      9  C   UNL     1      45.567  22.102  20.266  0.00  0.00    +0.067 A 
ATOM     10  C   UNL     1      46.217  20.958  19.792  0.00  0.00    -0.045 A 
BRANCH   3   4
ATOM      4  O   UNL     1      42.109  21.277  19.478  0.00  0.00    -0.486 OA
ATOM      5  H   UNL     1      41.716  21.924  20.082  0.00  0.00    +0.392 HD
ENDBRANCH   3   4
BRANCH   6   7
ATOM      7  O   UNL     1      43.559  23.318  20.621  0.00  0.00    -0.484 OA
ATOM      8  H   UNL     1      43.609  24.075  20.022  0.00  0.00    +0.391 HD
ENDBRANCH   6   7
ENDBRANCH  11  10
BRANCH  12  13
ATOM     13  O   UNL     1      47.436  20.487  22.224  0.00  0.00    -0.450 OA
ATOM     14  H   UNL     1      47.244  21.325  22.666  0.00  0.00    +0.408 HD
ENDBRANCH  12  13
BRANCH  17  18
ATOM     18  O   UNL     1      52.485  20.307  21.222  0.00  0.00    -0.473 OA
ATOM     19  H   UNL     1      52.222  20.900  21.939  0.00  0.00    +0.404 HD
ENDBRANCH  17  18
BRANCH  21  22
ATOM     22  O   UNL     1      52.605  21.052  16.530  0.00  0.00    -0.487 OA
ATOM     23  H   UNL     1      53.360  21.652  16.605  0.00  0.00    +0.405 HD
ENDBRANCH  21  22
TORSDOF 6
ENDMDL
MODEL 8
REMARK VINA RESULT:      -5.7      4.134      7.086
REMARK  Name = ZINC03869685
REMARK  6 active torsions:
REMARK  status: ('A' for Active; 'I' for Inactive)
REMARK    1  A    between atoms: C3_3  and  O7_22
REMARK    2  A    between atoms: C4_4  and  O6_21
REMARK    3  A    between atoms: C6_6  and  C7_7
REMARK    4  A    between atoms: C8_8  and  O5_20
REMARK    5  A    between atoms: C11_12  and  O4_19
REMARK    6  A    between atoms: C13_14  and  O3_18
REMARK                            x       y       z     vdW  Elec       q    Type
REMARK                         _______ _______ _______ _____ _____    ______ ____
ROOT
ATOM     11  C   UNL     1      46.621  18.945  18.943  0.00  0.00    +0.135 A 
ATOM     12  C   UNL     1      46.932  17.806  18.265  0.00  0.00    -0.043 A 
ATOM     15  C   UNL     1      48.260  17.605  17.809  0.00  0.00    +0.401 A 
ATOM     16  C   UNL     1      49.244  18.660  18.102  0.00  0.00    -0.269 A 
ATOM     17  C   UNL     1      50.578  18.546  17.690  0.00  0.00    +0.224 A 
ATOM     20  C   UNL     1      51.471  19.558  17.985  0.00  0.00    -0.057 A 
ATOM     21  C   UNL     1      51.046  20.682  18.686  0.00  0.00    +0.200 A 
ATOM     24  C   UNL     1      49.729  20.803  19.097  0.00  0.00    -0.029 A 
ATOM     25  C   UNL     1      48.818  19.797  18.810  0.00  0.00    +0.188 A 
ATOM     26  O   UNL     1      48.576  16.597  17.196  0.00  0.00    -0.448 OA
ATOM     27  O   UNL     1      47.529  19.903  19.199  0.00  0.00    -0.197 OA
ENDROOT
BRANCH  11  10
ATOM      1  C   UNL     1      44.826  18.600  20.632  0.00  0.00    +0.063 A 
ATOM      2  C   UNL     1      43.530  18.783  21.066  0.00  0.00    +0.008 A 
ATOM      3  C   UNL     1      42.630  19.501  20.293  0.00  0.00    +0.103 A 
ATOM      6  C   UNL     1      43.032  20.041  19.071  0.00  0.00    +0.079 A 
ATOM      9  C   UNL     1      44.328  19.862  18.629  0.00  0.00    +0.067 A 
ATOM     10  C   UNL     1      45.236  19.139  19.410  0.00  0.00    -0.045 A 
BRANCH   3   4
ATOM      4  O   UNL     1      41.355  19.677  20.724  0.00  0.00    -0.486 OA
ATOM      5  H   UNL     1      40.965  20.524  20.466  0.00  0.00    +0.392 HD
ENDBRANCH   3   4
BRANCH   6   7
ATOM      7  O   UNL     1      42.146  20.744  18.315  0.00  0.00    -0.484 OA
ATOM      8  H   UNL     1      42.560  21.368  17.703  0.00  0.00    +0.391 HD
ENDBRANCH   6   7
ENDBRANCH  11  10
BRANCH  12  13
ATOM     13  O   UNL     1      45.975  16.868  18.026  0.00  0.00    -0.450 OA
ATOM     14  H   UNL     1      46.297  15.957  18.073  0.00  0.00    +0.408 HD
ENDBRANCH  12  13
BRANCH  17  18
ATOM     18  O   UNL     1      50.991  17.448  17.007  0.00  0.00    -0.473 OA
ATOM     19  H   UNL     1      51.937  17.267  17.088  0.00  0.00    +0.404 HD
ENDBRANCH  17  18
BRANCH  21  22
ATOM     22  O   UNL     1      51.933  21.671  18.970  0.00  0.00    -0.487 OA
ATOM     23  H   UNL     1      52.539  21.875  18.245  0.00  0.00    +0.405 HD
ENDBRANCH  21  22
TORSDOF 6
ENDMDL
MODEL 9
REMARK VINA RESULT:      -5.5      3.814      7.674
REMARK  Name = ZINC03869685
REMARK  6 active torsions:
REMARK  status: ('A' for Active; 'I' for Inactive)
REMARK    1  A    between atoms: C3_3  and  O7_22
REMARK    2  A    between atoms: C4_4  and  O6_21
REMARK    3  A    between atoms: C6_6  and  C7_7
REMARK    4  A    between atoms: C8_8  and  O5_20
REMARK    5  A    between atoms: C11_12  and  O4_19
REMARK    6  A    between atoms: C13_14  and  O3_18
REMARK                            x       y       z     vdW  Elec       q    Type
REMARK                         _______ _______ _______ _____ _____    ______ ____
ROOT
ATOM     11  C   UNL     1      46.803  19.670  19.314  0.00  0.00    +0.135 A 
ATOM     12  C   UNL     1      46.107  18.619  18.800  0.00  0.00    -0.043 A 
ATOM     15  C   UNL     1      46.797  17.608  18.083  0.00  0.00    +0.401 A 
ATOM     16  C   UNL     1      48.254  17.758  17.934  0.00  0.00    -0.269 A 
ATOM     17  C   UNL     1      49.016  16.808  17.241  0.00  0.00    +0.224 A 
ATOM     20  C   UNL     1      50.381  16.985  17.124  0.00  0.00    -0.057 A 
ATOM     21  C   UNL     1      50.993  18.098  17.690  0.00  0.00    +0.200 A 
ATOM     24  C   UNL     1      50.247  19.042  18.377  0.00  0.00    -0.029 A 
ATOM     25  C   UNL     1      48.875  18.882  18.505  0.00  0.00    +0.188 A 
ATOM     26  O   UNL     1      46.206  16.652  17.606  0.00  0.00    -0.448 OA
ATOM     27  O   UNL     1      48.133  19.796  19.166  0.00  0.00    -0.197 OA
ENDROOT
BRANCH  11  10
ATOM      1  C   UNL     1      45.954  20.632  21.447  0.00  0.00    +0.063 A 
ATOM      2  C   UNL     1      45.270  21.608  22.140  0.00  0.00    +0.008 A 
ATOM      3  C   UNL     1      44.694  22.671  21.460  0.00  0.00    +0.103 A 
ATOM      6  C   UNL     1      44.805  22.758  20.072  0.00  0.00    +0.079 A 
ATOM      9  C   UNL     1      45.489  21.784  19.372  0.00  0.00    +0.067 A 
ATOM     10  C   UNL     1      46.070  20.713  20.057  0.00  0.00    -0.045 A 
BRANCH   3   4
ATOM      4  O   UNL     1      44.019  23.629  22.146  0.00  0.00    -0.486 OA
ATOM      5  H   UNL     1      43.471  24.201  21.589  0.00  0.00    +0.392 HD
ENDBRANCH   3   4
BRANCH   6   7
ATOM      7  O   UNL     1      44.238  23.802  19.409  0.00  0.00    -0.484 OA
ATOM      8  H   UNL     1      44.293  24.644  19.881  0.00  0.00    +0.391 HD
ENDBRANCH   6   7
ENDBRANCH  11  10
BRANCH  12  13
ATOM     13  O   UNL     1      44.759  18.539  18.973  0.00  0.00    -0.450 OA
ATOM     14  H   UNL     1      44.249  19.058  18.335  0.00  0.00    +0.408 HD
ENDBRANCH  12  13
BRANCH  17  18
ATOM     18  O   UNL     1      48.417  15.721  16.690  0.00  0.00    -0.473 OA
ATOM     19  H   UNL     1      47.452  15.732  16.750  0.00  0.00    +0.404 HD
ENDBRANCH  17  18
BRANCH  21  22
ATOM     22  O   UNL     1      52.336  18.261  17.568  0.00  0.00    -0.487 OA
ATOM     23  H   UNL     1      52.811  17.452  17.335  0.00  0.00    +0.405 HD
ENDBRANCH  21  22
TORSDOF 6
ENDMDL
