MODEL 1
REMARK VINA RESULT:      -6.9      0.000      0.000
REMARK  Name = ZINC15203856
REMARK  2 active torsions:
REMARK  status: ('A' for Active; 'I' for Inactive)
REMARK    1  A    between atoms: C1_1  and  O1_2
REMARK    2  A    between atoms: O1_2  and  C2_3
REMARK                            x       y       z     vdW  Elec       q    Type
REMARK                         _______ _______ _______ _____ _____    ______ ____
ROOT
ATOM      3  C   UNL     1      45.905  20.561  20.086  0.00  0.00    +0.199 C 
ATOM      4  C   UNL     1      45.812  19.319  20.974  0.00  0.00    +0.076 C 
ATOM      5  C   UNL     1      44.865  18.322  20.308  0.00  0.00    +0.215 C 
ATOM      6  C   UNL     1      43.486  18.916  20.195  0.00  0.00    -0.078 A 
ATOM      7  C   UNL     1      43.305  19.944  19.271  0.00  0.00    +0.052 A 
ATOM      8  C   UNL     1      42.052  20.523  19.183  0.00  0.00    +0.032 A 
ATOM      9  C   UNL     1      41.000  20.079  20.000  0.00  0.00    +0.042 A 
ATOM     10  O   UNL     1      39.896  20.810  19.722  0.00  0.00    -0.304 OA
ATOM     11  C   UNL     1      40.160  21.438  18.450  0.00  0.00    +0.435 C 
ATOM     12  C   UNL     1      41.188  19.050  20.905  0.00  0.00    +0.042 A 
ATOM     13  O   UNL     1      41.599  21.522  18.393  0.00  0.00    -0.303 OA
ATOM     14  C   UNL     1      42.455  18.459  20.991  0.00  0.00    -0.049 A 
ATOM     15  C   UNL     1      42.575  17.332  21.984  0.00  0.00    +0.082 C 
ATOM     16  C   UNL     1      44.025  16.941  22.279  0.00  0.00    +0.326 C 
ATOM     17  C   UNL     1      45.492  17.998  18.974  0.00  0.00    -0.053 C 
ATOM     18  C   UNL     1      45.927  19.066  18.069  0.00  0.00    +0.060 C 
ATOM     19  C   UNL     1      45.665  16.672  18.933  0.00  0.00    -0.010 C 
ATOM     20  C   UNL     1      45.269  16.095  20.223  0.00  0.00    +0.548 C 
ATOM     21  O   UNL     1      45.402  14.926  20.537  0.00  0.00    -0.522 OA
ATOM     22  N   UNL     1      44.742  17.042  21.003  0.00  0.00    -0.601 N 
ATOM     23  C   UNL     1      46.125  20.262  18.638  0.00  0.00    -0.021 C 
ENDROOT
BRANCH   3   2
ATOM      1  C   UNL     1      46.582  22.436  21.418  0.00  0.00    +0.207 C 
ATOM      2  O   UNL     1      46.985  21.373  20.551  0.00  0.00    -0.375 OA
ENDBRANCH   3   2
TORSDOF 1
ENDMDL
MODEL 2
REMARK VINA RESULT:      -6.2      2.494      5.869
REMARK  Name = ZINC15203856
REMARK  2 active torsions:
REMARK  status: ('A' for Active; 'I' for Inactive)
REMARK    1  A    between atoms: C1_1  and  O1_2
REMARK    2  A    between atoms: O1_2  and  C2_3
REMARK                            x       y       z     vdW  Elec       q    Type
REMARK                         _______ _______ _______ _____ _____    ______ ____
ROOT
ATOM      3  C   UNL     1      43.357  19.381  20.929  0.00  0.00    +0.199 C 
ATOM      4  C   UNL     1      44.208  20.438  21.635  0.00  0.00    +0.076 C 
ATOM      5  C   UNL     1      44.995  21.207  20.575  0.00  0.00    +0.215 C 
ATOM      6  C   UNL     1      45.924  20.275  19.844  0.00  0.00    -0.078 A 
ATOM      7  C   UNL     1      45.351  19.351  18.973  0.00  0.00    +0.052 A 
ATOM      8  C   UNL     1      46.190  18.464  18.322  0.00  0.00    +0.032 A 
ATOM      9  C   UNL     1      47.577  18.504  18.537  0.00  0.00    +0.042 A 
ATOM     10  O   UNL     1      48.160  17.535  17.794  0.00  0.00    -0.304 OA
ATOM     11  C   UNL     1      47.172  17.155  16.813  0.00  0.00    +0.435 C 
ATOM     12  C   UNL     1      48.137  19.433  19.395  0.00  0.00    +0.042 A 
ATOM     13  O   UNL     1      45.913  17.477  17.440  0.00  0.00    -0.303 OA
ATOM     14  C   UNL     1      47.288  20.335  20.050  0.00  0.00    -0.049 A 
ATOM     15  C   UNL     1      47.974  21.329  20.951  0.00  0.00    +0.082 C 
ATOM     16  C   UNL     1      47.008  22.066  21.881  0.00  0.00    +0.326 C 
ATOM     17  C   UNL     1      43.957  21.842  19.682  0.00  0.00    -0.053 C 
ATOM     18  C   UNL     1      42.863  21.048  19.117  0.00  0.00    +0.060 C 
ATOM     19  C   UNL     1      44.187  23.161  19.690  0.00  0.00    -0.010 C 
ATOM     20  C   UNL     1      45.278  23.453  20.626  0.00  0.00    +0.548 C 
ATOM     21  O   UNL     1      45.657  24.569  20.934  0.00  0.00    -0.522 OA
ATOM     22  N   UNL     1      45.795  22.315  21.094  0.00  0.00    -0.601 N 
ATOM     23  C   UNL     1      42.601  19.894  19.746  0.00  0.00    -0.021 C 
ENDROOT
BRANCH   3   2
ATOM      1  C   UNL     1      41.082  18.773  21.377  0.00  0.00    +0.207 C 
ATOM      2  O   UNL     1      42.422  18.849  21.870  0.00  0.00    -0.375 OA
ENDBRANCH   3   2
TORSDOF 1
ENDMDL
MODEL 3
REMARK VINA RESULT:      -6.0      4.902      6.818
REMARK  Name = ZINC15203856
REMARK  2 active torsions:
REMARK  status: ('A' for Active; 'I' for Inactive)
REMARK    1  A    between atoms: C1_1  and  O1_2
REMARK    2  A    between atoms: O1_2  and  C2_3
REMARK                            x       y       z     vdW  Elec       q    Type
REMARK                         _______ _______ _______ _____ _____    ______ ____
ROOT
ATOM      3  C   UNL     1      51.715  19.767  20.891  0.00  0.00    +0.199 C 
ATOM      4  C   UNL     1      51.747  18.703  19.792  0.00  0.00    +0.076 C 
ATOM      5  C   UNL     1      51.000  19.245  18.575  0.00  0.00    +0.215 C 
ATOM      6  C   UNL     1      49.560  19.506  18.927  0.00  0.00    -0.078 A 
ATOM      7  C   UNL     1      49.290  20.583  19.769  0.00  0.00    +0.052 A 
ATOM      8  C   UNL     1      47.974  20.812  20.129  0.00  0.00    +0.032 A 
ATOM      9  C   UNL     1      46.948  19.980  19.653  0.00  0.00    +0.042 A 
ATOM     10  O   UNL     1      45.769  20.413  20.157  0.00  0.00    -0.304 OA
ATOM     11  C   UNL     1      46.019  21.754  20.626  0.00  0.00    +0.435 C 
ATOM     12  C   UNL     1      47.226  18.921  18.809  0.00  0.00    +0.042 A 
ATOM     13  O   UNL     1      47.432  21.765  20.920  0.00  0.00    -0.303 OA
ATOM     14  C   UNL     1      48.558  18.692  18.438  0.00  0.00    -0.049 A 
ATOM     15  C   UNL     1      48.777  17.533  17.501  0.00  0.00    +0.082 C 
ATOM     16  C   UNL     1      50.246  17.121  17.385  0.00  0.00    +0.326 C 
ATOM     17  C   UNL     1      51.752  20.487  18.161  0.00  0.00    -0.053 C 
ATOM     18  C   UNL     1      52.084  21.527  19.138  0.00  0.00    +0.060 C 
ATOM     19  C   UNL     1      52.118  20.316  16.885  0.00  0.00    -0.010 C 
ATOM     20  C   UNL     1      51.729  18.970  16.449  0.00  0.00    +0.548 C 
ATOM     21  O   UNL     1      52.010  18.474  15.373  0.00  0.00    -0.522 OA
ATOM     22  N   UNL     1      51.021  18.367  17.407  0.00  0.00    -0.601 N 
ATOM     23  C   UNL     1      52.068  21.142  20.421  0.00  0.00    -0.021 C 
ENDROOT
BRANCH   3   2
ATOM      1  C   UNL     1      52.873  17.981  21.993  0.00  0.00    +0.207 C 
ATOM      2  O   UNL     1      52.633  19.389  21.918  0.00  0.00    -0.375 OA
ENDBRANCH   3   2
TORSDOF 1
ENDMDL
MODEL 4
REMARK VINA RESULT:      -5.6      3.128      6.301
REMARK  Name = ZINC15203856
REMARK  2 active torsions:
REMARK  status: ('A' for Active; 'I' for Inactive)
REMARK    1  A    between atoms: C1_1  and  O1_2
REMARK    2  A    between atoms: O1_2  and  C2_3
REMARK                            x       y       z     vdW  Elec       q    Type
REMARK                         _______ _______ _______ _____ _____    ______ ____
ROOT
ATOM      3  C   UNL     1      46.469  20.862  18.921  0.00  0.00    +0.199 C 
ATOM      4  C   UNL     1      45.890  19.547  18.397  0.00  0.00    +0.076 C 
ATOM      5  C   UNL     1      46.710  18.396  18.978  0.00  0.00    +0.215 C 
ATOM      6  C   UNL     1      48.139  18.493  18.514  0.00  0.00    -0.078 A 
ATOM      7  C   UNL     1      48.917  19.521  19.042  0.00  0.00    +0.052 A 
ATOM      8  C   UNL     1      50.221  19.643  18.597  0.00  0.00    +0.032 A 
ATOM      9  C   UNL     1      50.736  18.752  17.643  0.00  0.00    +0.042 A 
ATOM     10  O   UNL     1      52.018  19.094  17.377  0.00  0.00    -0.304 OA
ATOM     11  C   UNL     1      52.421  19.954  18.462  0.00  0.00    +0.435 C 
ATOM     12  C   UNL     1      49.959  17.727  17.133  0.00  0.00    +0.042 A 
ATOM     13  O   UNL     1      51.183  20.533  18.929  0.00  0.00    -0.303 OA
ATOM     14  C   UNL     1      48.640  17.599  17.589  0.00  0.00    -0.049 A 
ATOM     15  C   UNL     1      47.864  16.448  17.003  0.00  0.00    +0.082 C 
ATOM     16  C   UNL     1      46.360  16.537  17.270  0.00  0.00    +0.326 C 
ATOM     17  C   UNL     1      46.556  18.507  20.476  0.00  0.00    -0.053 C 
ATOM     18  C   UNL     1      46.790  19.780  21.164  0.00  0.00    +0.060 C 
ATOM     19  C   UNL     1      46.060  17.341  20.906  0.00  0.00    -0.010 C 
ATOM     20  C   UNL     1      45.783  16.480  19.751  0.00  0.00    +0.548 C 
ATOM     21  O   UNL     1      45.234  15.395  19.803  0.00  0.00    -0.522 OA
ATOM     22  N   UNL     1      46.219  17.064  18.632  0.00  0.00    -0.601 N 
ATOM     23  C   UNL     1      46.727  20.874  20.394  0.00  0.00    -0.021 C 
ENDROOT
BRANCH   3   2
ATOM      1  C   UNL     1      44.743  22.325  19.716  0.00  0.00    +0.207 C 
ATOM      2  O   UNL     1      45.555  21.917  18.612  0.00  0.00    -0.375 OA
ENDBRANCH   3   2
TORSDOF 1
ENDMDL
MODEL 5
REMARK VINA RESULT:      -5.5      3.622      7.068
REMARK  Name = ZINC15203856
REMARK  2 active torsions:
REMARK  status: ('A' for Active; 'I' for Inactive)
REMARK    1  A    between atoms: C1_1  and  O1_2
REMARK    2  A    between atoms: O1_2  and  C2_3
REMARK                            x       y       z     vdW  Elec       q    Type
REMARK                         _______ _______ _______ _____ _____    ______ ____
ROOT
ATOM      3  C   UNL     1      48.269  16.149  19.018  0.00  0.00    +0.199 C 
ATOM      4  C   UNL     1      47.656  17.171  19.977  0.00  0.00    +0.076 C 
ATOM      5  C   UNL     1      47.400  18.463  19.202  0.00  0.00    +0.215 C 
ATOM      6  C   UNL     1      48.700  19.026  18.693  0.00  0.00    -0.078 A 
ATOM      7  C   UNL     1      49.331  18.343  17.655  0.00  0.00    +0.052 A 
ATOM      8  C   UNL     1      50.545  18.829  17.202  0.00  0.00    +0.032 A 
ATOM      9  C   UNL     1      51.114  19.978  17.775  0.00  0.00    +0.042 A 
ATOM     10  O   UNL     1      52.292  20.231  17.161  0.00  0.00    -0.304 OA
ATOM     11  C   UNL     1      52.262  19.469  15.937  0.00  0.00    +0.435 C 
ATOM     12  C   UNL     1      50.473  20.654  18.797  0.00  0.00    +0.042 A 
ATOM     13  O   UNL     1      51.366  18.375  16.228  0.00  0.00    -0.303 OA
ATOM     14  C   UNL     1      49.241  20.166  19.252  0.00  0.00    -0.049 A 
ATOM     15  C   UNL     1      48.596  20.968  20.353  0.00  0.00    +0.082 C 
ATOM     16  C   UNL     1      47.439  20.234  21.034  0.00  0.00    +0.326 C 
ATOM     17  C   UNL     1      46.435  18.090  18.103  0.00  0.00    -0.053 C 
ATOM     18  C   UNL     1      46.695  16.942  17.230  0.00  0.00    +0.060 C 
ATOM     19  C   UNL     1      45.362  18.879  18.240  0.00  0.00    -0.010 C 
ATOM     20  C   UNL     1      45.521  19.703  19.444  0.00  0.00    +0.548 C 
ATOM     21  O   UNL     1      44.673  20.449  19.898  0.00  0.00    -0.522 OA
ATOM     22  N   UNL     1      46.732  19.512  19.971  0.00  0.00    -0.601 N 
ATOM     23  C   UNL     1      47.561  16.038  17.707  0.00  0.00    -0.021 C 
ENDROOT
BRANCH   3   2
ATOM      1  C   UNL     1      46.962  14.450  20.092  0.00  0.00    +0.207 C 
ATOM      2  O   UNL     1      48.257  14.867  19.651  0.00  0.00    -0.375 OA
ENDBRANCH   3   2
TORSDOF 1
ENDMDL
MODEL 6
REMARK VINA RESULT:      -5.4      4.849      6.793
REMARK  Name = ZINC15203856
REMARK  2 active torsions:
REMARK  status: ('A' for Active; 'I' for Inactive)
REMARK    1  A    between atoms: C1_1  and  O1_2
REMARK    2  A    between atoms: O1_2  and  C2_3
REMARK                            x       y       z     vdW  Elec       q    Type
REMARK                         _______ _______ _______ _____ _____    ______ ____
ROOT
ATOM      3  C   UNL     1      51.054  20.579  17.604  0.00  0.00    +0.199 C 
ATOM      4  C   UNL     1      51.842  20.830  18.891  0.00  0.00    +0.076 C 
ATOM      5  C   UNL     1      51.206  20.008  20.011  0.00  0.00    +0.215 C 
ATOM      6  C   UNL     1      49.787  20.458  20.239  0.00  0.00    -0.078 A 
ATOM      7  C   UNL     1      48.848  20.140  19.260  0.00  0.00    +0.052 A 
ATOM      8  C   UNL     1      47.548  20.578  19.440  0.00  0.00    +0.032 A 
ATOM      9  C   UNL     1      47.195  21.317  20.580  0.00  0.00    +0.042 A 
ATOM     10  O   UNL     1      45.880  21.626  20.507  0.00  0.00    -0.304 OA
ATOM     11  C   UNL     1      45.329  20.735  19.515  0.00  0.00    +0.435 C 
ATOM     12  C   UNL     1      48.133  21.617  21.552  0.00  0.00    +0.042 A 
ATOM     13  O   UNL     1      46.452  20.421  18.665  0.00  0.00    -0.303 OA
ATOM     14  C   UNL     1      49.448  21.168  21.373  0.00  0.00    -0.049 A 
ATOM     15  C   UNL     1      50.405  21.516  22.484  0.00  0.00    +0.082 C 
ATOM     16  C   UNL     1      51.872  21.300  22.105  0.00  0.00    +0.326 C 
ATOM     17  C   UNL     1      51.316  18.569  19.569  0.00  0.00    -0.053 C 
ATOM     18  C   UNL     1      50.874  18.156  18.235  0.00  0.00    +0.060 C 
ATOM     19  C   UNL     1      51.984  17.915  20.528  0.00  0.00    -0.010 C 
ATOM     20  C   UNL     1      52.412  18.872  21.554  0.00  0.00    +0.548 C 
ATOM     21  O   UNL     1      53.125  18.606  22.505  0.00  0.00    -0.522 OA
ATOM     22  N   UNL     1      51.906  20.079  21.292  0.00  0.00    -0.601 N 
ATOM     23  C   UNL     1      50.776  19.137  17.328  0.00  0.00    -0.021 C 
ENDROOT
BRANCH   3   2
ATOM      1  C   UNL     1      52.209  20.138  15.550  0.00  0.00    +0.207 C 
ATOM      2  O   UNL     1      51.795  21.117  16.506  0.00  0.00    -0.375 OA
ENDBRANCH   3   2
TORSDOF 1
ENDMDL
MODEL 7
REMARK VINA RESULT:      -5.4      3.981      6.422
REMARK  Name = ZINC15203856
REMARK  2 active torsions:
REMARK  status: ('A' for Active; 'I' for Inactive)
REMARK    1  A    between atoms: C1_1  and  O1_2
REMARK    2  A    between atoms: O1_2  and  C2_3
REMARK                            x       y       z     vdW  Elec       q    Type
REMARK                         _______ _______ _______ _____ _____    ______ ____
ROOT
ATOM      3  C   UNL     1      50.682  20.092  18.002  0.00  0.00    +0.199 C 
ATOM      4  C   UNL     1      49.548  20.981  18.517  0.00  0.00    +0.076 C 
ATOM      5  C   UNL     1      48.686  20.155  19.471  0.00  0.00    +0.215 C 
ATOM      6  C   UNL     1      48.070  18.994  18.736  0.00  0.00    -0.078 A 
ATOM      7  C   UNL     1      48.917  17.956  18.352  0.00  0.00    +0.052 A 
ATOM      8  C   UNL     1      48.370  16.900  17.644  0.00  0.00    +0.032 A 
ATOM      9  C   UNL     1      47.001  16.883  17.330  0.00  0.00    +0.042 A 
ATOM     10  O   UNL     1      46.729  15.755  16.634  0.00  0.00    -0.304 OA
ATOM     11  C   UNL     1      47.854  14.881  16.862  0.00  0.00    +0.435 C 
ATOM     12  C   UNL     1      46.168  17.914  17.727  0.00  0.00    +0.042 A 
ATOM     13  O   UNL     1      48.945  15.781  17.150  0.00  0.00    -0.303 OA
ATOM     14  C   UNL     1      46.720  18.980  18.449  0.00  0.00    -0.049 A 
ATOM     15  C   UNL     1      45.745  20.052  18.863  0.00  0.00    +0.082 C 
ATOM     16  C   UNL     1      46.429  21.331  19.351  0.00  0.00    +0.326 C 
ATOM     17  C   UNL     1      49.610  19.736  20.590  0.00  0.00    -0.053 C 
ATOM     18  C   UNL     1      50.904  19.112  20.303  0.00  0.00    +0.060 C 
ATOM     19  C   UNL     1      49.069  20.180  21.730  0.00  0.00    -0.010 C 
ATOM     20  C   UNL     1      47.869  20.965  21.421  0.00  0.00    +0.548 C 
ATOM     21  O   UNL     1      47.210  21.587  22.234  0.00  0.00    -0.522 OA
ATOM     22  N   UNL     1      47.605  20.898  20.114  0.00  0.00    -0.601 N 
ATOM     23  C   UNL     1      51.384  19.316  19.069  0.00  0.00    -0.021 C 
ENDROOT
BRANCH   3   2
ATOM      1  C   UNL     1      52.162  20.349  16.133  0.00  0.00    +0.207 C 
ATOM      2  O   UNL     1      51.640  20.918  17.336  0.00  0.00    -0.375 OA
ENDBRANCH   3   2
TORSDOF 1
ENDMDL
MODEL 8
REMARK VINA RESULT:      -5.3      4.719      6.928
REMARK  Name = ZINC15203856
REMARK  2 active torsions:
REMARK  status: ('A' for Active; 'I' for Inactive)
REMARK    1  A    between atoms: C1_1  and  O1_2
REMARK    2  A    between atoms: O1_2  and  C2_3
REMARK                            x       y       z     vdW  Elec       q    Type
REMARK                         _______ _______ _______ _____ _____    ______ ____
ROOT
ATOM      3  C   UNL     1      50.567  19.158  21.088  0.00  0.00    +0.199 C 
ATOM      4  C   UNL     1      51.463  18.638  19.962  0.00  0.00    +0.076 C 
ATOM      5  C   UNL     1      50.741  18.862  18.633  0.00  0.00    +0.215 C 
ATOM      6  C   UNL     1      49.456  18.078  18.605  0.00  0.00    -0.078 A 
ATOM      7  C   UNL     1      48.418  18.518  19.423  0.00  0.00    +0.052 A 
ATOM      8  C   UNL     1      47.244  17.786  19.434  0.00  0.00    +0.032 A 
ATOM      9  C   UNL     1      47.112  16.636  18.639  0.00  0.00    +0.042 A 
ATOM     10  O   UNL     1      45.883  16.108  18.840  0.00  0.00    -0.304 OA
ATOM     11  C   UNL     1      45.109  17.156  19.459  0.00  0.00    +0.435 C 
ATOM     12  C   UNL     1      48.145  16.214  17.822  0.00  0.00    +0.042 A 
ATOM     13  O   UNL     1      46.096  17.975  20.122  0.00  0.00    -0.303 OA
ATOM     14  C   UNL     1      49.332  16.959  17.806  0.00  0.00    -0.049 A 
ATOM     15  C   UNL     1      50.401  16.448  16.876  0.00  0.00    +0.082 C 
ATOM     16  C   UNL     1      51.771  17.082  17.127  0.00  0.00    +0.326 C 
ATOM     17  C   UNL     1      50.536  20.354  18.531  0.00  0.00    -0.053 C 
ATOM     18  C   UNL     1      49.944  21.110  19.638  0.00  0.00    +0.060 C 
ATOM     19  C   UNL     1      51.114  20.751  17.390  0.00  0.00    -0.010 C 
ATOM     20  C   UNL     1      51.783  19.605  16.765  0.00  0.00    +0.548 C 
ATOM     21  O   UNL     1      52.482  19.660  15.770  0.00  0.00    -0.522 OA
ATOM     22  N   UNL     1      51.514  18.491  17.450  0.00  0.00    -0.601 N 
ATOM     23  C   UNL     1      49.991  20.514  20.836  0.00  0.00    -0.021 C 
ENDROOT
BRANCH   3   2
ATOM      1  C   UNL     1      52.674  19.677  22.109  0.00  0.00    +0.207 C 
ATOM      2  O   UNL     1      51.336  19.208  22.293  0.00  0.00    -0.375 OA
ENDBRANCH   3   2
TORSDOF 1
ENDMDL
MODEL 9
REMARK VINA RESULT:      -5.3      1.732      4.322
REMARK  Name = ZINC15203856
REMARK  2 active torsions:
REMARK  status: ('A' for Active; 'I' for Inactive)
REMARK    1  A    between atoms: C1_1  and  O1_2
REMARK    2  A    between atoms: O1_2  and  C2_3
REMARK                            x       y       z     vdW  Elec       q    Type
REMARK                         _______ _______ _______ _____ _____    ______ ____
ROOT
ATOM      3  C   UNL     1      45.341  16.305  19.481  0.00  0.00    +0.199 C 
ATOM      4  C   UNL     1      46.588  17.188  19.401  0.00  0.00    +0.076 C 
ATOM      5  C   UNL     1      46.409  18.361  20.362  0.00  0.00    +0.215 C 
ATOM      6  C   UNL     1      45.224  19.193  19.947  0.00  0.00    -0.078 A 
ATOM      7  C   UNL     1      43.957  18.643  20.134  0.00  0.00    +0.052 A 
ATOM      8  C   UNL     1      42.862  19.381  19.723  0.00  0.00    +0.032 A 
ATOM      9  C   UNL     1      43.032  20.647  19.140  0.00  0.00    +0.042 A 
ATOM     10  O   UNL     1      41.814  21.147  18.825  0.00  0.00    -0.304 OA
ATOM     11  C   UNL     1      40.868  20.360  19.578  0.00  0.00    +0.435 C 
ATOM     12  C   UNL     1      44.293  21.188  18.970  0.00  0.00    +0.042 A 
ATOM     13  O   UNL     1      41.541  19.099  19.778  0.00  0.00    -0.303 OA
ATOM     14  C   UNL     1      45.402  20.444  19.392  0.00  0.00    -0.049 A 
ATOM     15  C   UNL     1      46.739  21.109  19.192  0.00  0.00    +0.082 C 
ATOM     16  C   UNL     1      47.920  20.149  19.356  0.00  0.00    +0.326 C 
ATOM     17  C   UNL     1      46.258  17.742  21.731  0.00  0.00    -0.053 C 
ATOM     18  C   UNL     1      45.300  16.659  21.966  0.00  0.00    +0.060 C 
ATOM     19  C   UNL     1      47.217  18.266  22.505  0.00  0.00    -0.010 C 
ATOM     20  C   UNL     1      48.068  19.141  21.691  0.00  0.00    +0.548 C 
ATOM     21  O   UNL     1      49.086  19.685  22.079  0.00  0.00    -0.522 OA
ATOM     22  N   UNL     1      47.564  19.251  20.460  0.00  0.00    -0.601 N 
ATOM     23  C   UNL     1      44.900  15.994  20.874  0.00  0.00    -0.021 C 
ENDROOT
BRANCH   3   2
ATOM      1  C   UNL     1      45.265  13.910  19.557  0.00  0.00    +0.207 C 
ATOM      2  O   UNL     1      45.610  15.076  18.804  0.00  0.00    -0.375 OA
ENDBRANCH   3   2
TORSDOF 1
ENDMDL
