MODEL 1
REMARK VINA RESULT:      -6.3      0.000      0.000
REMARK  Name = ZINC95486283
REMARK  11 active torsions:
REMARK  status: ('A' for Active; 'I' for Inactive)
REMARK    1  A    between atoms: C1_1  and  C2_2
REMARK    2  A    between atoms: C3_3  and  O8_27
REMARK    3  A    between atoms: C4_4  and  C19_26
REMARK    4  A    between atoms: C7_7  and  O1_8
REMARK    5  A    between atoms: C9_11  and  O7_24
REMARK    6  A    between atoms: C10_12  and  O4_14
REMARK    7  A    between atoms: O4_14  and  C11_15
REMARK    8  A    between atoms: C14_18  and  O6_23
REMARK    9  A    between atoms: C15_19  and  O5_21
REMARK   10  A    between atoms: O5_21  and  C17_22
REMARK   11  A    between atoms: O7_24  and  C18_25
REMARK                            x       y       z     vdW  Elec       q    Type
REMARK                         _______ _______ _______ _____ _____    ______ ____
ROOT
ATOM      1  C   UNL     1      40.794  21.865  18.533  0.00  0.00    +0.121 C 
ATOM      2  C   UNL     1      42.184  21.749  19.105  0.00  0.00    -0.161 A 
ATOM      3  C   UNL     1      42.967  22.888  19.264  0.00  0.00    +0.187 A 
ATOM      6  C   UNL     1      44.246  22.799  19.788  0.00  0.00    -0.136 A 
ATOM      7  C   UNL     1      45.082  24.043  19.951  0.00  0.00    +0.122 C 
ATOM      8  C   UNL     1      44.759  21.566  20.161  0.00  0.00    +0.182 A 
ATOM      9  C   UNL     1      43.970  20.413  20.003  0.00  0.00    -0.247 A 
ATOM     10  C   UNL     1      44.535  19.114  20.406  0.00  0.00    +0.442 A 
ATOM     11  C   UNL     1      45.848  19.112  20.932  0.00  0.00    -0.079 A 
ATOM     14  C   UNL     1      46.528  20.284  21.044  0.00  0.00    +0.227 A 
ATOM     26  O   UNL     1      43.896  18.081  20.291  0.00  0.00    -0.427 OA
ATOM     27  O   UNL     1      46.003  21.460  20.672  0.00  0.00    -0.228 OA
ATOM     28  C   UNL     1      42.675  20.511  19.477  0.00  0.00    +0.213 A 
ENDROOT
BRANCH   3   4
ATOM      4  O   UNL     1      42.472  24.099  18.900  0.00  0.00    -0.480 OA
ATOM      5  H   UNL     1      42.551  24.778  19.585  0.00  0.00    +0.402 HD
ENDBRANCH   3   4
BRANCH  11  12
ATOM     12  O   UNL     1      46.428  17.943  21.324  0.00  0.00    -0.285 OA
ATOM     13  C   UNL     1      47.095  17.179  20.317  0.00  0.00    +0.258 C 
ENDBRANCH  11  12
BRANCH  28  29
ATOM     29  O   UNL     1      41.911  19.399  19.330  0.00  0.00    -0.468 OA
ATOM     30  H   UNL     1      41.465  19.119  20.140  0.00  0.00    +0.402 HD
ENDBRANCH  28  29
BRANCH  14  15
ATOM     15  O   UNL     1      47.782  20.262  21.548  0.00  0.00    -0.207 OA
BRANCH  15  16
ATOM     16  C   UNL     1      48.815  20.519  20.702  0.00  0.00    +0.084 A 
ATOM     17  C   UNL     1      48.580  20.651  19.341  0.00  0.00    +0.005 A 
ATOM     18  C   UNL     1      49.628  20.912  18.479  0.00  0.00    +0.056 A 
ATOM     19  C   UNL     1      50.917  21.041  18.973  0.00  0.00    +0.091 A 
ATOM     22  C   UNL     1      51.155  20.909  20.337  0.00  0.00    +0.118 A 
ATOM     25  C   UNL     1      50.102  20.654  21.200  0.00  0.00    -0.045 A 
BRANCH  19  20
ATOM     20  O   UNL     1      51.948  21.297  18.123  0.00  0.00    -0.483 OA
ATOM     21  H   UNL     1      52.816  21.051  18.473  0.00  0.00    +0.393 HD
ENDBRANCH  19  20
BRANCH  22  23
ATOM     23  O   UNL     1      52.418  21.036  20.823  0.00  0.00    -0.300 OA
ATOM     24  C   UNL     1      52.551  21.333  22.215  0.00  0.00    +0.245 C 
ENDBRANCH  22  23
ENDBRANCH  15  16
ENDBRANCH  14  15
TORSDOF 7
ENDMDL
MODEL 2
REMARK VINA RESULT:      -6.1      5.639      8.023
REMARK  Name = ZINC95486283
REMARK  11 active torsions:
REMARK  status: ('A' for Active; 'I' for Inactive)
REMARK    1  A    between atoms: C1_1  and  C2_2
REMARK    2  A    between atoms: C3_3  and  O8_27
REMARK    3  A    between atoms: C4_4  and  C19_26
REMARK    4  A    between atoms: C7_7  and  O1_8
REMARK    5  A    between atoms: C9_11  and  O7_24
REMARK    6  A    between atoms: C10_12  and  O4_14
REMARK    7  A    between atoms: O4_14  and  C11_15
REMARK    8  A    between atoms: C14_18  and  O6_23
REMARK    9  A    between atoms: C15_19  and  O5_21
REMARK   10  A    between atoms: O5_21  and  C17_22
REMARK   11  A    between atoms: O7_24  and  C18_25
REMARK                            x       y       z     vdW  Elec       q    Type
REMARK                         _______ _______ _______ _____ _____    ______ ____
ROOT
ATOM      1  C   UNL     1      46.969  11.472  14.662  0.00  0.00    +0.121 C 
ATOM      2  C   UNL     1      47.997  12.425  15.217  0.00  0.00    -0.161 A 
ATOM      3  C   UNL     1      49.319  12.344  14.793  0.00  0.00    +0.187 A 
ATOM      6  C   UNL     1      50.276  13.212  15.293  0.00  0.00    -0.136 A 
ATOM      7  C   UNL     1      51.705  13.109  14.824  0.00  0.00    +0.122 C 
ATOM      8  C   UNL     1      49.920  14.173  16.227  0.00  0.00    +0.182 A 
ATOM      9  C   UNL     1      48.585  14.257  16.657  0.00  0.00    -0.247 A 
ATOM     10  C   UNL     1      48.231  15.287  17.649  0.00  0.00    +0.442 A 
ATOM     11  C   UNL     1      49.268  16.132  18.108  0.00  0.00    -0.079 A 
ATOM     14  C   UNL     1      50.529  15.967  17.628  0.00  0.00    +0.227 A 
ATOM     26  O   UNL     1      47.087  15.406  18.058  0.00  0.00    -0.427 OA
ATOM     27  O   UNL     1      50.840  15.026  16.725  0.00  0.00    -0.228 OA
ATOM     28  C   UNL     1      47.622  13.381  16.143  0.00  0.00    +0.213 A 
ENDROOT
BRANCH   3   4
ATOM      4  O   UNL     1      49.675  11.404  13.879  0.00  0.00    -0.480 OA
ATOM      5  H   UNL     1      50.625  11.227  13.847  0.00  0.00    +0.402 HD
ENDBRANCH   3   4
BRANCH  11  12
ATOM     12  O   UNL     1      49.005  17.105  19.026  0.00  0.00    -0.285 OA
ATOM     13  C   UNL     1      49.179  16.763  20.402  0.00  0.00    +0.258 C 
ENDBRANCH  11  12
BRANCH  28  29
ATOM     29  O   UNL     1      46.331  13.466  16.553  0.00  0.00    -0.468 OA
ATOM     30  H   UNL     1      46.171  13.089  17.429  0.00  0.00    +0.402 HD
ENDBRANCH  28  29
BRANCH  14  15
ATOM     15  O   UNL     1      51.507  16.783  18.079  0.00  0.00    -0.207 OA
BRANCH  15  16
ATOM     16  C   UNL     1      51.599  18.028  17.540  0.00  0.00    +0.084 A 
ATOM     17  C   UNL     1      51.710  18.182  16.166  0.00  0.00    +0.005 A 
ATOM     18  C   UNL     1      51.804  19.447  15.617  0.00  0.00    +0.056 A 
ATOM     19  C   UNL     1      51.788  20.564  16.437  0.00  0.00    +0.091 A 
ATOM     22  C   UNL     1      51.677  20.411  17.815  0.00  0.00    +0.118 A 
ATOM     25  C   UNL     1      51.577  19.144  18.365  0.00  0.00    -0.045 A 
BRANCH  19  20
ATOM     20  O   UNL     1      51.882  21.808  15.895  0.00  0.00    -0.483 OA
ATOM     21  H   UNL     1      52.742  22.231  16.025  0.00  0.00    +0.393 HD
ENDBRANCH  19  20
BRANCH  22  23
ATOM     23  O   UNL     1      51.661  21.505  18.622  0.00  0.00    -0.300 OA
ATOM     24  C   UNL     1      52.482  21.463  19.791  0.00  0.00    +0.245 C 
ENDBRANCH  22  23
ENDBRANCH  15  16
ENDBRANCH  14  15
TORSDOF 7
ENDMDL
MODEL 3
REMARK VINA RESULT:      -6.1      2.306      6.961
REMARK  Name = ZINC95486283
REMARK  11 active torsions:
REMARK  status: ('A' for Active; 'I' for Inactive)
REMARK    1  A    between atoms: C1_1  and  C2_2
REMARK    2  A    between atoms: C3_3  and  O8_27
REMARK    3  A    between atoms: C4_4  and  C19_26
REMARK    4  A    between atoms: C7_7  and  O1_8
REMARK    5  A    between atoms: C9_11  and  O7_24
REMARK    6  A    between atoms: C10_12  and  O4_14
REMARK    7  A    between atoms: O4_14  and  C11_15
REMARK    8  A    between atoms: C14_18  and  O6_23
REMARK    9  A    between atoms: C15_19  and  O5_21
REMARK   10  A    between atoms: O5_21  and  C17_22
REMARK   11  A    between atoms: O7_24  and  C18_25
REMARK                            x       y       z     vdW  Elec       q    Type
REMARK                         _______ _______ _______ _____ _____    ______ ____
ROOT
ATOM      1  C   UNL     1      51.471  17.260  16.350  0.00  0.00    +0.121 C 
ATOM      2  C   UNL     1      50.435  17.862  17.265  0.00  0.00    -0.161 A 
ATOM      3  C   UNL     1      50.705  19.054  17.928  0.00  0.00    +0.187 A 
ATOM      6  C   UNL     1      49.763  19.621  18.773  0.00  0.00    -0.136 A 
ATOM      7  C   UNL     1      50.072  20.913  19.486  0.00  0.00    +0.122 C 
ATOM      8  C   UNL     1      48.539  18.998  18.965  0.00  0.00    +0.182 A 
ATOM      9  C   UNL     1      48.265  17.794  18.295  0.00  0.00    -0.247 A 
ATOM     10  C   UNL     1      46.957  17.151  18.514  0.00  0.00    +0.442 A 
ATOM     11  C   UNL     1      46.055  17.795  19.392  0.00  0.00    -0.079 A 
ATOM     14  C   UNL     1      46.419  18.961  19.991  0.00  0.00    +0.227 A 
ATOM     26  O   UNL     1      46.665  16.104  17.960  0.00  0.00    -0.427 OA
ATOM     27  O   UNL     1      47.612  19.536  19.785  0.00  0.00    -0.228 OA
ATOM     28  C   UNL     1      49.218  17.230  17.438  0.00  0.00    +0.213 A 
ENDROOT
BRANCH   3   4
ATOM      4  O   UNL     1      51.901  19.670  17.746  0.00  0.00    -0.480 OA
ATOM      5  H   UNL     1      52.479  19.642  18.521  0.00  0.00    +0.402 HD
ENDBRANCH   3   4
BRANCH  11  12
ATOM     12  O   UNL     1      44.829  17.252  19.636  0.00  0.00    -0.285 OA
ATOM     13  C   UNL     1      44.731  16.336  20.728  0.00  0.00    +0.258 C 
ENDBRANCH  11  12
BRANCH  28  29
ATOM     29  O   UNL     1      48.951  16.069  16.787  0.00  0.00    -0.468 OA
ATOM     30  H   UNL     1      48.124  15.648  17.058  0.00  0.00    +0.402 HD
ENDBRANCH  28  29
BRANCH  14  15
ATOM     15  O   UNL     1      45.544  19.561  20.827  0.00  0.00    -0.207 OA
BRANCH  15  16
ATOM     16  C   UNL     1      44.886  20.664  20.379  0.00  0.00    +0.084 A 
ATOM     17  C   UNL     1      45.505  21.905  20.421  0.00  0.00    +0.005 A 
ATOM     18  C   UNL     1      44.838  23.027  19.967  0.00  0.00    +0.056 A 
ATOM     19  C   UNL     1      43.550  22.915  19.470  0.00  0.00    +0.091 A 
ATOM     22  C   UNL     1      42.927  21.672  19.427  0.00  0.00    +0.118 A 
ATOM     25  C   UNL     1      43.598  20.547  19.877  0.00  0.00    -0.045 A 
BRANCH  19  20
ATOM     20  O   UNL     1      42.894  24.021  19.024  0.00  0.00    -0.483 OA
ATOM     21  H   UNL     1      41.936  23.909  18.955  0.00  0.00    +0.393 HD
ENDBRANCH  19  20
BRANCH  22  23
ATOM     23  O   UNL     1      41.663  21.560  18.939  0.00  0.00    -0.300 OA
ATOM     24  C   UNL     1      41.306  20.312  18.341  0.00  0.00    +0.245 C 
ENDBRANCH  22  23
ENDBRANCH  15  16
ENDBRANCH  14  15
TORSDOF 7
ENDMDL
MODEL 4
REMARK VINA RESULT:      -6.1      1.543      2.313
REMARK  Name = ZINC95486283
REMARK  11 active torsions:
REMARK  status: ('A' for Active; 'I' for Inactive)
REMARK    1  A    between atoms: C1_1  and  C2_2
REMARK    2  A    between atoms: C3_3  and  O8_27
REMARK    3  A    between atoms: C4_4  and  C19_26
REMARK    4  A    between atoms: C7_7  and  O1_8
REMARK    5  A    between atoms: C9_11  and  O7_24
REMARK    6  A    between atoms: C10_12  and  O4_14
REMARK    7  A    between atoms: O4_14  and  C11_15
REMARK    8  A    between atoms: C14_18  and  O6_23
REMARK    9  A    between atoms: C15_19  and  O5_21
REMARK   10  A    between atoms: O5_21  and  C17_22
REMARK   11  A    between atoms: O7_24  and  C18_25
REMARK                            x       y       z     vdW  Elec       q    Type
REMARK                         _______ _______ _______ _____ _____    ______ ____
ROOT
ATOM      1  C   UNL     1      40.045  21.326  18.760  0.00  0.00    +0.121 C 
ATOM      2  C   UNL     1      41.470  21.191  19.235  0.00  0.00    -0.161 A 
ATOM      3  C   UNL     1      42.364  22.241  19.055  0.00  0.00    +0.187 A 
ATOM      6  C   UNL     1      43.676  22.133  19.485  0.00  0.00    -0.136 A 
ATOM      7  C   UNL     1      44.633  23.279  19.280  0.00  0.00    +0.122 C 
ATOM      8  C   UNL     1      44.111  20.970  20.102  0.00  0.00    +0.182 A 
ATOM      9  C   UNL     1      43.209  19.907  20.287  0.00  0.00    -0.247 A 
ATOM     10  C   UNL     1      43.693  18.682  20.945  0.00  0.00    +0.442 A 
ATOM     11  C   UNL     1      45.047  18.654  21.354  0.00  0.00    -0.079 A 
ATOM     14  C   UNL     1      45.837  19.738  21.128  0.00  0.00    +0.227 A 
ATOM     26  O   UNL     1      42.955  17.728  21.131  0.00  0.00    -0.427 OA
ATOM     27  O   UNL     1      45.386  20.847  20.527  0.00  0.00    -0.228 OA
ATOM     28  C   UNL     1      41.882  20.026  19.854  0.00  0.00    +0.213 A 
ENDROOT
BRANCH   3   4
ATOM      4  O   UNL     1      41.946  23.383  18.451  0.00  0.00    -0.480 OA
ATOM      5  H   UNL     1      42.236  24.192  18.895  0.00  0.00    +0.402 HD
ENDBRANCH   3   4
BRANCH  11  12
ATOM     12  O   UNL     1      45.556  17.550  21.969  0.00  0.00    -0.285 OA
ATOM     13  C   UNL     1      45.897  16.442  21.135  0.00  0.00    +0.258 C 
ENDBRANCH  11  12
BRANCH  28  29
ATOM     29  O   UNL     1      41.010  19.002  20.037  0.00  0.00    -0.468 OA
ATOM     30  H   UNL     1      40.746  18.870  20.958  0.00  0.00    +0.402 HD
ENDBRANCH  28  29
BRANCH  14  15
ATOM     15  O   UNL     1      47.128  19.693  21.525  0.00  0.00    -0.207 OA
BRANCH  15  16
ATOM     16  C   UNL     1      48.092  19.728  20.566  0.00  0.00    +0.084 A 
ATOM     17  C   UNL     1      49.004  20.774  20.539  0.00  0.00    +0.005 A 
ATOM     18  C   UNL     1      49.984  20.812  19.565  0.00  0.00    +0.056 A 
ATOM     19  C   UNL     1      50.058  19.807  18.614  0.00  0.00    +0.091 A 
ATOM     22  C   UNL     1      49.145  18.758  18.640  0.00  0.00    +0.118 A 
ATOM     25  C   UNL     1      48.167  18.717  19.620  0.00  0.00    -0.045 A 
BRANCH  19  20
ATOM     20  O   UNL     1      51.023  19.846  17.656  0.00  0.00    -0.483 OA
ATOM     21  H   UNL     1      51.610  19.078  17.656  0.00  0.00    +0.393 HD
ENDBRANCH  19  20
BRANCH  22  23
ATOM     23  O   UNL     1      49.216  17.770  17.708  0.00  0.00    -0.300 OA
ATOM     24  C   UNL     1      47.979  17.266  17.201  0.00  0.00    +0.245 C 
ENDBRANCH  22  23
ENDBRANCH  15  16
ENDBRANCH  14  15
TORSDOF 7
ENDMDL
MODEL 5
REMARK VINA RESULT:      -5.8      2.845      6.863
REMARK  Name = ZINC95486283
REMARK  11 active torsions:
REMARK  status: ('A' for Active; 'I' for Inactive)
REMARK    1  A    between atoms: C1_1  and  C2_2
REMARK    2  A    between atoms: C3_3  and  O8_27
REMARK    3  A    between atoms: C4_4  and  C19_26
REMARK    4  A    between atoms: C7_7  and  O1_8
REMARK    5  A    between atoms: C9_11  and  O7_24
REMARK    6  A    between atoms: C10_12  and  O4_14
REMARK    7  A    between atoms: O4_14  and  C11_15
REMARK    8  A    between atoms: C14_18  and  O6_23
REMARK    9  A    between atoms: C15_19  and  O5_21
REMARK   10  A    between atoms: O5_21  and  C17_22
REMARK   11  A    between atoms: O7_24  and  C18_25
REMARK                            x       y       z     vdW  Elec       q    Type
REMARK                         _______ _______ _______ _____ _____    ______ ____
ROOT
ATOM      1  C   UNL     1      46.294  12.947  17.021  0.00  0.00    +0.121 C 
ATOM      2  C   UNL     1      46.374  14.194  17.864  0.00  0.00    -0.161 A 
ATOM      3  C   UNL     1      45.569  14.322  18.991  0.00  0.00    +0.187 A 
ATOM      6  C   UNL     1      45.629  15.462  19.777  0.00  0.00    -0.136 A 
ATOM      7  C   UNL     1      44.748  15.585  20.994  0.00  0.00    +0.122 C 
ATOM      8  C   UNL     1      46.498  16.489  19.443  0.00  0.00    +0.182 A 
ATOM      9  C   UNL     1      47.313  16.362  18.305  0.00  0.00    -0.247 A 
ATOM     10  C   UNL     1      48.229  17.466  17.971  0.00  0.00    +0.442 A 
ATOM     11  C   UNL     1      48.229  18.593  18.825  0.00  0.00    -0.079 A 
ATOM     14  C   UNL     1      47.399  18.617  19.902  0.00  0.00    +0.227 A 
ATOM     26  O   UNL     1      48.960  17.410  16.994  0.00  0.00    -0.427 OA
ATOM     27  O   UNL     1      46.570  17.606  20.196  0.00  0.00    -0.228 OA
ATOM     28  C   UNL     1      47.251  15.205  17.519  0.00  0.00    +0.213 A 
ENDROOT
BRANCH   3   4
ATOM      4  O   UNL     1      44.715  13.320  19.325  0.00  0.00    -0.480 OA
ATOM      5  H   UNL     1      45.151  12.532  19.676  0.00  0.00    +0.402 HD
ENDBRANCH   3   4
BRANCH  11  12
ATOM     12  O   UNL     1      49.053  19.648  18.570  0.00  0.00    -0.285 OA
ATOM     13  C   UNL     1      50.369  19.590  19.121  0.00  0.00    +0.258 C 
ENDBRANCH  11  12
BRANCH  28  29
ATOM     29  O   UNL     1      48.043  15.079  16.423  0.00  0.00    -0.468 OA
ATOM     30  H   UNL     1      48.499  14.229  16.363  0.00  0.00    +0.402 HD
ENDBRANCH  28  29
BRANCH  14  15
ATOM     15  O   UNL     1      47.412  19.703  20.707  0.00  0.00    -0.207 OA
BRANCH  15  16
ATOM     16  C   UNL     1      46.401  20.603  20.581  0.00  0.00    +0.084 A 
ATOM     17  C   UNL     1      46.561  21.896  21.057  0.00  0.00    +0.005 A 
ATOM     18  C   UNL     1      45.534  22.813  20.930  0.00  0.00    +0.056 A 
ATOM     19  C   UNL     1      44.342  22.441  20.329  0.00  0.00    +0.091 A 
ATOM     22  C   UNL     1      44.179  21.145  19.851  0.00  0.00    +0.118 A 
ATOM     25  C   UNL     1      45.211  20.229  19.973  0.00  0.00    -0.045 A 
BRANCH  19  20
ATOM     20  O   UNL     1      43.332  23.344  20.206  0.00  0.00    -0.483 OA
ATOM     21  H   UNL     1      42.832  23.489  21.021  0.00  0.00    +0.393 HD
ENDBRANCH  19  20
BRANCH  22  23
ATOM     23  O   UNL     1      43.011  20.779  19.260  0.00  0.00    -0.300 OA
ATOM     24  C   UNL     1      42.301  19.687  19.848  0.00  0.00    +0.245 C 
ENDBRANCH  22  23
ENDBRANCH  15  16
ENDBRANCH  14  15
TORSDOF 7
ENDMDL
MODEL 6
REMARK VINA RESULT:      -5.7      2.963      5.187
REMARK  Name = ZINC95486283
REMARK  11 active torsions:
REMARK  status: ('A' for Active; 'I' for Inactive)
REMARK    1  A    between atoms: C1_1  and  C2_2
REMARK    2  A    between atoms: C3_3  and  O8_27
REMARK    3  A    between atoms: C4_4  and  C19_26
REMARK    4  A    between atoms: C7_7  and  O1_8
REMARK    5  A    between atoms: C9_11  and  O7_24
REMARK    6  A    between atoms: C10_12  and  O4_14
REMARK    7  A    between atoms: O4_14  and  C11_15
REMARK    8  A    between atoms: C14_18  and  O6_23
REMARK    9  A    between atoms: C15_19  and  O5_21
REMARK   10  A    between atoms: O5_21  and  C17_22
REMARK   11  A    between atoms: O7_24  and  C18_25
REMARK                            x       y       z     vdW  Elec       q    Type
REMARK                         _______ _______ _______ _____ _____    ______ ____
ROOT
ATOM      1  C   UNL     1      43.521  24.449  19.094  0.00  0.00    +0.121 C 
ATOM      2  C   UNL     1      43.538  22.996  19.495  0.00  0.00    -0.161 A 
ATOM      3  C   UNL     1      42.505  22.154  19.097  0.00  0.00    +0.187 A 
ATOM      6  C   UNL     1      42.505  20.816  19.458  0.00  0.00    -0.136 A 
ATOM      7  C   UNL     1      41.376  19.918  19.021  0.00  0.00    +0.122 C 
ATOM      8  C   UNL     1      43.542  20.304  20.222  0.00  0.00    +0.182 A 
ATOM      9  C   UNL     1      44.588  21.152  20.624  0.00  0.00    -0.247 A 
ATOM     10  C   UNL     1      45.680  20.585  21.434  0.00  0.00    +0.442 A 
ATOM     11  C   UNL     1      45.603  19.210  21.758  0.00  0.00    -0.079 A 
ATOM     14  C   UNL     1      44.546  18.476  21.319  0.00  0.00    +0.227 A 
ATOM     26  O   UNL     1      46.613  21.274  21.812  0.00  0.00    -0.427 OA
ATOM     27  O   UNL     1      43.558  19.003  20.582  0.00  0.00    -0.228 OA
ATOM     28  C   UNL     1      44.584  22.502  20.251  0.00  0.00    +0.213 A 
ENDROOT
BRANCH   3   4
ATOM      4  O   UNL     1      41.485  22.649  18.349  0.00  0.00    -0.480 OA
ATOM      5  H   UNL     1      40.612  22.326  18.612  0.00  0.00    +0.402 HD
ENDBRANCH   3   4
BRANCH  11  12
ATOM     12  O   UNL     1      46.582  18.625  22.505  0.00  0.00    -0.285 OA
ATOM     13  C   UNL     1      47.789  18.271  21.830  0.00  0.00    +0.258 C 
ENDBRANCH  11  12
BRANCH  28  29
ATOM     29  O   UNL     1      45.598  23.320  20.635  0.00  0.00    -0.468 OA
ATOM     30  H   UNL     1      45.616  23.506  21.584  0.00  0.00    +0.402 HD
ENDBRANCH  28  29
BRANCH  14  15
ATOM     15  O   UNL     1      44.490  17.164  21.639  0.00  0.00    -0.207 OA
BRANCH  15  16
ATOM     16  C   UNL     1      44.967  16.266  20.737  0.00  0.00    +0.084 A 
ATOM     17  C   UNL     1      45.044  14.922  21.072  0.00  0.00    +0.005 A 
ATOM     18  C   UNL     1      45.529  14.007  20.157  0.00  0.00    +0.056 A 
ATOM     19  C   UNL     1      45.942  14.430  18.903  0.00  0.00    +0.091 A 
ATOM     22  C   UNL     1      45.865  15.778  18.565  0.00  0.00    +0.118 A 
ATOM     25  C   UNL     1      45.373  16.693  19.481  0.00  0.00    -0.045 A 
BRANCH  19  20
ATOM     20  O   UNL     1      46.420  13.529  18.003  0.00  0.00    -0.483 OA
ATOM     21  H   UNL     1      45.832  13.374  17.251  0.00  0.00    +0.393 HD
ENDBRANCH  19  20
BRANCH  22  23
ATOM     23  O   UNL     1      46.268  16.195  17.336  0.00  0.00    -0.300 OA
ATOM     24  C   UNL     1      46.845  17.500  17.250  0.00  0.00    +0.245 C 
ENDBRANCH  22  23
ENDBRANCH  15  16
ENDBRANCH  14  15
TORSDOF 7
ENDMDL
MODEL 7
REMARK VINA RESULT:      -5.7      3.417      4.669
REMARK  Name = ZINC95486283
REMARK  11 active torsions:
REMARK  status: ('A' for Active; 'I' for Inactive)
REMARK    1  A    between atoms: C1_1  and  C2_2
REMARK    2  A    between atoms: C3_3  and  O8_27
REMARK    3  A    between atoms: C4_4  and  C19_26
REMARK    4  A    between atoms: C7_7  and  O1_8
REMARK    5  A    between atoms: C9_11  and  O7_24
REMARK    6  A    between atoms: C10_12  and  O4_14
REMARK    7  A    between atoms: O4_14  and  C11_15
REMARK    8  A    between atoms: C14_18  and  O6_23
REMARK    9  A    between atoms: C15_19  and  O5_21
REMARK   10  A    between atoms: O5_21  and  C17_22
REMARK   11  A    between atoms: O7_24  and  C18_25
REMARK                            x       y       z     vdW  Elec       q    Type
REMARK                         _______ _______ _______ _____ _____    ______ ____
ROOT
ATOM      1  C   UNL     1      42.679  18.924  22.480  0.00  0.00    +0.121 C 
ATOM      2  C   UNL     1      43.619  18.563  21.358  0.00  0.00    -0.161 A 
ATOM      3  C   UNL     1      44.079  19.551  20.493  0.00  0.00    +0.187 A 
ATOM      6  C   UNL     1      44.943  19.236  19.457  0.00  0.00    -0.136 A 
ATOM      7  C   UNL     1      45.430  20.318  18.528  0.00  0.00    +0.122 C 
ATOM      8  C   UNL     1      45.359  17.926  19.273  0.00  0.00    +0.182 A 
ATOM      9  C   UNL     1      44.896  16.926  20.146  0.00  0.00    -0.247 A 
ATOM     10  C   UNL     1      45.351  15.542  19.932  0.00  0.00    +0.442 A 
ATOM     11  C   UNL     1      46.233  15.307  18.851  0.00  0.00    -0.079 A 
ATOM     14  C   UNL     1      46.621  16.346  18.065  0.00  0.00    +0.227 A 
ATOM     26  O   UNL     1      44.982  14.633  20.658  0.00  0.00    -0.427 OA
ATOM     27  O   UNL     1      46.199  17.602  18.269  0.00  0.00    -0.228 OA
ATOM     28  C   UNL     1      44.027  17.252  21.195  0.00  0.00    +0.213 A 
ENDROOT
BRANCH   3   4
ATOM      4  O   UNL     1      43.677  20.836  20.666  0.00  0.00    -0.480 OA
ATOM      5  H   UNL     1      43.652  21.120  21.590  0.00  0.00    +0.402 HD
ENDBRANCH   3   4
BRANCH  11  12
ATOM     12  O   UNL     1      46.691  14.048  18.600  0.00  0.00    -0.285 OA
ATOM     13  C   UNL     1      45.932  13.251  17.690  0.00  0.00    +0.258 C 
ENDBRANCH  11  12
BRANCH  28  29
ATOM     29  O   UNL     1      43.585  16.288  22.042  0.00  0.00    -0.468 OA
ATOM     30  H   UNL     1      42.863  15.753  21.685  0.00  0.00    +0.402 HD
ENDBRANCH  28  29
BRANCH  14  15
ATOM     15  O   UNL     1      47.463  16.102  17.036  0.00  0.00    -0.207 OA
BRANCH  15  16
ATOM     16  C   UNL     1      48.793  16.293  17.241  0.00  0.00    +0.084 A 
ATOM     17  C   UNL     1      49.603  15.220  17.585  0.00  0.00    +0.005 A 
ATOM     18  C   UNL     1      50.955  15.413  17.795  0.00  0.00    +0.056 A 
ATOM     19  C   UNL     1      51.506  16.678  17.663  0.00  0.00    +0.091 A 
ATOM     22  C   UNL     1      50.696  17.755  17.318  0.00  0.00    +0.118 A 
ATOM     25  C   UNL     1      49.341  17.560  17.102  0.00  0.00    -0.045 A 
BRANCH  19  20
ATOM     20  O   UNL     1      52.837  16.866  17.870  0.00  0.00    -0.483 OA
ATOM     21  H   UNL     1      53.045  17.335  18.690  0.00  0.00    +0.393 HD
ENDBRANCH  19  20
BRANCH  22  23
ATOM     23  O   UNL     1      51.234  18.996  17.187  0.00  0.00    -0.300 OA
ATOM     24  C   UNL     1      51.634  19.395  15.874  0.00  0.00    +0.245 C 
ENDBRANCH  22  23
ENDBRANCH  15  16
ENDBRANCH  14  15
TORSDOF 7
ENDMDL
MODEL 8
REMARK VINA RESULT:      -5.6      2.209      3.077
REMARK  Name = ZINC95486283
REMARK  11 active torsions:
REMARK  status: ('A' for Active; 'I' for Inactive)
REMARK    1  A    between atoms: C1_1  and  C2_2
REMARK    2  A    between atoms: C3_3  and  O8_27
REMARK    3  A    between atoms: C4_4  and  C19_26
REMARK    4  A    between atoms: C7_7  and  O1_8
REMARK    5  A    between atoms: C9_11  and  O7_24
REMARK    6  A    between atoms: C10_12  and  O4_14
REMARK    7  A    between atoms: O4_14  and  C11_15
REMARK    8  A    between atoms: C14_18  and  O6_23
REMARK    9  A    between atoms: C15_19  and  O5_21
REMARK   10  A    between atoms: O5_21  and  C17_22
REMARK   11  A    between atoms: O7_24  and  C18_25
REMARK                            x       y       z     vdW  Elec       q    Type
REMARK                         _______ _______ _______ _____ _____    ______ ____
ROOT
ATOM      1  C   UNL     1      42.389  18.892  21.302  0.00  0.00    +0.121 C 
ATOM      2  C   UNL     1      43.737  18.966  20.629  0.00  0.00    -0.161 A 
ATOM      3  C   UNL     1      44.153  20.154  20.038  0.00  0.00    +0.187 A 
ATOM      6  C   UNL     1      45.388  20.238  19.416  0.00  0.00    -0.136 A 
ATOM      7  C   UNL     1      45.824  21.533  18.778  0.00  0.00    +0.122 C 
ATOM      8  C   UNL     1      46.223  19.132  19.378  0.00  0.00    +0.182 A 
ATOM      9  C   UNL     1      45.805  17.930  19.975  0.00  0.00    -0.247 A 
ATOM     10  C   UNL     1      46.708  16.768  19.923  0.00  0.00    +0.442 A 
ATOM     11  C   UNL     1      47.951  16.939  19.269  0.00  0.00    -0.079 A 
ATOM     14  C   UNL     1      48.260  18.145  18.722  0.00  0.00    +0.227 A 
ATOM     26  O   UNL     1      46.397  15.700  20.424  0.00  0.00    -0.427 OA
ATOM     27  O   UNL     1      47.429  19.196  18.776  0.00  0.00    -0.228 OA
ATOM     28  C   UNL     1      44.557  17.854  20.607  0.00  0.00    +0.213 A 
ENDROOT
BRANCH   3   4
ATOM      4  O   UNL     1      43.341  21.242  20.071  0.00  0.00    -0.480 OA
ATOM      5  H   UNL     1      42.461  21.087  19.701  0.00  0.00    +0.402 HD
ENDBRANCH   3   4
BRANCH  11  12
ATOM     12  O   UNL     1      48.832  15.903  19.186  0.00  0.00    -0.285 OA
ATOM     13  C   UNL     1      48.716  15.042  18.053  0.00  0.00    +0.258 C 
ENDBRANCH  11  12
BRANCH  28  29
ATOM     29  O   UNL     1      44.156  16.695  21.189  0.00  0.00    -0.468 OA
ATOM     30  H   UNL     1      44.874  16.069  21.356  0.00  0.00    +0.402 HD
ENDBRANCH  28  29
BRANCH  14  15
ATOM     15  O   UNL     1      49.451  18.290  18.101  0.00  0.00    -0.207 OA
BRANCH  15  16
ATOM     16  C   UNL     1      50.297  19.251  18.557  0.00  0.00    +0.084 A 
ATOM     17  C   UNL     1      50.685  20.288  17.721  0.00  0.00    +0.005 A 
ATOM     18  C   UNL     1      51.546  21.265  18.183  0.00  0.00    +0.056 A 
ATOM     19  C   UNL     1      52.025  21.211  19.482  0.00  0.00    +0.091 A 
ATOM     22  C   UNL     1      51.637  20.172  20.323  0.00  0.00    +0.118 A 
ATOM     25  C   UNL     1      50.769  19.197  19.861  0.00  0.00    -0.045 A 
BRANCH  19  20
ATOM     20  O   UNL     1      52.873  22.174  19.936  0.00  0.00    -0.483 OA
ATOM     21  H   UNL     1      53.793  22.046  19.666  0.00  0.00    +0.393 HD
ENDBRANCH  19  20
BRANCH  22  23
ATOM     23  O   UNL     1      52.105  20.118  21.598  0.00  0.00    -0.300 OA
ATOM     24  C   UNL     1      52.601  18.858  22.055  0.00  0.00    +0.245 C 
ENDBRANCH  22  23
ENDBRANCH  15  16
ENDBRANCH  14  15
TORSDOF 7
ENDMDL
MODEL 9
REMARK VINA RESULT:      -5.6      2.049      2.874
REMARK  Name = ZINC95486283
REMARK  11 active torsions:
REMARK  status: ('A' for Active; 'I' for Inactive)
REMARK    1  A    between atoms: C1_1  and  C2_2
REMARK    2  A    between atoms: C3_3  and  O8_27
REMARK    3  A    between atoms: C4_4  and  C19_26
REMARK    4  A    between atoms: C7_7  and  O1_8
REMARK    5  A    between atoms: C9_11  and  O7_24
REMARK    6  A    between atoms: C10_12  and  O4_14
REMARK    7  A    between atoms: O4_14  and  C11_15
REMARK    8  A    between atoms: C14_18  and  O6_23
REMARK    9  A    between atoms: C15_19  and  O5_21
REMARK   10  A    between atoms: O5_21  and  C17_22
REMARK   11  A    between atoms: O7_24  and  C18_25
REMARK                            x       y       z     vdW  Elec       q    Type
REMARK                         _______ _______ _______ _____ _____    ______ ____
ROOT
ATOM      1  C   UNL     1      41.413  19.275  20.147  0.00  0.00    +0.121 C 
ATOM      2  C   UNL     1      42.908  19.463  20.194  0.00  0.00    -0.161 A 
ATOM      3  C   UNL     1      43.493  20.538  19.534  0.00  0.00    +0.187 A 
ATOM      6  C   UNL     1      44.866  20.725  19.567  0.00  0.00    -0.136 A 
ATOM      7  C   UNL     1      45.484  21.895  18.845  0.00  0.00    +0.122 C 
ATOM      8  C   UNL     1      45.670  19.836  20.263  0.00  0.00    +0.182 A 
ATOM      9  C   UNL     1      45.081  18.749  20.931  0.00  0.00    -0.247 A 
ATOM     10  C   UNL     1      45.956  17.817  21.664  0.00  0.00    +0.442 A 
ATOM     11  C   UNL     1      47.346  18.080  21.647  0.00  0.00    -0.079 A 
ATOM     14  C   UNL     1      47.815  19.161  20.969  0.00  0.00    +0.227 A 
ATOM     26  O   UNL     1      45.500  16.856  22.262  0.00  0.00    -0.427 OA
ATOM     27  O   UNL     1      47.009  20.002  20.305  0.00  0.00    -0.228 OA
ATOM     28  C   UNL     1      43.693  18.569  20.898  0.00  0.00    +0.213 A 
ENDROOT
BRANCH   3   4
ATOM      4  O   UNL     1      42.712  21.414  18.850  0.00  0.00    -0.480 OA
ATOM      5  H   UNL     1      42.550  22.244  19.318  0.00  0.00    +0.402 HD
ENDBRANCH   3   4
BRANCH  11  12
ATOM     12  O   UNL     1      48.208  17.257  22.306  0.00  0.00    -0.285 OA
ATOM     13  C   UNL     1      48.674  16.106  21.599  0.00  0.00    +0.258 C 
ENDBRANCH  11  12
BRANCH  28  29
ATOM     29  O   UNL     1      43.123  17.523  21.548  0.00  0.00    -0.468 OA
ATOM     30  H   UNL     1      42.638  17.773  22.347  0.00  0.00    +0.402 HD
ENDBRANCH  28  29
BRANCH  14  15
ATOM     15  O   UNL     1      49.146  19.397  20.964  0.00  0.00    -0.207 OA
BRANCH  15  16
ATOM     16  C   UNL     1      49.763  19.545  19.761  0.00  0.00    +0.084 A 
ATOM     17  C   UNL     1      50.286  20.778  19.399  0.00  0.00    +0.005 A 
ATOM     18  C   UNL     1      50.913  20.932  18.177  0.00  0.00    +0.056 A 
ATOM     19  C   UNL     1      51.021  19.855  17.311  0.00  0.00    +0.091 A 
ATOM     22  C   UNL     1      50.497  18.618  17.673  0.00  0.00    +0.118 A 
ATOM     25  C   UNL     1      49.874  18.464  18.900  0.00  0.00    -0.045 A 
BRANCH  19  20
ATOM     20  O   UNL     1      51.638  20.008  16.108  0.00  0.00    -0.483 OA
ATOM     21  H   UNL     1      52.065  20.868  15.992  0.00  0.00    +0.393 HD
ENDBRANCH  19  20
BRANCH  22  23
ATOM     23  O   UNL     1      50.602  17.561  16.825  0.00  0.00    -0.300 OA
ATOM     24  C   UNL     1      51.633  16.609  17.098  0.00  0.00    +0.245 C 
ENDBRANCH  22  23
ENDBRANCH  15  16
ENDBRANCH  14  15
TORSDOF 7
ENDMDL
