MODEL 1
REMARK VINA RESULT:      -6.6      0.000      0.000
REMARK  Name = ZINC95486070
REMARK  0 active torsions:
REMARK  status: ('A' for Active; 'I' for Inactive)
REMARK                            x       y       z     vdW  Elec       q    Type
REMARK                         _______ _______ _______ _____ _____    ______ ____
ROOT
ATOM      1  C   UNL     1      40.309  20.619  18.551  0.00  0.00    +0.015 A 
ATOM      2  C   UNL     1      40.796  21.912  18.632  0.00  0.00    +0.058 A 
ATOM      3  C   UNL     1      42.079  22.136  19.097  0.00  0.00    +0.017 A 
ATOM      4  C   UNL     1      42.864  21.066  19.491  0.00  0.00    +0.144 A 
ATOM      5  C   UNL     1      42.371  19.768  19.426  0.00  0.00    -0.122 A 
ATOM      6  C   UNL     1      43.197  18.603  19.906  0.00  0.00    +0.076 C 
ATOM      7  C   UNL     1      42.908  18.417  21.414  0.00  0.00    +0.083 C 
ATOM      8  C   UNL     1      43.323  19.669  22.183  0.00  0.00    +0.254 C 
ATOM      9  N   UNL     1      44.731  20.025  21.960  0.00  0.00    -0.370 N 
ATOM     10  H   UNL     1      44.931  20.894  22.433  0.00  0.00    +0.421 HD
ATOM     11  C   UNL     1      45.616  18.988  22.505  0.00  0.00    +0.319 C 
ATOM     12  C   UNL     1      47.049  19.331  22.203  0.00  0.00    -0.016 C 
ATOM     13  C   UNL     1      47.399  20.007  21.144  0.00  0.00    +0.044 C 
ATOM     14  C   UNL     1      46.422  20.509  20.142  0.00  0.00    -0.025 C 
ATOM     15  C   UNL     1      46.387  22.042  20.056  0.00  0.00    +0.112 C 
ATOM     16  C   UNL     1      44.931  22.363  19.775  0.00  0.00    +0.519 C 
ATOM     17  O   UNL     1      44.505  23.456  19.463  0.00  0.00    -0.458 OA
ATOM     18  C   UNL     1      46.604  19.879  18.753  0.00  0.00    +0.081 C 
ATOM     19  C   UNL     1      45.258  19.121  18.396  0.00  0.00    +0.078 C 
ATOM     20  C   UNL     1      44.975  20.187  20.546  0.00  0.00    +0.237 C 
ATOM     21  C   UNL     1      44.684  18.853  19.786  0.00  0.00    +0.030 C 
ATOM     22  N   UNL     1      44.182  21.255  19.923  0.00  0.00    -0.551 N 
ATOM     23  C   UNL     1      41.094  19.551  18.941  0.00  0.00    +0.054 A 
ENDROOT
TORSDOF 0
ENDMDL
MODEL 2
REMARK VINA RESULT:      -6.3      1.990      4.205
REMARK  Name = ZINC95486070
REMARK  0 active torsions:
REMARK  status: ('A' for Active; 'I' for Inactive)
REMARK                            x       y       z     vdW  Elec       q    Type
REMARK                         _______ _______ _______ _____ _____    ______ ____
ROOT
ATOM      1  C   UNL     1      44.496  15.482  21.432  0.00  0.00    +0.015 A 
ATOM      2  C   UNL     1      45.302  15.544  20.309  0.00  0.00    +0.058 A 
ATOM      3  C   UNL     1      45.534  16.760  19.695  0.00  0.00    +0.017 A 
ATOM      4  C   UNL     1      44.947  17.908  20.199  0.00  0.00    +0.144 A 
ATOM      5  C   UNL     1      44.124  17.846  21.318  0.00  0.00    -0.122 A 
ATOM      6  C   UNL     1      43.435  19.080  21.839  0.00  0.00    +0.076 C 
ATOM      7  C   UNL     1      42.080  19.204  21.104  0.00  0.00    +0.083 C 
ATOM      8  C   UNL     1      42.313  19.363  19.604  0.00  0.00    +0.254 C 
ATOM      9  N   UNL     1      43.186  20.503  19.288  0.00  0.00    -0.370 N 
ATOM     10  H   UNL     1      43.362  20.519  18.295  0.00  0.00    +0.421 HD
ATOM     11  C   UNL     1      42.537  21.765  19.663  0.00  0.00    +0.319 C 
ATOM     12  C   UNL     1      43.472  22.914  19.402  0.00  0.00    -0.016 C 
ATOM     13  C   UNL     1      44.769  22.792  19.473  0.00  0.00    +0.044 C 
ATOM     14  C   UNL     1      45.446  21.513  19.807  0.00  0.00    -0.025 C 
ATOM     15  C   UNL     1      46.319  20.980  18.661  0.00  0.00    +0.112 C 
ATOM     16  C   UNL     1      46.175  19.472  18.756  0.00  0.00    +0.519 C 
ATOM     17  O   UNL     1      46.842  18.667  18.140  0.00  0.00    -0.458 OA
ATOM     18  C   UNL     1      46.236  21.572  21.123  0.00  0.00    +0.081 C 
ATOM     19  C   UNL     1      45.613  20.488  22.099  0.00  0.00    +0.078 C 
ATOM     20  C   UNL     1      44.439  20.366  19.991  0.00  0.00    +0.237 C 
ATOM     21  C   UNL     1      44.201  20.348  21.534  0.00  0.00    +0.030 C 
ATOM     22  N   UNL     1      45.197  19.161  19.627  0.00  0.00    -0.551 N 
ATOM     23  C   UNL     1      43.913  16.628  21.938  0.00  0.00    +0.054 A 
ENDROOT
TORSDOF 0
ENDMDL
MODEL 3
REMARK VINA RESULT:      -6.1      1.711      3.867
REMARK  Name = ZINC95486070
REMARK  0 active torsions:
REMARK  status: ('A' for Active; 'I' for Inactive)
REMARK                            x       y       z     vdW  Elec       q    Type
REMARK                         _______ _______ _______ _____ _____    ______ ____
ROOT
ATOM      1  C   UNL     1      44.125  24.471  19.004  0.00  0.00    +0.015 A 
ATOM      2  C   UNL     1      42.839  24.040  18.729  0.00  0.00    +0.058 A 
ATOM      3  C   UNL     1      42.484  22.728  18.984  0.00  0.00    +0.017 A 
ATOM      4  C   UNL     1      43.422  21.850  19.499  0.00  0.00    +0.144 A 
ATOM      5  C   UNL     1      44.719  22.277  19.761  0.00  0.00    -0.122 A 
ATOM      6  C   UNL     1      45.761  21.315  20.267  0.00  0.00    +0.076 C 
ATOM      7  C   UNL     1      46.441  20.672  19.035  0.00  0.00    +0.083 C 
ATOM      8  C   UNL     1      45.411  19.900  18.215  0.00  0.00    +0.254 C 
ATOM      9  N   UNL     1      44.703  18.886  19.011  0.00  0.00    -0.370 N 
ATOM     10  H   UNL     1      43.990  18.457  18.440  0.00  0.00    +0.421 HD
ATOM     11  C   UNL     1      45.633  17.840  19.453  0.00  0.00    +0.319 C 
ATOM     12  C   UNL     1      44.909  16.852  20.326  0.00  0.00    -0.016 C 
ATOM     13  C   UNL     1      43.892  17.189  21.070  0.00  0.00    +0.044 C 
ATOM     14  C   UNL     1      43.347  18.570  21.122  0.00  0.00    -0.025 C 
ATOM     15  C   UNL     1      41.903  18.663  20.606  0.00  0.00    +0.112 C 
ATOM     16  C   UNL     1      41.843  20.015  19.918  0.00  0.00    +0.519 C 
ATOM     17  O   UNL     1      40.829  20.553  19.524  0.00  0.00    -0.458 OA
ATOM     18  C   UNL     1      43.484  19.223  22.505  0.00  0.00    +0.081 C 
ATOM     19  C   UNL     1      44.381  20.519  22.331  0.00  0.00    +0.078 C 
ATOM     20  C   UNL     1      44.084  19.510  20.155  0.00  0.00    +0.237 C 
ATOM     21  C   UNL     1      45.165  20.176  21.065  0.00  0.00    +0.030 C 
ATOM     22  N   UNL     1      43.082  20.527  19.810  0.00  0.00    -0.551 N 
ATOM     23  C   UNL     1      45.060  23.595  19.522  0.00  0.00    +0.054 A 
ENDROOT
TORSDOF 0
ENDMDL
MODEL 4
REMARK VINA RESULT:      -6.1      6.072      8.249
REMARK  Name = ZINC95486070
REMARK  0 active torsions:
REMARK  status: ('A' for Active; 'I' for Inactive)
REMARK                            x       y       z     vdW  Elec       q    Type
REMARK                         _______ _______ _______ _____ _____    ______ ____
ROOT
ATOM      1  C   UNL     1      50.206  15.484  21.735  0.00  0.00    +0.015 A 
ATOM      2  C   UNL     1      51.134  16.309  22.345  0.00  0.00    +0.058 A 
ATOM      3  C   UNL     1      51.588  17.437  21.688  0.00  0.00    +0.017 A 
ATOM      4  C   UNL     1      51.121  17.727  20.417  0.00  0.00    +0.144 A 
ATOM      5  C   UNL     1      50.201  16.890  19.795  0.00  0.00    -0.122 A 
ATOM      6  C   UNL     1      49.732  17.167  18.391  0.00  0.00    +0.076 C 
ATOM      7  C   UNL     1      50.714  16.463  17.425  0.00  0.00    +0.083 C 
ATOM      8  C   UNL     1      52.118  17.037  17.600  0.00  0.00    +0.254 C 
ATOM      9  N   UNL     1      52.157  18.495  17.417  0.00  0.00    -0.370 N 
ATOM     10  H   UNL     1      53.090  18.827  17.611  0.00  0.00    +0.421 HD
ATOM     11  C   UNL     1      51.820  18.847  16.032  0.00  0.00    +0.319 C 
ATOM     12  C   UNL     1      51.793  20.344  15.881  0.00  0.00    -0.016 C 
ATOM     13  C   UNL     1      51.471  21.141  16.862  0.00  0.00    +0.044 C 
ATOM     14  C   UNL     1      51.112  20.653  18.219  0.00  0.00    -0.025 C 
ATOM     15  C   UNL     1      52.097  21.117  19.302  0.00  0.00    +0.112 C 
ATOM     16  C   UNL     1      52.154  19.952  20.272  0.00  0.00    +0.519 C 
ATOM     17  O   UNL     1      52.686  19.978  21.363  0.00  0.00    -0.458 OA
ATOM     18  C   UNL     1      49.662  20.976  18.612  0.00  0.00    +0.081 C 
ATOM     19  C   UNL     1      48.924  19.597  18.874  0.00  0.00    +0.078 C 
ATOM     20  C   UNL     1      51.229  19.124  18.325  0.00  0.00    +0.237 C 
ATOM     21  C   UNL     1      49.772  18.637  18.041  0.00  0.00    +0.030 C 
ATOM     22  N   UNL     1      51.527  18.885  19.743  0.00  0.00    -0.551 N 
ATOM     23  C   UNL     1      49.738  15.775  20.468  0.00  0.00    +0.054 A 
ENDROOT
TORSDOF 0
ENDMDL
MODEL 5
REMARK VINA RESULT:      -6.0      4.465      7.155
REMARK  Name = ZINC95486070
REMARK  0 active torsions:
REMARK  status: ('A' for Active; 'I' for Inactive)
REMARK                            x       y       z     vdW  Elec       q    Type
REMARK                         _______ _______ _______ _____ _____    ______ ____
ROOT
ATOM      1  C   UNL     1      52.083  20.597  16.085  0.00  0.00    +0.015 A 
ATOM      2  C   UNL     1      51.838  19.276  15.755  0.00  0.00    +0.058 A 
ATOM      3  C   UNL     1      51.013  18.508  16.556  0.00  0.00    +0.017 A 
ATOM      4  C   UNL     1      50.448  19.063  17.691  0.00  0.00    +0.144 A 
ATOM      5  C   UNL     1      50.705  20.385  18.034  0.00  0.00    -0.122 A 
ATOM      6  C   UNL     1      50.141  20.980  19.297  0.00  0.00    +0.076 C 
ATOM      7  C   UNL     1      51.152  20.704  20.435  0.00  0.00    +0.083 C 
ATOM      8  C   UNL     1      51.322  19.199  20.628  0.00  0.00    +0.254 C 
ATOM      9  N   UNL     1      50.046  18.517  20.886  0.00  0.00    -0.370 N 
ATOM     10  H   UNL     1      50.207  17.522  20.936  0.00  0.00    +0.421 HD
ATOM     11  C   UNL     1      49.478  18.959  22.166  0.00  0.00    +0.319 C 
ATOM     12  C   UNL     1      48.139  18.308  22.379  0.00  0.00    -0.016 C 
ATOM     13  C   UNL     1      47.357  17.974  21.390  0.00  0.00    +0.044 C 
ATOM     14  C   UNL     1      47.713  18.195  19.964  0.00  0.00    -0.025 C 
ATOM     15  C   UNL     1      47.847  16.887  19.171  0.00  0.00    +0.112 C 
ATOM     16  C   UNL     1      48.969  17.164  18.187  0.00  0.00    +0.519 C 
ATOM     17  O   UNL     1      49.274  16.447  17.257  0.00  0.00    -0.458 OA
ATOM     18  C   UNL     1      46.775  19.181  19.253  0.00  0.00    +0.081 C 
ATOM     19  C   UNL     1      47.658  20.401  18.755  0.00  0.00    +0.078 C 
ATOM     20  C   UNL     1      49.120  18.796  19.815  0.00  0.00    +0.237 C 
ATOM     21  C   UNL     1      48.842  20.330  19.719  0.00  0.00    +0.030 C 
ATOM     22  N   UNL     1      49.573  18.326  18.499  0.00  0.00    -0.551 N 
ATOM     23  C   UNL     1      51.516  21.151  17.217  0.00  0.00    +0.054 A 
ENDROOT
TORSDOF 0
ENDMDL
MODEL 6
REMARK VINA RESULT:      -5.7      2.967      5.818
REMARK  Name = ZINC95486070
REMARK  0 active torsions:
REMARK  status: ('A' for Active; 'I' for Inactive)
REMARK                            x       y       z     vdW  Elec       q    Type
REMARK                         _______ _______ _______ _____ _____    ______ ____
ROOT
ATOM      1  C   UNL     1      51.051  20.347  17.899  0.00  0.00    +0.015 A 
ATOM      2  C   UNL     1      50.832  19.042  17.498  0.00  0.00    +0.058 A 
ATOM      3  C   UNL     1      49.681  18.384  17.892  0.00  0.00    +0.017 A 
ATOM      4  C   UNL     1      48.762  19.031  18.698  0.00  0.00    +0.144 A 
ATOM      5  C   UNL     1      48.987  20.338  19.117  0.00  0.00    -0.122 A 
ATOM      6  C   UNL     1      48.020  21.030  20.042  0.00  0.00    +0.076 C 
ATOM      7  C   UNL     1      48.451  20.710  21.492  0.00  0.00    +0.083 C 
ATOM      8  C   UNL     1      48.378  19.204  21.737  0.00  0.00    +0.254 C 
ATOM      9  N   UNL     1      47.047  18.651  21.452  0.00  0.00    -0.370 N 
ATOM     10  H   UNL     1      47.075  17.649  21.562  0.00  0.00    +0.421 HD
ATOM     11  C   UNL     1      46.055  19.192  22.389  0.00  0.00    +0.319 C 
ATOM     12  C   UNL     1      44.687  18.674  22.037  0.00  0.00    -0.016 C 
ATOM     13  C   UNL     1      44.345  18.374  20.815  0.00  0.00    +0.044 C 
ATOM     14  C   UNL     1      45.269  18.505  19.659  0.00  0.00    -0.025 C 
ATOM     15  C   UNL     1      45.584  17.159  18.988  0.00  0.00    +0.112 C 
ATOM     16  C   UNL     1      47.029  17.296  18.546  0.00  0.00    +0.519 C 
ATOM     17  O   UNL     1      47.614  16.518  17.821  0.00  0.00    -0.458 OA
ATOM     18  C   UNL     1      44.802  19.543  18.627  0.00  0.00    +0.081 C 
ATOM     19  C   UNL     1      45.927  20.658  18.534  0.00  0.00    +0.078 C 
ATOM     20  C   UNL     1      46.668  18.970  20.096  0.00  0.00    +0.237 C 
ATOM     21  C   UNL     1      46.605  20.518  19.896  0.00  0.00    +0.030 C 
ATOM     22  N   UNL     1      47.566  18.409  19.078  0.00  0.00    -0.551 N 
ATOM     23  C   UNL     1      50.131  20.995  18.702  0.00  0.00    +0.054 A 
ENDROOT
TORSDOF 0
ENDMDL
MODEL 7
REMARK VINA RESULT:      -5.6      5.604      7.645
REMARK  Name = ZINC95486070
REMARK  0 active torsions:
REMARK  status: ('A' for Active; 'I' for Inactive)
REMARK                            x       y       z     vdW  Elec       q    Type
REMARK                         _______ _______ _______ _____ _____    ______ ____
ROOT
ATOM      1  C   UNL     1      49.801  14.774  16.876  0.00  0.00    +0.015 A 
ATOM      2  C   UNL     1      48.592  15.338  17.245  0.00  0.00    +0.058 A 
ATOM      3  C   UNL     1      48.568  16.587  17.838  0.00  0.00    +0.017 A 
ATOM      4  C   UNL     1      49.755  17.260  18.072  0.00  0.00    +0.144 A 
ATOM      5  C   UNL     1      50.972  16.688  17.718  0.00  0.00    -0.122 A 
ATOM      6  C   UNL     1      52.271  17.387  18.021  0.00  0.00    +0.076 C 
ATOM      7  C   UNL     1      52.714  16.953  19.438  0.00  0.00    +0.083 C 
ATOM      8  C   UNL     1      51.670  17.382  20.465  0.00  0.00    +0.254 C 
ATOM      9  N   UNL     1      51.396  18.825  20.422  0.00  0.00    -0.370 N 
ATOM     10  H   UNL     1      50.653  19.041  21.069  0.00  0.00    +0.421 HD
ATOM     11  C   UNL     1      52.589  19.585  20.818  0.00  0.00    +0.319 C 
ATOM     12  C   UNL     1      52.315  21.059  20.696  0.00  0.00    -0.016 C 
ATOM     13  C   UNL     1      51.482  21.547  19.819  0.00  0.00    +0.044 C 
ATOM     14  C   UNL     1      50.720  20.700  18.865  0.00  0.00    -0.025 C 
ATOM     15  C   UNL     1      49.201  20.777  19.077  0.00  0.00    +0.112 C 
ATOM     16  C   UNL     1      48.712  19.376  18.757  0.00  0.00    +0.519 C 
ATOM     17  O   UNL     1      47.548  19.054  18.635  0.00  0.00    -0.458 OA
ATOM     18  C   UNL     1      51.089  20.962  17.397  0.00  0.00    +0.081 C 
ATOM     19  C   UNL     1      51.650  19.605  16.799  0.00  0.00    +0.078 C 
ATOM     20  C   UNL     1      50.991  19.204  19.089  0.00  0.00    +0.237 C 
ATOM     21  C   UNL     1      52.128  18.892  18.064  0.00  0.00    +0.030 C 
ATOM     22  N   UNL     1      49.762  18.544  18.630  0.00  0.00    -0.551 N 
ATOM     23  C   UNL     1      50.986  15.448  17.107  0.00  0.00    +0.054 A 
ENDROOT
TORSDOF 0
ENDMDL
MODEL 8
REMARK VINA RESULT:      -5.4      2.686      4.682
REMARK  Name = ZINC95486070
REMARK  0 active torsions:
REMARK  status: ('A' for Active; 'I' for Inactive)
REMARK                            x       y       z     vdW  Elec       q    Type
REMARK                         _______ _______ _______ _____ _____    ______ ____
ROOT
ATOM      1  C   UNL     1      46.281  22.890  21.427  0.00  0.00    +0.015 A 
ATOM      2  C   UNL     1      44.986  22.652  21.852  0.00  0.00    +0.058 A 
ATOM      3  C   UNL     1      44.466  21.373  21.791  0.00  0.00    +0.017 A 
ATOM      4  C   UNL     1      45.240  20.339  21.293  0.00  0.00    +0.144 A 
ATOM      5  C   UNL     1      46.536  20.578  20.849  0.00  0.00    -0.122 A 
ATOM      6  C   UNL     1      47.364  19.472  20.252  0.00  0.00    +0.076 C 
ATOM      7  C   UNL     1      47.072  19.438  18.733  0.00  0.00    +0.083 C 
ATOM      8  C   UNL     1      45.595  19.135  18.494  0.00  0.00    +0.254 C 
ATOM      9  N   UNL     1      45.164  17.886  19.137  0.00  0.00    -0.370 N 
ATOM     10  H   UNL     1      44.170  17.773  19.006  0.00  0.00    +0.421 HD
ATOM     11  C   UNL     1      45.845  16.735  18.532  0.00  0.00    +0.319 C 
ATOM     12  C   UNL     1      45.449  15.475  19.250  0.00  0.00    -0.016 C 
ATOM     13  C   UNL     1      45.127  15.461  20.514  0.00  0.00    +0.044 C 
ATOM     14  C   UNL     1      45.110  16.682  21.361  0.00  0.00    -0.025 C 
ATOM     15  C   UNL     1      43.709  17.024  21.890  0.00  0.00    +0.112 C 
ATOM     16  C   UNL     1      43.680  18.542  21.903  0.00  0.00    +0.519 C 
ATOM     17  O   UNL     1      42.814  19.218  22.417  0.00  0.00    -0.458 OA
ATOM     18  C   UNL     1      46.139  16.641  22.501  0.00  0.00    +0.081 C 
ATOM     19  C   UNL     1      47.131  17.861  22.288  0.00  0.00    +0.078 C 
ATOM     20  C   UNL     1      45.453  17.942  20.550  0.00  0.00    +0.237 C 
ATOM     21  C   UNL     1      46.989  18.107  20.787  0.00  0.00    +0.030 C 
ATOM     22  N   UNL     1      44.758  19.025  21.259  0.00  0.00    -0.551 N 
ATOM     23  C   UNL     1      47.055  21.857  20.932  0.00  0.00    +0.054 A 
ENDROOT
TORSDOF 0
ENDMDL
MODEL 9
REMARK VINA RESULT:      -5.4      6.305      7.843
REMARK  Name = ZINC95486070
REMARK  0 active torsions:
REMARK  status: ('A' for Active; 'I' for Inactive)
REMARK                            x       y       z     vdW  Elec       q    Type
REMARK                         _______ _______ _______ _____ _____    ______ ____
ROOT
ATOM      1  C   UNL     1      51.839  20.145  15.384  0.00  0.00    +0.015 A 
ATOM      2  C   UNL     1      51.660  21.152  16.316  0.00  0.00    +0.058 A 
ATOM      3  C   UNL     1      51.375  20.829  17.630  0.00  0.00    +0.017 A 
ATOM      4  C   UNL     1      51.256  19.501  18.002  0.00  0.00    +0.144 A 
ATOM      5  C   UNL     1      51.419  18.489  17.063  0.00  0.00    -0.122 A 
ATOM      6  C   UNL     1      51.236  17.044  17.446  0.00  0.00    +0.076 C 
ATOM      7  C   UNL     1      49.740  16.697  17.256  0.00  0.00    +0.083 C 
ATOM      8  C   UNL     1      48.883  17.566  18.173  0.00  0.00    +0.254 C 
ATOM      9  N   UNL     1      49.272  17.447  19.585  0.00  0.00    -0.370 N 
ATOM     10  H   UNL     1      48.722  18.091  20.135  0.00  0.00    +0.421 HD
ATOM     11  C   UNL     1      49.016  16.087  20.075  0.00  0.00    +0.319 C 
ATOM     12  C   UNL     1      49.488  15.962  21.498  0.00  0.00    -0.016 C 
ATOM     13  C   UNL     1      50.487  16.657  21.968  0.00  0.00    +0.044 C 
ATOM     14  C   UNL     1      51.248  17.638  21.152  0.00  0.00    -0.025 C 
ATOM     15  C   UNL     1      51.119  19.078  21.674  0.00  0.00    +0.112 C 
ATOM     16  C   UNL     1      51.124  19.928  20.418  0.00  0.00    +0.519 C 
ATOM     17  O   UNL     1      51.214  21.138  20.395  0.00  0.00    -0.458 OA
ATOM     18  C   UNL     1      52.721  17.249  20.956  0.00  0.00    +0.081 C 
ATOM     19  C   UNL     1      52.963  17.083  19.397  0.00  0.00    +0.078 C 
ATOM     20  C   UNL     1      50.671  17.769  19.734  0.00  0.00    +0.237 C 
ATOM     21  C   UNL     1      51.550  16.781  18.902  0.00  0.00    +0.030 C 
ATOM     22  N   UNL     1      51.012  19.140  19.333  0.00  0.00    -0.551 N 
ATOM     23  C   UNL     1      51.724  18.819  15.755  0.00  0.00    +0.054 A 
ENDROOT
TORSDOF 0
ENDMDL
