MODEL 1
REMARK VINA RESULT:      -5.8      0.000      0.000
REMARK  Name = ZINC95486144
REMARK  9 active torsions:
REMARK  status: ('A' for Active; 'I' for Inactive)
REMARK    1  A    between atoms: C1_1  and  C2_2
REMARK    2  A    between atoms: C6_6  and  C20_27
REMARK    3  A    between atoms: C6_6  and  C21_28
REMARK    4  A    between atoms: C11_12  and  C12_14
REMARK    5  A    between atoms: C12_14  and  C13_15
REMARK    6  A    between atoms: C14_16  and  C15_17
REMARK    7  A    between atoms: C14_16  and  C17_21
REMARK    8  A    between atoms: C17_21  and  O3_23
REMARK    9  A    between atoms: O3_23  and  C18_24
REMARK                            x       y       z     vdW  Elec       q    Type
REMARK                         _______ _______ _______ _____ _____    ______ ____
ROOT
ATOM      1  C   UNL     1      46.280  19.817  21.663  0.00  0.00    +0.029 C 
ATOM      2  C   UNL     1      47.017  20.706  20.649  0.00  0.00    -0.031 C 
ATOM      3  C   UNL     1      47.900  21.687  21.423  0.00  0.00    +0.019 C 
ATOM      4  C   UNL     1      47.018  22.630  22.245  0.00  0.00    +0.007 C 
ATOM      5  C   UNL     1      46.149  23.450  21.296  0.00  0.00    +0.012 C 
ATOM      6  C   UNL     1      45.264  22.560  20.426  0.00  0.00    -0.050 C 
ATOM      7  C   UNL     1      44.086  22.038  21.246  0.00  0.00    +0.024 C 
ATOM      8  C   UNL     1      44.681  23.473  19.321  0.00  0.00    +0.011 C 
ATOM      9  C   UNL     1      47.909  19.777  19.811  0.00  0.00    +0.034 C 
ATOM     20  C   UNL     1      47.029  18.847  18.974  0.00  0.00    +0.030 C 
ATOM     21  C   UNL     1      46.787  17.426  19.477  0.00  0.00    +0.181 C 
ATOM     22  O   UNL     1      47.669  17.707  18.388  0.00  0.00    -0.344 OA
ATOM     23  C   UNL     1      45.932  19.521  18.152  0.00  0.00    +0.046 C 
ATOM     24  C   UNL     1      45.114  20.470  19.034  0.00  0.00    +0.030 C 
ATOM     25  C   UNL     1      46.047  21.449  19.746  0.00  0.00    +0.005 C 
ENDROOT
BRANCH   9  10
ATOM     10  C   UNL     1      48.844  20.562  18.897  0.00  0.00    +0.071 C 
BRANCH  10  11
ATOM     11  C   UNL     1      50.202  20.671  19.541  0.00  0.00    +0.083 C 
ATOM     12  C   UNL     1      51.297  20.707  18.785  0.00  0.00    -0.142 C 
BRANCH  12  17
ATOM     17  C   UNL     1      52.646  20.908  19.423  0.00  0.00    +0.184 C 
ATOM     18  C   UNL     1      52.859  22.171  20.260  0.00  0.00    +0.217 C 
ATOM     19  O   UNL     1      52.719  20.876  20.850  0.00  0.00    -0.349 OA
ENDBRANCH  12  17
BRANCH  12  13
ATOM     13  C   UNL     1      51.188  20.550  17.328  0.00  0.00    +0.516 C 
ATOM     16  O   UNL     1      51.204  21.529  16.609  0.00  0.00    -0.489 OA
BRANCH  13  14
ATOM     14  O   UNL     1      51.069  19.320  16.789  0.00  0.00    -0.349 OA
ATOM     15  C   UNL     1      51.999  18.969  15.763  0.00  0.00    +0.256 C 
ENDBRANCH  13  14
ENDBRANCH  12  13
ENDBRANCH  10  11
ENDBRANCH   9  10
TORSDOF 5
ENDMDL
MODEL 2
REMARK VINA RESULT:      -5.8      2.732      6.799
REMARK  Name = ZINC95486144
REMARK  9 active torsions:
REMARK  status: ('A' for Active; 'I' for Inactive)
REMARK    1  A    between atoms: C1_1  and  C2_2
REMARK    2  A    between atoms: C6_6  and  C20_27
REMARK    3  A    between atoms: C6_6  and  C21_28
REMARK    4  A    between atoms: C11_12  and  C12_14
REMARK    5  A    between atoms: C12_14  and  C13_15
REMARK    6  A    between atoms: C14_16  and  C15_17
REMARK    7  A    between atoms: C14_16  and  C17_21
REMARK    8  A    between atoms: C17_21  and  O3_23
REMARK    9  A    between atoms: O3_23  and  C18_24
REMARK                            x       y       z     vdW  Elec       q    Type
REMARK                         _______ _______ _______ _____ _____    ______ ____
ROOT
ATOM      1  C   UNL     1      49.924  17.563  19.890  0.00  0.00    +0.029 C 
ATOM      2  C   UNL     1      49.315  18.666  19.011  0.00  0.00    -0.031 C 
ATOM      3  C   UNL     1      48.817  18.027  17.713  0.00  0.00    +0.019 C 
ATOM      4  C   UNL     1      50.007  17.473  16.926  0.00  0.00    +0.007 C 
ATOM      5  C   UNL     1      50.928  18.626  16.542  0.00  0.00    +0.012 C 
ATOM      6  C   UNL     1      51.439  19.377  17.769  0.00  0.00    -0.050 C 
ATOM      7  C   UNL     1      52.540  18.568  18.453  0.00  0.00    +0.024 C 
ATOM      8  C   UNL     1      52.091  20.679  17.244  0.00  0.00    +0.011 C 
ATOM      9  C   UNL     1      48.117  19.238  19.784  0.00  0.00    +0.034 C 
ATOM     20  C   UNL     1      48.618  19.949  21.044  0.00  0.00    +0.030 C 
ATOM     21  C   UNL     1      48.552  19.204  22.374  0.00  0.00    +0.181 C 
ATOM     22  O   UNL     1      47.639  20.254  22.045  0.00  0.00    -0.344 OA
ATOM     23  C   UNL     1      49.737  20.969  20.838  0.00  0.00    +0.046 C 
ATOM     24  C   UNL     1      50.875  20.351  20.019  0.00  0.00    +0.030 C 
ATOM     25  C   UNL     1      50.319  19.768  18.719  0.00  0.00    +0.005 C 
ENDROOT
BRANCH   9  10
ATOM     10  C   UNL     1      47.304  20.209  18.933  0.00  0.00    +0.071 C 
BRANCH  10  11
ATOM     11  C   UNL     1      45.921  19.653  18.720  0.00  0.00    +0.083 C 
ATOM     12  C   UNL     1      44.854  20.376  19.053  0.00  0.00    -0.142 C 
BRANCH  12  17
ATOM     17  C   UNL     1      43.471  19.858  18.756  0.00  0.00    +0.184 C 
ATOM     18  C   UNL     1      42.672  19.253  19.912  0.00  0.00    +0.217 C 
ATOM     19  O   UNL     1      42.364  20.534  19.355  0.00  0.00    -0.349 OA
ENDBRANCH  12  17
BRANCH  12  13
ATOM     13  C   UNL     1      45.026  21.679  19.710  0.00  0.00    +0.516 C 
ATOM     16  O   UNL     1      45.082  22.693  19.044  0.00  0.00    -0.489 OA
BRANCH  13  14
ATOM     14  O   UNL     1      45.124  21.749  21.053  0.00  0.00    -0.349 OA
ATOM     15  C   UNL     1      44.743  22.981  21.668  0.00  0.00    +0.256 C 
ENDBRANCH  13  14
ENDBRANCH  12  13
ENDBRANCH  10  11
ENDBRANCH   9  10
TORSDOF 5
ENDMDL
MODEL 3
REMARK VINA RESULT:      -5.5      3.125      6.372
REMARK  Name = ZINC95486144
REMARK  9 active torsions:
REMARK  status: ('A' for Active; 'I' for Inactive)
REMARK    1  A    between atoms: C1_1  and  C2_2
REMARK    2  A    between atoms: C6_6  and  C20_27
REMARK    3  A    between atoms: C6_6  and  C21_28
REMARK    4  A    between atoms: C11_12  and  C12_14
REMARK    5  A    between atoms: C12_14  and  C13_15
REMARK    6  A    between atoms: C14_16  and  C15_17
REMARK    7  A    between atoms: C14_16  and  C17_21
REMARK    8  A    between atoms: C17_21  and  O3_23
REMARK    9  A    between atoms: O3_23  and  C18_24
REMARK                            x       y       z     vdW  Elec       q    Type
REMARK                         _______ _______ _______ _____ _____    ______ ____
ROOT
ATOM      1  C   UNL     1      50.554  19.032  20.842  0.00  0.00    +0.029 C 
ATOM      2  C   UNL     1      50.130  18.603  19.428  0.00  0.00    -0.031 C 
ATOM      3  C   UNL     1      51.102  17.527  18.940  0.00  0.00    +0.019 C 
ATOM      4  C   UNL     1      52.501  18.131  18.793  0.00  0.00    +0.007 C 
ATOM      5  C   UNL     1      52.461  19.225  17.731  0.00  0.00    +0.012 C 
ATOM      6  C   UNL     1      51.468  20.328  18.091  0.00  0.00    -0.050 C 
ATOM      7  C   UNL     1      52.064  21.232  19.169  0.00  0.00    +0.024 C 
ATOM      8  C   UNL     1      51.296  21.192  16.817  0.00  0.00    +0.011 C 
ATOM      9  C   UNL     1      48.725  17.993  19.553  0.00  0.00    +0.034 C 
ATOM     20  C   UNL     1      47.733  19.084  19.963  0.00  0.00    +0.030 C 
ATOM     21  C   UNL     1      47.333  19.188  21.432  0.00  0.00    +0.181 C 
ATOM     22  O   UNL     1      46.455  18.648  20.442  0.00  0.00    -0.344 OA
ATOM     23  C   UNL     1      47.756  20.362  19.126  0.00  0.00    +0.046 C 
ATOM     24  C   UNL     1      49.190  20.888  18.999  0.00  0.00    +0.030 C 
ATOM     25  C   UNL     1      50.102  19.781  18.470  0.00  0.00    +0.005 C 
ENDROOT
BRANCH   9  10
ATOM     10  C   UNL     1      48.269  17.348  18.248  0.00  0.00    +0.071 C 
BRANCH  10  11
ATOM     11  C   UNL     1      47.261  16.268  18.547  0.00  0.00    +0.083 C 
ATOM     12  C   UNL     1      47.605  14.987  18.435  0.00  0.00    -0.142 C 
BRANCH  12  17
ATOM     17  C   UNL     1      46.627  13.909  18.821  0.00  0.00    +0.184 C 
ATOM     18  C   UNL     1      45.913  13.156  17.696  0.00  0.00    +0.217 C 
ATOM     19  O   UNL     1      46.952  12.560  18.478  0.00  0.00    -0.349 OA
ENDBRANCH  12  17
BRANCH  12  13
ATOM     13  C   UNL     1      48.938  14.626  17.933  0.00  0.00    +0.516 C 
ATOM     16  O   UNL     1      49.810  14.294  18.711  0.00  0.00    -0.489 OA
BRANCH  13  14
ATOM     14  O   UNL     1      49.193  14.664  16.610  0.00  0.00    -0.349 OA
ATOM     15  C   UNL     1      49.280  13.411  15.929  0.00  0.00    +0.256 C 
ENDBRANCH  13  14
ENDBRANCH  12  13
ENDBRANCH  10  11
ENDBRANCH   9  10
TORSDOF 5
ENDMDL
MODEL 4
REMARK VINA RESULT:      -5.5      4.184      7.194
REMARK  Name = ZINC95486144
REMARK  9 active torsions:
REMARK  status: ('A' for Active; 'I' for Inactive)
REMARK    1  A    between atoms: C1_1  and  C2_2
REMARK    2  A    between atoms: C6_6  and  C20_27
REMARK    3  A    between atoms: C6_6  and  C21_28
REMARK    4  A    between atoms: C11_12  and  C12_14
REMARK    5  A    between atoms: C12_14  and  C13_15
REMARK    6  A    between atoms: C14_16  and  C15_17
REMARK    7  A    between atoms: C14_16  and  C17_21
REMARK    8  A    between atoms: C17_21  and  O3_23
REMARK    9  A    between atoms: O3_23  and  C18_24
REMARK                            x       y       z     vdW  Elec       q    Type
REMARK                         _______ _______ _______ _____ _____    ______ ____
ROOT
ATOM      1  C   UNL     1      52.614  17.307  18.297  0.00  0.00    +0.029 C 
ATOM      2  C   UNL     1      51.219  17.650  17.748  0.00  0.00    -0.031 C 
ATOM      3  C   UNL     1      51.347  17.925  16.248  0.00  0.00    +0.019 C 
ATOM      4  C   UNL     1      52.203  19.174  16.028  0.00  0.00    +0.007 C 
ATOM      5  C   UNL     1      51.500  20.374  16.653  0.00  0.00    +0.012 C 
ATOM      6  C   UNL     1      51.266  20.179  18.149  0.00  0.00    -0.050 C 
ATOM      7  C   UNL     1      52.571  20.396  18.912  0.00  0.00    +0.024 C 
ATOM      8  C   UNL     1      50.291  21.299  18.588  0.00  0.00    +0.011 C 
ATOM      9  C   UNL     1      50.342  16.407  17.961  0.00  0.00    +0.034 C 
ATOM     20  C   UNL     1      50.145  16.175  19.461  0.00  0.00    +0.030 C 
ATOM     21  C   UNL     1      51.015  15.131  20.155  0.00  0.00    +0.181 C 
ATOM     22  O   UNL     1      49.637  14.894  19.855  0.00  0.00    -0.344 OA
ATOM     23  C   UNL     1      49.675  17.382  20.270  0.00  0.00    +0.046 C 
ATOM     24  C   UNL     1      50.560  18.598  19.974  0.00  0.00    +0.030 C 
ATOM     25  C   UNL     1      50.613  18.844  18.466  0.00  0.00    +0.005 C 
ENDROOT
BRANCH   9  10
ATOM     10  C   UNL     1      48.984  16.548  17.279  0.00  0.00    +0.071 C 
BRANCH  10  11
ATOM     11  C   UNL     1      48.412  15.180  17.012  0.00  0.00    +0.083 C 
ATOM     12  C   UNL     1      47.186  14.877  17.435  0.00  0.00    -0.142 C 
BRANCH  12  17
ATOM     17  C   UNL     1      46.579  13.543  17.090  0.00  0.00    +0.184 C 
ATOM     18  C   UNL     1      46.729  12.407  18.104  0.00  0.00    +0.217 C 
ATOM     19  O   UNL     1      45.487  13.081  17.888  0.00  0.00    -0.349 OA
ENDBRANCH  12  17
BRANCH  12  13
ATOM     13  C   UNL     1      46.427  15.845  18.238  0.00  0.00    +0.516 C 
ATOM     16  O   UNL     1      45.805  16.734  17.691  0.00  0.00    -0.489 OA
BRANCH  13  14
ATOM     14  O   UNL     1      46.421  15.748  19.583  0.00  0.00    -0.349 OA
ATOM     15  C   UNL     1      45.148  15.781  20.230  0.00  0.00    +0.256 C 
ENDBRANCH  13  14
ENDBRANCH  12  13
ENDBRANCH  10  11
ENDBRANCH   9  10
TORSDOF 5
ENDMDL
MODEL 5
REMARK VINA RESULT:      -5.4      1.592      2.050
REMARK  Name = ZINC95486144
REMARK  9 active torsions:
REMARK  status: ('A' for Active; 'I' for Inactive)
REMARK    1  A    between atoms: C1_1  and  C2_2
REMARK    2  A    between atoms: C6_6  and  C20_27
REMARK    3  A    between atoms: C6_6  and  C21_28
REMARK    4  A    between atoms: C11_12  and  C12_14
REMARK    5  A    between atoms: C12_14  and  C13_15
REMARK    6  A    between atoms: C14_16  and  C15_17
REMARK    7  A    between atoms: C14_16  and  C17_21
REMARK    8  A    between atoms: C17_21  and  O3_23
REMARK    9  A    between atoms: O3_23  and  C18_24
REMARK                            x       y       z     vdW  Elec       q    Type
REMARK                         _______ _______ _______ _____ _____    ______ ____
ROOT
ATOM      1  C   UNL     1      45.694  19.722  22.011  0.00  0.00    +0.029 C 
ATOM      2  C   UNL     1      46.535  20.364  20.896  0.00  0.00    -0.031 C 
ATOM      3  C   UNL     1      47.833  20.889  21.514  0.00  0.00    +0.019 C 
ATOM      4  C   UNL     1      47.511  22.016  22.498  0.00  0.00    +0.007 C 
ATOM      5  C   UNL     1      46.869  23.171  21.736  0.00  0.00    +0.012 C 
ATOM      6  C   UNL     1      45.588  22.739  21.025  0.00  0.00    -0.050 C 
ATOM      7  C   UNL     1      44.449  22.615  22.036  0.00  0.00    +0.024 C 
ATOM      8  C   UNL     1      45.216  23.891  20.060  0.00  0.00    +0.011 C 
ATOM      9  C   UNL     1      46.869  19.246  19.895  0.00  0.00    +0.034 C 
ATOM     20  C   UNL     1      45.582  18.773  19.215  0.00  0.00    +0.030 C 
ATOM     21  C   UNL     1      44.913  17.501  19.729  0.00  0.00    +0.181 C 
ATOM     22  O   UNL     1      45.648  17.531  18.503  0.00  0.00    -0.344 OA
ATOM     23  C   UNL     1      44.698  19.866  18.616  0.00  0.00    +0.046 C 
ATOM     24  C   UNL     1      44.447  20.971  19.648  0.00  0.00    +0.030 C 
ATOM     25  C   UNL     1      45.780  21.480  20.196  0.00  0.00    +0.005 C 
ENDROOT
BRANCH   9  10
ATOM     10  C   UNL     1      47.868  19.711  18.839  0.00  0.00    +0.071 C 
BRANCH  10  11
ATOM     11  C   UNL     1      48.976  18.698  18.717  0.00  0.00    +0.083 C 
ATOM     12  C   UNL     1      50.246  19.098  18.715  0.00  0.00    -0.142 C 
BRANCH  12  17
ATOM     17  C   UNL     1      51.356  18.079  18.685  0.00  0.00    +0.184 C 
ATOM     18  C   UNL     1      52.097  17.793  19.993  0.00  0.00    +0.217 C 
ATOM     19  O   UNL     1      51.168  16.868  19.420  0.00  0.00    -0.349 OA
ENDBRANCH  12  17
BRANCH  12  13
ATOM     13  C   UNL     1      50.564  20.532  18.742  0.00  0.00    +0.516 C 
ATOM     16  O   UNL     1      50.872  21.066  19.789  0.00  0.00    -0.489 OA
BRANCH  13  14
ATOM     14  O   UNL     1      50.514  21.255  17.606  0.00  0.00    -0.349 OA
ATOM     15  C   UNL     1      51.583  21.077  16.674  0.00  0.00    +0.256 C 
ENDBRANCH  13  14
ENDBRANCH  12  13
ENDBRANCH  10  11
ENDBRANCH   9  10
TORSDOF 5
ENDMDL
MODEL 6
REMARK VINA RESULT:      -5.4      2.847      6.604
REMARK  Name = ZINC95486144
REMARK  9 active torsions:
REMARK  status: ('A' for Active; 'I' for Inactive)
REMARK    1  A    between atoms: C1_1  and  C2_2
REMARK    2  A    between atoms: C6_6  and  C20_27
REMARK    3  A    between atoms: C6_6  and  C21_28
REMARK    4  A    between atoms: C11_12  and  C12_14
REMARK    5  A    between atoms: C12_14  and  C13_15
REMARK    6  A    between atoms: C14_16  and  C15_17
REMARK    7  A    between atoms: C14_16  and  C17_21
REMARK    8  A    between atoms: C17_21  and  O3_23
REMARK    9  A    between atoms: O3_23  and  C18_24
REMARK                            x       y       z     vdW  Elec       q    Type
REMARK                         _______ _______ _______ _____ _____    ______ ____
ROOT
ATOM      1  C   UNL     1      50.344  18.566  17.213  0.00  0.00    +0.029 C 
ATOM      2  C   UNL     1      49.825  19.268  18.477  0.00  0.00    -0.031 C 
ATOM      3  C   UNL     1      50.156  20.758  18.370  0.00  0.00    +0.019 C 
ATOM      4  C   UNL     1      51.675  20.947  18.379  0.00  0.00    +0.007 C 
ATOM      5  C   UNL     1      52.228  20.452  19.712  0.00  0.00    +0.012 C 
ATOM      6  C   UNL     1      51.900  18.980  19.951  0.00  0.00    -0.050 C 
ATOM      7  C   UNL     1      52.818  18.099  19.106  0.00  0.00    +0.024 C 
ATOM      8  C   UNL     1      52.234  18.694  21.435  0.00  0.00    +0.011 C 
ATOM      9  C   UNL     1      48.299  19.090  18.488  0.00  0.00    +0.034 C 
ATOM     20  C   UNL     1      47.962  17.609  18.676  0.00  0.00    +0.030 C 
ATOM     21  C   UNL     1      47.603  16.782  17.444  0.00  0.00    +0.181 C 
ATOM     22  O   UNL     1      46.617  17.210  18.386  0.00  0.00    -0.344 OA
ATOM     23  C   UNL     1      48.653  16.906  19.844  0.00  0.00    +0.046 C 
ATOM     24  C   UNL     1      50.163  17.167  19.803  0.00  0.00    +0.030 C 
ATOM     25  C   UNL     1      50.427  18.671  19.737  0.00  0.00    +0.005 C 
ENDROOT
BRANCH   9  10
ATOM     10  C   UNL     1      47.639  19.911  19.592  0.00  0.00    +0.071 C 
BRANCH  10  11
ATOM     11  C   UNL     1      46.332  20.467  19.090  0.00  0.00    +0.083 C 
ATOM     12  C   UNL     1      45.234  20.362  19.837  0.00  0.00    -0.142 C 
BRANCH  12  17
ATOM     17  C   UNL     1      43.948  20.997  19.377  0.00  0.00    +0.184 C 
ATOM     18  C   UNL     1      42.914  20.100  18.693  0.00  0.00    +0.217 C 
ATOM     19  O   UNL     1      42.739  20.595  20.023  0.00  0.00    -0.349 OA
ENDBRANCH  12  17
BRANCH  12  13
ATOM     13  C   UNL     1      45.279  19.627  21.108  0.00  0.00    +0.516 C 
ATOM     16  O   UNL     1      45.326  20.234  22.159  0.00  0.00    -0.489 OA
BRANCH  13  14
ATOM     14  O   UNL     1      45.268  18.279  21.108  0.00  0.00    -0.349 OA
ATOM     15  C   UNL     1      44.008  17.640  21.328  0.00  0.00    +0.256 C 
ENDBRANCH  13  14
ENDBRANCH  12  13
ENDBRANCH  10  11
ENDBRANCH   9  10
TORSDOF 5
ENDMDL
MODEL 7
REMARK VINA RESULT:      -5.3      3.858      6.969
REMARK  Name = ZINC95486144
REMARK  9 active torsions:
REMARK  status: ('A' for Active; 'I' for Inactive)
REMARK    1  A    between atoms: C1_1  and  C2_2
REMARK    2  A    between atoms: C6_6  and  C20_27
REMARK    3  A    between atoms: C6_6  and  C21_28
REMARK    4  A    between atoms: C11_12  and  C12_14
REMARK    5  A    between atoms: C12_14  and  C13_15
REMARK    6  A    between atoms: C14_16  and  C15_17
REMARK    7  A    between atoms: C14_16  and  C17_21
REMARK    8  A    between atoms: C17_21  and  O3_23
REMARK    9  A    between atoms: O3_23  and  C18_24
REMARK                            x       y       z     vdW  Elec       q    Type
REMARK                         _______ _______ _______ _____ _____    ______ ____
ROOT
ATOM      1  C   UNL     1      52.964  18.286  18.758  0.00  0.00    +0.029 C 
ATOM      2  C   UNL     1      51.626  18.137  18.015  0.00  0.00    -0.031 C 
ATOM      3  C   UNL     1      51.842  18.527  16.552  0.00  0.00    +0.019 C 
ATOM      4  C   UNL     1      52.206  20.011  16.466  0.00  0.00    +0.007 C 
ATOM      5  C   UNL     1      51.037  20.840  16.990  0.00  0.00    +0.012 C 
ATOM      6  C   UNL     1      50.695  20.485  18.436  0.00  0.00    -0.050 C 
ATOM      7  C   UNL     1      51.719  21.111  19.381  0.00  0.00    +0.024 C 
ATOM      8  C   UNL     1      49.331  21.152  18.737  0.00  0.00    +0.011 C 
ATOM      9  C   UNL     1      51.242  16.651  18.090  0.00  0.00    +0.034 C 
ATOM     20  C   UNL     1      50.946  16.276  19.544  0.00  0.00    +0.030 C 
ATOM     21  C   UNL     1      52.036  15.575  20.351  0.00  0.00    +0.181 C 
ATOM     22  O   UNL     1      50.893  14.878  19.852  0.00  0.00    -0.344 OA
ATOM     23  C   UNL     1      49.966  17.184  20.286  0.00  0.00    +0.046 C 
ATOM     24  C   UNL     1      50.379  18.651  20.129  0.00  0.00    +0.030 C 
ATOM     25  C   UNL     1      50.538  18.988  18.646  0.00  0.00    +0.005 C 
ENDROOT
BRANCH   9  10
ATOM     10  C   UNL     1      50.029  16.335  17.221  0.00  0.00    +0.071 C 
BRANCH  10  11
ATOM     11  C   UNL     1      50.210  14.984  16.578  0.00  0.00    +0.083 C 
ATOM     12  C   UNL     1      49.196  14.124  16.540  0.00  0.00    -0.142 C 
BRANCH  12  17
ATOM     17  C   UNL     1      49.349  12.811  15.818  0.00  0.00    +0.184 C 
ATOM     18  C   UNL     1      48.860  12.731  14.370  0.00  0.00    +0.217 C 
ATOM     19  O   UNL     1      50.249  12.762  14.708  0.00  0.00    -0.349 OA
ENDBRANCH  12  17
BRANCH  12  13
ATOM     13  C   UNL     1      47.927  14.455  17.202  0.00  0.00    +0.516 C 
ATOM     16  O   UNL     1      47.767  14.189  18.377  0.00  0.00    -0.489 OA
BRANCH  13  14
ATOM     14  O   UNL     1      46.939  15.052  16.506  0.00  0.00    -0.349 OA
ATOM     15  C   UNL     1      46.458  16.303  17.004  0.00  0.00    +0.256 C 
ENDBRANCH  13  14
ENDBRANCH  12  13
ENDBRANCH  10  11
ENDBRANCH   9  10
TORSDOF 5
ENDMDL
MODEL 8
REMARK VINA RESULT:      -5.2      2.829      6.698
REMARK  Name = ZINC95486144
REMARK  9 active torsions:
REMARK  status: ('A' for Active; 'I' for Inactive)
REMARK    1  A    between atoms: C1_1  and  C2_2
REMARK    2  A    between atoms: C6_6  and  C20_27
REMARK    3  A    between atoms: C6_6  and  C21_28
REMARK    4  A    between atoms: C11_12  and  C12_14
REMARK    5  A    between atoms: C12_14  and  C13_15
REMARK    6  A    between atoms: C14_16  and  C15_17
REMARK    7  A    between atoms: C14_16  and  C17_21
REMARK    8  A    between atoms: C17_21  and  O3_23
REMARK    9  A    between atoms: O3_23  and  C18_24
REMARK                            x       y       z     vdW  Elec       q    Type
REMARK                         _______ _______ _______ _____ _____    ______ ____
ROOT
ATOM      1  C   UNL     1      48.423  16.336  20.408  0.00  0.00    +0.029 C 
ATOM      2  C   UNL     1      47.385  16.850  19.398  0.00  0.00    -0.031 C 
ATOM      3  C   UNL     1      45.991  16.654  19.998  0.00  0.00    +0.019 C 
ATOM      4  C   UNL     1      45.711  15.159  20.164  0.00  0.00    +0.007 C 
ATOM      5  C   UNL     1      45.711  14.499  18.789  0.00  0.00    +0.012 C 
ATOM      6  C   UNL     1      47.045  14.687  18.070  0.00  0.00    -0.050 C 
ATOM      7  C   UNL     1      48.090  13.740  18.657  0.00  0.00    +0.024 C 
ATOM      8  C   UNL     1      46.814  14.255  16.601  0.00  0.00    +0.011 C 
ATOM      9  C   UNL     1      47.650  18.353  19.216  0.00  0.00    +0.034 C 
ATOM     20  C   UNL     1      49.009  18.551  18.542  0.00  0.00    +0.030 C 
ATOM     21  C   UNL     1      50.211  18.898  19.416  0.00  0.00    +0.181 C 
ATOM     22  O   UNL     1      49.567  19.870  18.588  0.00  0.00    -0.344 OA
ATOM     23  C   UNL     1      49.250  17.744  17.266  0.00  0.00    +0.046 C 
ATOM     24  C   UNL     1      48.919  16.267  17.502  0.00  0.00    +0.030 C 
ATOM     25  C   UNL     1      47.502  16.136  18.062  0.00  0.00    +0.005 C 
ENDROOT
BRANCH   9  10
ATOM     10  C   UNL     1      46.560  19.024  18.385  0.00  0.00    +0.071 C 
BRANCH  10  11
ATOM     11  C   UNL     1      46.403  20.455  18.827  0.00  0.00    +0.083 C 
ATOM     12  C   UNL     1      45.227  20.887  19.279  0.00  0.00    -0.142 C 
BRANCH  12  17
ATOM     17  C   UNL     1      45.093  22.292  19.806  0.00  0.00    +0.184 C 
ATOM     18  C   UNL     1      44.792  22.469  21.296  0.00  0.00    +0.217 C 
ATOM     19  O   UNL     1      46.077  22.751  20.735  0.00  0.00    -0.349 OA
ENDBRANCH  12  17
BRANCH  12  13
ATOM     13  C   UNL     1      44.061  19.993  19.262  0.00  0.00    +0.516 C 
ATOM     16  O   UNL     1      43.364  19.921  18.270  0.00  0.00    -0.489 OA
BRANCH  13  14
ATOM     14  O   UNL     1      43.765  19.252  20.349  0.00  0.00    -0.349 OA
ATOM     15  C   UNL     1      42.382  18.983  20.593  0.00  0.00    +0.256 C 
ENDBRANCH  13  14
ENDBRANCH  12  13
ENDBRANCH  10  11
ENDBRANCH   9  10
TORSDOF 5
ENDMDL
MODEL 9
REMARK VINA RESULT:      -5.1      3.031      6.495
REMARK  Name = ZINC95486144
REMARK  9 active torsions:
REMARK  status: ('A' for Active; 'I' for Inactive)
REMARK    1  A    between atoms: C1_1  and  C2_2
REMARK    2  A    between atoms: C6_6  and  C20_27
REMARK    3  A    between atoms: C6_6  and  C21_28
REMARK    4  A    between atoms: C11_12  and  C12_14
REMARK    5  A    between atoms: C12_14  and  C13_15
REMARK    6  A    between atoms: C14_16  and  C15_17
REMARK    7  A    between atoms: C14_16  and  C17_21
REMARK    8  A    between atoms: C17_21  and  O3_23
REMARK    9  A    between atoms: O3_23  and  C18_24
REMARK                            x       y       z     vdW  Elec       q    Type
REMARK                         _______ _______ _______ _____ _____    ______ ____
ROOT
ATOM      1  C   UNL     1      50.966  20.002  21.247  0.00  0.00    +0.029 C 
ATOM      2  C   UNL     1      50.353  18.992  20.264  0.00  0.00    -0.031 C 
ATOM      3  C   UNL     1      51.141  17.684  20.363  0.00  0.00    +0.019 C 
ATOM      4  C   UNL     1      52.577  17.915  19.887  0.00  0.00    +0.007 C 
ATOM      5  C   UNL     1      52.552  18.321  18.416  0.00  0.00    +0.012 C 
ATOM      6  C   UNL     1      51.735  19.592  18.193  0.00  0.00    -0.050 C 
ATOM      7  C   UNL     1      52.537  20.812  18.641  0.00  0.00    +0.024 C 
ATOM      8  C   UNL     1      51.532  19.716  16.663  0.00  0.00    +0.011 C 
ATOM      9  C   UNL     1      48.908  18.746  20.726  0.00  0.00    +0.034 C 
ATOM     20  C   UNL     1      48.094  20.031  20.552  0.00  0.00    +0.030 C 
ATOM     21  C   UNL     1      47.862  20.915  21.774  0.00  0.00    +0.181 C 
ATOM     22  O   UNL     1      46.831  20.091  21.225  0.00  0.00    -0.344 OA
ATOM     23  C   UNL     1      48.177  20.698  19.180  0.00  0.00    +0.046 C 
ATOM     24  C   UNL     1      49.641  20.867  18.759  0.00  0.00    +0.030 C 
ATOM     25  C   UNL     1      50.362  19.521  18.840  0.00  0.00    +0.005 C 
ENDROOT
BRANCH   9  10
ATOM     10  C   UNL     1      48.249  17.611  19.947  0.00  0.00    +0.071 C 
BRANCH  10  11
ATOM     11  C   UNL     1      47.483  16.730  20.898  0.00  0.00    +0.083 C 
ATOM     12  C   UNL     1      46.314  16.210  20.529  0.00  0.00    -0.142 C 
BRANCH  12  17
ATOM     17  C   UNL     1      45.591  15.256  21.443  0.00  0.00    +0.184 C 
ATOM     18  C   UNL     1      45.908  13.765  21.313  0.00  0.00    +0.217 C 
ATOM     19  O   UNL     1      46.366  14.551  22.416  0.00  0.00    -0.349 OA
ENDBRANCH  12  17
BRANCH  12  13
ATOM     13  C   UNL     1      45.730  16.568  19.229  0.00  0.00    +0.516 C 
ATOM     16  O   UNL     1      45.093  17.596  19.112  0.00  0.00    -0.489 OA
BRANCH  13  14
ATOM     14  O   UNL     1      45.898  15.755  18.167  0.00  0.00    -0.349 OA
ATOM     15  C   UNL     1      46.455  16.337  16.986  0.00  0.00    +0.256 C 
ENDBRANCH  13  14
ENDBRANCH  12  13
ENDBRANCH  10  11
ENDBRANCH   9  10
TORSDOF 5
ENDMDL
