MODEL 1
REMARK VINA RESULT:      -6.5      0.000      0.000
REMARK  Name = ZINC95485954
REMARK  8 active torsions:
REMARK  status: ('A' for Active; 'I' for Inactive)
REMARK    1  A    between atoms: C1_1  and  O1_2
REMARK    2  A    between atoms: O1_2  and  C2_3
REMARK    3  A    between atoms: C3_4  and  C17_24
REMARK    4  A    between atoms: C18_26  and  O12_39
REMARK    5  A    between atoms: C19_28  and  O11_38
REMARK    6  A    between atoms: C20_30  and  O10_37
REMARK    7  A    between atoms: C21_32  and  C22_35
REMARK    8  A    between atoms: C22_35  and  O9_36
REMARK                            x       y       z     vdW  Elec       q    Type
REMARK                         _______ _______ _______ _____ _____    ______ ____
ROOT
ATOM      3  C   UNL     1      47.877  17.335  18.492  0.00  0.00    +0.172 A 
ATOM      4  C   UNL     1      46.568  17.016  18.843  0.00  0.00    -0.066 A 
ATOM     20  C   UNL     1      45.994  15.808  18.496  0.00  0.00    +0.154 A 
ATOM     21  C   UNL     1      46.744  14.881  17.781  0.00  0.00    -0.141 A 
ATOM     22  C   UNL     1      48.069  15.210  17.427  0.00  0.00    -0.058 A 
ATOM     23  C   UNL     1      48.838  14.213  16.671  0.00  0.00    -0.071 A 
ATOM     24  C   UNL     1      48.209  13.077  16.168  0.00  0.00    +0.152 A 
ATOM     25  O   UNL     1      46.873  12.921  16.342  0.00  0.00    -0.267 OA
ATOM     26  C   UNL     1      48.983  12.155  15.471  0.00  0.00    +0.070 A 
ATOM     27  C   UNL     1      50.344  12.393  15.267  0.00  0.00    +0.071 A 
ATOM     28  O   UNL     1      50.863  11.348  14.554  0.00  0.00    -0.291 OA
ATOM     29  C   UNL     1      49.906  10.282  14.683  0.00  0.00    +0.454 C 
ATOM     30  C   UNL     1      50.955  13.547  15.738  0.00  0.00    +0.136 A 
ATOM     31  O   UNL     1      48.657  10.966  14.888  0.00  0.00    -0.286 OA
ATOM     32  C   UNL     1      50.208  14.468  16.457  0.00  0.00    -0.119 A 
ATOM     33  C   UNL     1      50.751  15.703  17.046  0.00  0.00    +0.542 A 
ATOM     34  O   UNL     1      51.942  15.810  17.266  0.00  0.00    -0.410 OA
ATOM     35  O   UNL     1      49.903  16.718  17.340  0.00  0.00    -0.261 OA
ATOM     36  C   UNL     1      46.258  13.554  17.372  0.00  0.00    +0.539 A 
ATOM     37  O   UNL     1      45.322  13.034  17.947  0.00  0.00    -0.411 OA
ATOM     38  C   UNL     1      48.644  16.434  17.760  0.00  0.00    +0.105 A 
ENDROOT
BRANCH   4   5
ATOM      5  C   UNL     1      45.755  18.016  19.624  0.00  0.00    +0.239 C 
ATOM      6  C   UNL     1      44.841  18.787  18.669  0.00  0.00    +0.173 C 
ATOM      9  C   UNL     1      43.974  19.759  19.476  0.00  0.00    +0.123 C 
ATOM     12  C   UNL     1      43.185  18.970  20.527  0.00  0.00    +0.129 C 
ATOM     15  C   UNL     1      44.164  18.192  21.410  0.00  0.00    +0.183 C 
ATOM     19  O   UNL     1      44.959  17.331  20.593  0.00  0.00    -0.341 OA
BRANCH   6   7
ATOM      7  O   UNL     1      45.634  19.520  17.733  0.00  0.00    -0.549 OA
ATOM      8  H   UNL     1      46.055  18.970  17.059  0.00  0.00    +0.392 HD
ENDBRANCH   6   7
BRANCH   9  10
ATOM     10  O   UNL     1      43.067  20.432  18.601  0.00  0.00    -0.556 OA
ATOM     11  H   UNL     1      42.732  21.270  18.949  0.00  0.00    +0.384 HD
ENDBRANCH   9  10
BRANCH  12  13
ATOM     13  O   UNL     1      42.427  19.874  21.333  0.00  0.00    -0.551 OA
ATOM     14  H   UNL     1      41.537  20.047  20.998  0.00  0.00    +0.384 HD
ENDBRANCH  12  13
BRANCH  15  16
ATOM     16  C   UNL     1      43.381  17.355  22.424  0.00  0.00    +0.221 C 
BRANCH  16  17
ATOM     17  O   UNL     1      42.008  17.298  22.034  0.00  0.00    -0.565 OA
ATOM     18  H   UNL     1      41.806  16.589  21.407  0.00  0.00    +0.385 HD
ENDBRANCH  16  17
ENDBRANCH  15  16
ENDBRANCH   4   5
BRANCH   3   2
ATOM      1  C   UNL     1      49.227  18.546  20.028  0.00  0.00    +0.257 C 
ATOM      2  O   UNL     1      48.404  18.532  18.860  0.00  0.00    -0.321 OA
ENDBRANCH   3   2
TORSDOF 7
ENDMDL
MODEL 2
REMARK VINA RESULT:      -6.3      2.018      8.600
REMARK  Name = ZINC95485954
REMARK  8 active torsions:
REMARK  status: ('A' for Active; 'I' for Inactive)
REMARK    1  A    between atoms: C1_1  and  O1_2
REMARK    2  A    between atoms: O1_2  and  C2_3
REMARK    3  A    between atoms: C3_4  and  C17_24
REMARK    4  A    between atoms: C18_26  and  O12_39
REMARK    5  A    between atoms: C19_28  and  O11_38
REMARK    6  A    between atoms: C20_30  and  O10_37
REMARK    7  A    between atoms: C21_32  and  C22_35
REMARK    8  A    between atoms: C22_35  and  O9_36
REMARK                            x       y       z     vdW  Elec       q    Type
REMARK                         _______ _______ _______ _____ _____    ______ ____
ROOT
ATOM      3  C   UNL     1      47.312  12.924  18.265  0.00  0.00    +0.172 A 
ATOM      4  C   UNL     1      47.889  13.477  17.126  0.00  0.00    -0.066 A 
ATOM     20  C   UNL     1      47.710  14.806  16.790  0.00  0.00    +0.154 A 
ATOM     21  C   UNL     1      46.938  15.616  17.614  0.00  0.00    -0.141 A 
ATOM     22  C   UNL     1      46.354  15.049  18.766  0.00  0.00    -0.058 A 
ATOM     23  C   UNL     1      45.542  15.927  19.618  0.00  0.00    -0.071 A 
ATOM     24  C   UNL     1      45.214  17.211  19.190  0.00  0.00    +0.152 A 
ATOM     25  O   UNL     1      45.612  17.628  17.963  0.00  0.00    -0.267 OA
ATOM     26  C   UNL     1      44.454  18.010  20.039  0.00  0.00    +0.070 A 
ATOM     27  C   UNL     1      44.018  17.511  21.269  0.00  0.00    +0.071 A 
ATOM     28  O   UNL     1      43.291  18.484  21.896  0.00  0.00    -0.291 OA
ATOM     29  C   UNL     1      43.635  19.712  21.229  0.00  0.00    +0.454 C 
ATOM     30  C   UNL     1      44.316  16.216  21.670  0.00  0.00    +0.136 A 
ATOM     31  O   UNL     1      44.002  19.290  19.903  0.00  0.00    -0.286 OA
ATOM     32  C   UNL     1      45.093  15.410  20.851  0.00  0.00    -0.119 A 
ATOM     33  C   UNL     1      45.513  14.041  21.187  0.00  0.00    +0.542 A 
ATOM     34  O   UNL     1      45.530  13.666  22.343  0.00  0.00    -0.410 OA
ATOM     35  O   UNL     1      45.883  13.204  20.186  0.00  0.00    -0.261 OA
ATOM     36  C   UNL     1      46.690  17.047  17.380  0.00  0.00    +0.539 A 
ATOM     37  O   UNL     1      47.439  17.698  16.677  0.00  0.00    -0.411 OA
ATOM     38  C   UNL     1      46.517  13.707  19.097  0.00  0.00    +0.105 A 
ENDROOT
BRANCH   4   5
ATOM      5  C   UNL     1      48.733  12.604  16.234  0.00  0.00    +0.239 C 
ATOM      6  C   UNL     1      48.711  13.158  14.808  0.00  0.00    +0.173 C 
ATOM      9  C   UNL     1      49.619  12.300  13.920  0.00  0.00    +0.123 C 
ATOM     12  C   UNL     1      51.031  12.285  14.517  0.00  0.00    +0.129 C 
ATOM     15  C   UNL     1      50.962  11.764  15.955  0.00  0.00    +0.183 C 
ATOM     19  O   UNL     1      50.078  12.588  16.717  0.00  0.00    -0.341 OA
BRANCH   6   7
ATOM      7  O   UNL     1      47.376  13.122  14.301  0.00  0.00    -0.549 OA
ATOM      8  H   UNL     1      46.783  12.540  14.793  0.00  0.00    +0.392 HD
ENDBRANCH   6   7
BRANCH   9  10
ATOM     10  O   UNL     1      49.661  12.853  12.603  0.00  0.00    -0.556 OA
ATOM     11  H   UNL     1      49.123  12.374  11.958  0.00  0.00    +0.384 HD
ENDBRANCH   9  10
BRANCH  12  13
ATOM     13  O   UNL     1      51.869  11.430  13.737  0.00  0.00    -0.551 OA
ATOM     14  H   UNL     1      52.605  11.887  13.307  0.00  0.00    +0.384 HD
ENDBRANCH  12  13
BRANCH  15  16
ATOM     16  C   UNL     1      52.359  11.801  16.578  0.00  0.00    +0.221 C 
BRANCH  16  17
ATOM     17  O   UNL     1      53.068  10.610  16.229  0.00  0.00    -0.565 OA
ATOM     18  H   UNL     1      52.681   9.802  16.593  0.00  0.00    +0.385 HD
ENDBRANCH  16  17
ENDBRANCH  15  16
ENDBRANCH   4   5
BRANCH   3   2
ATOM      1  C   UNL     1      48.543  11.320  19.515  0.00  0.00    +0.257 C 
ATOM      2  O   UNL     1      47.519  11.614  18.562  0.00  0.00    -0.321 OA
ENDBRANCH   3   2
TORSDOF 7
ENDMDL
MODEL 3
REMARK VINA RESULT:      -6.1      2.503      4.638
REMARK  Name = ZINC95485954
REMARK  8 active torsions:
REMARK  status: ('A' for Active; 'I' for Inactive)
REMARK    1  A    between atoms: C1_1  and  O1_2
REMARK    2  A    between atoms: O1_2  and  C2_3
REMARK    3  A    between atoms: C3_4  and  C17_24
REMARK    4  A    between atoms: C18_26  and  O12_39
REMARK    5  A    between atoms: C19_28  and  O11_38
REMARK    6  A    between atoms: C20_30  and  O10_37
REMARK    7  A    between atoms: C21_32  and  C22_35
REMARK    8  A    between atoms: C22_35  and  O9_36
REMARK                            x       y       z     vdW  Elec       q    Type
REMARK                         _______ _______ _______ _____ _____    ______ ____
ROOT
ATOM      3  C   UNL     1      44.511  17.684  20.979  0.00  0.00    +0.172 A 
ATOM      4  C   UNL     1      44.567  18.584  19.918  0.00  0.00    -0.066 A 
ATOM     20  C   UNL     1      45.321  18.332  18.788  0.00  0.00    +0.154 A 
ATOM     21  C   UNL     1      46.040  17.145  18.702  0.00  0.00    -0.141 A 
ATOM     22  C   UNL     1      45.980  16.237  19.780  0.00  0.00    -0.058 A 
ATOM     23  C   UNL     1      46.749  14.992  19.664  0.00  0.00    -0.071 A 
ATOM     24  C   UNL     1      47.645  14.818  18.612  0.00  0.00    +0.152 A 
ATOM     25  O   UNL     1      47.836  15.824  17.724  0.00  0.00    -0.267 OA
ATOM     26  C   UNL     1      48.341  13.615  18.537  0.00  0.00    +0.070 A 
ATOM     27  C   UNL     1      48.152  12.634  19.513  0.00  0.00    +0.071 A 
ATOM     28  O   UNL     1      48.953  11.567  19.212  0.00  0.00    -0.291 OA
ATOM     29  C   UNL     1      49.315  11.735  17.830  0.00  0.00    +0.454 C 
ATOM     30  C   UNL     1      47.286  12.831  20.579  0.00  0.00    +0.136 A 
ATOM     31  O   UNL     1      49.253  13.159  17.632  0.00  0.00    -0.286 OA
ATOM     32  C   UNL     1      46.564  14.013  20.661  0.00  0.00    -0.119 A 
ATOM     33  C   UNL     1      45.584  14.318  21.715  0.00  0.00    +0.542 A 
ATOM     34  O   UNL     1      45.068  13.424  22.358  0.00  0.00    -0.410 OA
ATOM     35  O   UNL     1      45.263  15.613  21.958  0.00  0.00    -0.261 OA
ATOM     36  C   UNL     1      46.860  16.749  17.547  0.00  0.00    +0.539 A 
ATOM     37  O   UNL     1      46.666  17.243  16.453  0.00  0.00    -0.411 OA
ATOM     38  C   UNL     1      45.235  16.496  20.928  0.00  0.00    +0.105 A 
ENDROOT
BRANCH   4   5
ATOM      5  C   UNL     1      43.784  19.868  20.005  0.00  0.00    +0.239 C 
ATOM      6  C   UNL     1      44.678  21.039  19.591  0.00  0.00    +0.173 C 
ATOM      9  C   UNL     1      43.858  22.334  19.624  0.00  0.00    +0.123 C 
ATOM     12  C   UNL     1      42.641  22.178  18.706  0.00  0.00    +0.129 C 
ATOM     15  C   UNL     1      41.826  20.962  19.156  0.00  0.00    +0.183 C 
ATOM     19  O   UNL     1      42.656  19.799  19.131  0.00  0.00    -0.341 OA
BRANCH   6   7
ATOM      7  O   UNL     1      45.777  21.147  20.497  0.00  0.00    -0.549 OA
ATOM      8  H   UNL     1      46.109  20.298  20.815  0.00  0.00    +0.392 HD
ENDBRANCH   6   7
BRANCH   9  10
ATOM     10  O   UNL     1      44.665  23.423  19.169  0.00  0.00    -0.556 OA
ATOM     11  H   UNL     1      44.265  24.293  19.306  0.00  0.00    +0.384 HD
ENDBRANCH   9  10
BRANCH  12  13
ATOM     13  O   UNL     1      41.831  23.352  18.784  0.00  0.00    -0.551 OA
ATOM     14  H   UNL     1      42.284  24.117  19.164  0.00  0.00    +0.384 HD
ENDBRANCH  12  13
BRANCH  15  16
ATOM     16  C   UNL     1      40.641  20.764  18.208  0.00  0.00    +0.221 C 
BRANCH  16  17
ATOM     17  O   UNL     1      39.664  21.778  18.449  0.00  0.00    -0.565 OA
ATOM     18  H   UNL     1      38.877  21.707  17.891  0.00  0.00    +0.385 HD
ENDBRANCH  16  17
ENDBRANCH  15  16
ENDBRANCH   4   5
BRANCH   3   2
ATOM      1  C   UNL     1      42.430  17.423  22.098  0.00  0.00    +0.257 C 
ATOM      2  O   UNL     1      43.750  17.968  22.069  0.00  0.00    -0.321 OA
ENDBRANCH   3   2
TORSDOF 7
ENDMDL
MODEL 4
REMARK VINA RESULT:      -6.0      2.230      8.478
REMARK  Name = ZINC95485954
REMARK  8 active torsions:
REMARK  status: ('A' for Active; 'I' for Inactive)
REMARK    1  A    between atoms: C1_1  and  O1_2
REMARK    2  A    between atoms: O1_2  and  C2_3
REMARK    3  A    between atoms: C3_4  and  C17_24
REMARK    4  A    between atoms: C18_26  and  O12_39
REMARK    5  A    between atoms: C19_28  and  O11_38
REMARK    6  A    between atoms: C20_30  and  O10_37
REMARK    7  A    between atoms: C21_32  and  C22_35
REMARK    8  A    between atoms: C22_35  and  O9_36
REMARK                            x       y       z     vdW  Elec       q    Type
REMARK                         _______ _______ _______ _____ _____    ______ ____
ROOT
ATOM      3  C   UNL     1      50.964  16.695  17.605  0.00  0.00    +0.172 A 
ATOM      4  C   UNL     1      50.426  15.543  17.038  0.00  0.00    -0.066 A 
ATOM     20  C   UNL     1      49.061  15.345  16.947  0.00  0.00    +0.154 A 
ATOM     21  C   UNL     1      48.199  16.324  17.428  0.00  0.00    -0.141 A 
ATOM     22  C   UNL     1      48.750  17.489  18.002  0.00  0.00    -0.058 A 
ATOM     23  C   UNL     1      47.817  18.506  18.502  0.00  0.00    -0.071 A 
ATOM     24  C   UNL     1      46.454  18.232  18.575  0.00  0.00    +0.152 A 
ATOM     25  O   UNL     1      46.000  17.003  18.223  0.00  0.00    -0.267 OA
ATOM     26  C   UNL     1      45.609  19.233  19.043  0.00  0.00    +0.070 A 
ATOM     27  C   UNL     1      46.134  20.461  19.451  0.00  0.00    +0.071 A 
ATOM     28  O   UNL     1      45.102  21.253  19.871  0.00  0.00    -0.291 OA
ATOM     29  C   UNL     1      43.912  20.654  19.330  0.00  0.00    +0.454 C 
ATOM     30  C   UNL     1      47.498  20.712  19.412  0.00  0.00    +0.136 A 
ATOM     31  O   UNL     1      44.255  19.262  19.207  0.00  0.00    -0.286 OA
ATOM     32  C   UNL     1      48.358  19.738  18.926  0.00  0.00    -0.119 A 
ATOM     33  C   UNL     1      49.814  19.902  18.792  0.00  0.00    +0.542 A 
ATOM     34  O   UNL     1      50.308  21.012  18.741  0.00  0.00    -0.410 OA
ATOM     35  O   UNL     1      50.596  18.797  18.727  0.00  0.00    -0.261 OA
ATOM     36  C   UNL     1      46.732  16.244  17.369  0.00  0.00    +0.539 A 
ATOM     37  O   UNL     1      46.183  15.510  16.570  0.00  0.00    -0.411 OA
ATOM     38  C   UNL     1      50.124  17.683  18.111  0.00  0.00    +0.105 A 
ENDROOT
BRANCH   4   5
ATOM      5  C   UNL     1      51.356  14.483  16.510  0.00  0.00    +0.239 C 
ATOM      6  C   UNL     1      51.188  13.201  17.329  0.00  0.00    +0.173 C 
ATOM      9  C   UNL     1      52.093  12.110  16.748  0.00  0.00    +0.123 C 
ATOM     12  C   UNL     1      51.745  11.906  15.270  0.00  0.00    +0.129 C 
ATOM     15  C   UNL     1      51.892  13.238  14.531  0.00  0.00    +0.183 C 
ATOM     19  O   UNL     1      51.047  14.216  15.141  0.00  0.00    -0.341 OA
BRANCH   6   7
ATOM      7  O   UNL     1      51.552  13.450  18.688  0.00  0.00    -0.549 OA
ATOM      8  H   UNL     1      52.190  14.167  18.800  0.00  0.00    +0.392 HD
ENDBRANCH   6   7
BRANCH   9  10
ATOM     10  O   UNL     1      51.889  10.889  17.462  0.00  0.00    -0.556 OA
ATOM     11  H   UNL     1      52.373  10.836  18.298  0.00  0.00    +0.384 HD
ENDBRANCH   9  10
BRANCH  12  13
ATOM     13  O   UNL     1      52.630  10.941  14.700  0.00  0.00    -0.551 OA
ATOM     14  H   UNL     1      53.077  11.244  13.897  0.00  0.00    +0.384 HD
ENDBRANCH  12  13
BRANCH  15  16
ATOM     16  C   UNL     1      51.488  13.056  13.066  0.00  0.00    +0.221 C 
BRANCH  16  17
ATOM     17  O   UNL     1      52.277  13.919  12.244  0.00  0.00    -0.565 OA
ATOM     18  H   UNL     1      53.229  13.850  12.403  0.00  0.00    +0.385 HD
ENDBRANCH  16  17
ENDBRANCH  15  16
ENDBRANCH   4   5
BRANCH   3   2
ATOM      1  C   UNL     1      52.929  16.653  18.941  0.00  0.00    +0.257 C 
ATOM      2  O   UNL     1      52.312  16.853  17.668  0.00  0.00    -0.321 OA
ENDBRANCH   3   2
TORSDOF 7
ENDMDL
MODEL 5
REMARK VINA RESULT:      -5.9      1.795      3.830
REMARK  Name = ZINC95485954
REMARK  8 active torsions:
REMARK  status: ('A' for Active; 'I' for Inactive)
REMARK    1  A    between atoms: C1_1  and  O1_2
REMARK    2  A    between atoms: O1_2  and  C2_3
REMARK    3  A    between atoms: C3_4  and  C17_24
REMARK    4  A    between atoms: C18_26  and  O12_39
REMARK    5  A    between atoms: C19_28  and  O11_38
REMARK    6  A    between atoms: C20_30  and  O10_37
REMARK    7  A    between atoms: C21_32  and  C22_35
REMARK    8  A    between atoms: C22_35  and  O9_36
REMARK                            x       y       z     vdW  Elec       q    Type
REMARK                         _______ _______ _______ _____ _____    ______ ____
ROOT
ATOM      3  C   UNL     1      45.372  16.735  19.618  0.00  0.00    +0.172 A 
ATOM      4  C   UNL     1      45.926  18.005  19.488  0.00  0.00    -0.066 A 
ATOM     20  C   UNL     1      47.099  18.221  18.790  0.00  0.00    +0.154 A 
ATOM     21  C   UNL     1      47.743  17.142  18.195  0.00  0.00    -0.141 A 
ATOM     22  C   UNL     1      47.178  15.857  18.331  0.00  0.00    -0.058 A 
ATOM     23  C   UNL     1      47.879  14.736  17.693  0.00  0.00    -0.071 A 
ATOM     24  C   UNL     1      49.146  14.921  17.146  0.00  0.00    +0.152 A 
ATOM     25  O   UNL     1      49.746  16.133  17.248  0.00  0.00    -0.267 OA
ATOM     26  C   UNL     1      49.764  13.832  16.541  0.00  0.00    +0.070 A 
ATOM     27  C   UNL     1      49.128  12.588  16.517  0.00  0.00    +0.071 A 
ATOM     28  O   UNL     1      49.945  11.698  15.878  0.00  0.00    -0.291 OA
ATOM     29  C   UNL     1      50.894  12.499  15.152  0.00  0.00    +0.454 C 
ATOM     30  C   UNL     1      47.882  12.403  17.099  0.00  0.00    +0.136 A 
ATOM     31  O   UNL     1      50.972  13.715  15.918  0.00  0.00    -0.286 OA
ATOM     32  C   UNL     1      47.236  13.481  17.686  0.00  0.00    -0.119 A 
ATOM     33  C   UNL     1      45.897  13.420  18.293  0.00  0.00    +0.542 A 
ATOM     34  O   UNL     1      45.121  12.535  17.989  0.00  0.00    -0.410 OA
ATOM     35  O   UNL     1      45.541  14.367  19.195  0.00  0.00    -0.261 OA
ATOM     36  C   UNL     1      48.982  17.242  17.409  0.00  0.00    +0.539 A 
ATOM     37  O   UNL     1      49.316  18.300  16.911  0.00  0.00    -0.411 OA
ATOM     38  C   UNL     1      46.006  15.634  19.048  0.00  0.00    +0.105 A 
ENDROOT
BRANCH   4   5
ATOM      5  C   UNL     1      45.227  19.177  20.126  0.00  0.00    +0.239 C 
ATOM      6  C   UNL     1      46.228  20.316  20.337  0.00  0.00    +0.173 C 
ATOM      9  C   UNL     1      45.498  21.525  20.930  0.00  0.00    +0.123 C 
ATOM     12  C   UNL     1      44.352  21.925  19.995  0.00  0.00    +0.129 C 
ATOM     15  C   UNL     1      43.423  20.723  19.798  0.00  0.00    +0.183 C 
ATOM     19  O   UNL     1      44.172  19.625  19.273  0.00  0.00    -0.341 OA
BRANCH   6   7
ATOM      7  O   UNL     1      47.255  19.890  21.235  0.00  0.00    -0.549 OA
ATOM      8  H   UNL     1      47.959  20.539  21.364  0.00  0.00    +0.392 HD
ENDBRANCH   6   7
BRANCH   9  10
ATOM     10  O   UNL     1      46.411  22.617  21.063  0.00  0.00    -0.556 OA
ATOM     11  H   UNL     1      46.907  22.617  21.894  0.00  0.00    +0.384 HD
ENDBRANCH   9  10
BRANCH  12  13
ATOM     13  O   UNL     1      43.619  23.006  20.572  0.00  0.00    -0.551 OA
ATOM     14  H   UNL     1      44.134  23.545  21.189  0.00  0.00    +0.384 HD
ENDBRANCH  12  13
BRANCH  15  16
ATOM     16  C   UNL     1      42.308  21.096  18.818  0.00  0.00    +0.221 C 
BRANCH  16  17
ATOM     17  O   UNL     1      41.149  21.502  19.548  0.00  0.00    -0.565 OA
ATOM     18  H   UNL     1      40.638  20.766  19.914  0.00  0.00    +0.385 HD
ENDBRANCH  16  17
ENDBRANCH  15  16
ENDBRANCH   4   5
BRANCH   3   2
ATOM      1  C   UNL     1      44.324  16.234  21.691  0.00  0.00    +0.257 C 
ATOM      2  O   UNL     1      44.212  16.568  20.306  0.00  0.00    -0.321 OA
ENDBRANCH   3   2
TORSDOF 7
ENDMDL
MODEL 6
REMARK VINA RESULT:      -5.6      2.450      4.473
REMARK  Name = ZINC95485954
REMARK  8 active torsions:
REMARK  status: ('A' for Active; 'I' for Inactive)
REMARK    1  A    between atoms: C1_1  and  O1_2
REMARK    2  A    between atoms: O1_2  and  C2_3
REMARK    3  A    between atoms: C3_4  and  C17_24
REMARK    4  A    between atoms: C18_26  and  O12_39
REMARK    5  A    between atoms: C19_28  and  O11_38
REMARK    6  A    between atoms: C20_30  and  O10_37
REMARK    7  A    between atoms: C21_32  and  C22_35
REMARK    8  A    between atoms: C22_35  and  O9_36
REMARK                            x       y       z     vdW  Elec       q    Type
REMARK                         _______ _______ _______ _____ _____    ______ ____
ROOT
ATOM      3  C   UNL     1      46.226  16.888  20.829  0.00  0.00    +0.172 A 
ATOM      4  C   UNL     1      46.942  18.031  20.484  0.00  0.00    -0.066 A 
ATOM     20  C   UNL     1      47.743  18.077  19.359  0.00  0.00    +0.154 A 
ATOM     21  C   UNL     1      47.835  16.955  18.544  0.00  0.00    -0.141 A 
ATOM     22  C   UNL     1      47.109  15.799  18.899  0.00  0.00    -0.058 A 
ATOM     23  C   UNL     1      47.224  14.627  18.022  0.00  0.00    -0.071 A 
ATOM     24  C   UNL     1      48.165  14.611  16.995  0.00  0.00    +0.152 A 
ATOM     25  O   UNL     1      49.003  15.666  16.840  0.00  0.00    -0.267 OA
ATOM     26  C   UNL     1      48.227  13.484  16.182  0.00  0.00    +0.070 A 
ATOM     27  C   UNL     1      47.382  12.398  16.422  0.00  0.00    +0.071 A 
ATOM     28  O   UNL     1      47.650  11.429  15.495  0.00  0.00    -0.291 OA
ATOM     29  C   UNL     1      48.370  12.094  14.441  0.00  0.00    +0.454 C 
ATOM     30  C   UNL     1      46.474  12.407  17.472  0.00  0.00    +0.136 A 
ATOM     31  O   UNL     1      49.016  13.192  15.109  0.00  0.00    -0.286 OA
ATOM     32  C   UNL     1      46.378  13.530  18.281  0.00  0.00    -0.119 A 
ATOM     33  C   UNL     1      45.426  13.676  19.393  0.00  0.00    +0.542 A 
ATOM     34  O   UNL     1      44.421  12.993  19.439  0.00  0.00    -0.410 OA
ATOM     35  O   UNL     1      45.686  14.585  20.365  0.00  0.00    -0.261 OA
ATOM     36  C   UNL     1      48.633  16.884  17.311  0.00  0.00    +0.539 A 
ATOM     37  O   UNL     1      48.957  17.898  16.724  0.00  0.00    -0.411 OA
ATOM     38  C   UNL     1      46.314  15.743  20.042  0.00  0.00    +0.105 A 
ENDROOT
BRANCH   4   5
ATOM      5  C   UNL     1      46.839  19.252  21.361  0.00  0.00    +0.239 C 
ATOM      6  C   UNL     1      48.223  19.888  21.514  0.00  0.00    +0.173 C 
ATOM      9  C   UNL     1      48.100  21.162  22.357  0.00  0.00    +0.123 C 
ATOM     12  C   UNL     1      47.096  22.107  21.690  0.00  0.00    +0.129 C 
ATOM     15  C   UNL     1      45.756  21.385  21.531  0.00  0.00    +0.183 C 
ATOM     19  O   UNL     1      45.947  20.194  20.764  0.00  0.00    -0.341 OA
BRANCH   6   7
ATOM      7  O   UNL     1      49.103  18.968  22.163  0.00  0.00    -0.549 OA
ATOM      8  H   UNL     1      49.819  18.645  21.600  0.00  0.00    +0.392 HD
ENDBRANCH   6   7
BRANCH   9  10
ATOM     10  O   UNL     1      49.376  21.801  22.445  0.00  0.00    -0.556 OA
ATOM     11  H   UNL     1      49.525  22.478  21.770  0.00  0.00    +0.384 HD
ENDBRANCH   9  10
BRANCH  12  13
ATOM     13  O   UNL     1      46.920  23.268  22.504  0.00  0.00    -0.551 OA
ATOM     14  H   UNL     1      47.469  24.020  22.240  0.00  0.00    +0.384 HD
ENDBRANCH  12  13
BRANCH  15  16
ATOM     16  C   UNL     1      44.764  22.302  20.811  0.00  0.00    +0.221 C 
BRANCH  16  17
ATOM     17  O   UNL     1      44.245  23.260  21.736  0.00  0.00    -0.565 OA
ATOM     18  H   UNL     1      44.735  23.306  22.570  0.00  0.00    +0.385 HD
ENDBRANCH  16  17
ENDBRANCH  15  16
ENDBRANCH   4   5
BRANCH   3   2
ATOM      1  C   UNL     1      44.038  17.045  21.742  0.00  0.00    +0.257 C 
ATOM      2  O   UNL     1      45.444  16.888  21.940  0.00  0.00    -0.321 OA
ENDBRANCH   3   2
TORSDOF 7
ENDMDL
MODEL 7
REMARK VINA RESULT:      -5.5      1.846      8.573
REMARK  Name = ZINC95485954
REMARK  8 active torsions:
REMARK  status: ('A' for Active; 'I' for Inactive)
REMARK    1  A    between atoms: C1_1  and  O1_2
REMARK    2  A    between atoms: O1_2  and  C2_3
REMARK    3  A    between atoms: C3_4  and  C17_24
REMARK    4  A    between atoms: C18_26  and  O12_39
REMARK    5  A    between atoms: C19_28  and  O11_38
REMARK    6  A    between atoms: C20_30  and  O10_37
REMARK    7  A    between atoms: C21_32  and  C22_35
REMARK    8  A    between atoms: C22_35  and  O9_36
REMARK                            x       y       z     vdW  Elec       q    Type
REMARK                         _______ _______ _______ _____ _____    ______ ____
ROOT
ATOM      3  C   UNL     1      47.127  13.951  18.141  0.00  0.00    +0.172 A 
ATOM      4  C   UNL     1      48.284  14.130  17.387  0.00  0.00    -0.066 A 
ATOM     20  C   UNL     1      48.911  15.358  17.294  0.00  0.00    +0.154 A 
ATOM     21  C   UNL     1      48.378  16.445  17.977  0.00  0.00    -0.141 A 
ATOM     22  C   UNL     1      47.205  16.258  18.739  0.00  0.00    -0.058 A 
ATOM     23  C   UNL     1      46.664  17.424  19.450  0.00  0.00    -0.071 A 
ATOM     24  C   UNL     1      47.187  18.693  19.216  0.00  0.00    +0.152 A 
ATOM     25  O   UNL     1      48.169  18.851  18.293  0.00  0.00    -0.267 OA
ATOM     26  C   UNL     1      46.649  19.763  19.923  0.00  0.00    +0.070 A 
ATOM     27  C   UNL     1      45.597  19.555  20.817  0.00  0.00    +0.071 A 
ATOM     28  O   UNL     1      45.254  20.759  21.367  0.00  0.00    -0.291 OA
ATOM     29  C   UNL     1      46.371  21.630  21.115  0.00  0.00    +0.454 C 
ATOM     30  C   UNL     1      45.055  18.293  21.016  0.00  0.00    +0.136 A 
ATOM     31  O   UNL     1      46.961  21.091  19.918  0.00  0.00    -0.286 OA
ATOM     32  C   UNL     1      45.591  17.207  20.339  0.00  0.00    -0.119 A 
ATOM     33  C   UNL     1      45.135  15.818  20.501  0.00  0.00    +0.542 A 
ATOM     34  O   UNL     1      44.527  15.478  21.498  0.00  0.00    -0.410 OA
ATOM     35  O   UNL     1      45.404  14.921  19.520  0.00  0.00    -0.261 OA
ATOM     36  C   UNL     1      48.961  17.796  17.979  0.00  0.00    +0.539 A 
ATOM     37  O   UNL     1      50.133  17.964  17.702  0.00  0.00    -0.411 OA
ATOM     38  C   UNL     1      46.561  15.026  18.820  0.00  0.00    +0.105 A 
ENDROOT
BRANCH   4   5
ATOM      5  C   UNL     1      48.867  12.952  16.651  0.00  0.00    +0.239 C 
ATOM      6  C   UNL     1      48.850  13.231  15.146  0.00  0.00    +0.173 C 
ATOM      9  C   UNL     1      49.500  12.055  14.409  0.00  0.00    +0.123 C 
ATOM     12  C   UNL     1      50.920  11.853  14.946  0.00  0.00    +0.129 C 
ATOM     15  C   UNL     1      50.857  11.627  16.459  0.00  0.00    +0.183 C 
ATOM     19  O   UNL     1      50.214  12.742  17.079  0.00  0.00    -0.341 OA
BRANCH   6   7
ATOM      7  O   UNL     1      47.500  13.385  14.703  0.00  0.00    -0.549 OA
ATOM      8  H   UNL     1      47.009  12.555  14.641  0.00  0.00    +0.392 HD
ENDBRANCH   6   7
BRANCH   9  10
ATOM     10  O   UNL     1      49.552  12.339  13.009  0.00  0.00    -0.556 OA
ATOM     11  H   UNL     1      48.759  12.074  12.523  0.00  0.00    +0.384 HD
ENDBRANCH   9  10
BRANCH  12  13
ATOM     13  O   UNL     1      51.511  10.715  14.317  0.00  0.00    -0.551 OA
ATOM     14  H   UNL     1      51.976  10.918  13.493  0.00  0.00    +0.384 HD
ENDBRANCH  12  13
BRANCH  15  16
ATOM     16  C   UNL     1      52.277  11.483  17.013  0.00  0.00    +0.221 C 
BRANCH  16  17
ATOM     17  O   UNL     1      52.510  12.496  17.993  0.00  0.00    -0.565 OA
ATOM     18  H   UNL     1      53.435  12.573  18.266  0.00  0.00    +0.385 HD
ENDBRANCH  16  17
ENDBRANCH  15  16
ENDBRANCH   4   5
BRANCH   3   2
ATOM      1  C   UNL     1      45.434  12.484  17.347  0.00  0.00    +0.257 C 
ATOM      2  O   UNL     1      46.547  12.724  18.211  0.00  0.00    -0.321 OA
ENDBRANCH   3   2
TORSDOF 7
ENDMDL
MODEL 8
REMARK VINA RESULT:      -5.5      1.599      8.178
REMARK  Name = ZINC95485954
REMARK  8 active torsions:
REMARK  status: ('A' for Active; 'I' for Inactive)
REMARK    1  A    between atoms: C1_1  and  O1_2
REMARK    2  A    between atoms: O1_2  and  C2_3
REMARK    3  A    between atoms: C3_4  and  C17_24
REMARK    4  A    between atoms: C18_26  and  O12_39
REMARK    5  A    between atoms: C19_28  and  O11_38
REMARK    6  A    between atoms: C20_30  and  O10_37
REMARK    7  A    between atoms: C21_32  and  C22_35
REMARK    8  A    between atoms: C22_35  and  O9_36
REMARK                            x       y       z     vdW  Elec       q    Type
REMARK                         _______ _______ _______ _____ _____    ______ ____
ROOT
ATOM      3  C   UNL     1      49.353  16.641  17.904  0.00  0.00    +0.172 A 
ATOM      4  C   UNL     1      49.123  15.285  17.687  0.00  0.00    -0.066 A 
ATOM     20  C   UNL     1      47.976  14.659  18.139  0.00  0.00    +0.154 A 
ATOM     21  C   UNL     1      47.022  15.402  18.824  0.00  0.00    -0.141 A 
ATOM     22  C   UNL     1      47.261  16.776  19.041  0.00  0.00    -0.058 A 
ATOM     23  C   UNL     1      46.237  17.537  19.768  0.00  0.00    -0.071 A 
ATOM     24  C   UNL     1      45.173  16.876  20.377  0.00  0.00    +0.152 A 
ATOM     25  O   UNL     1      45.114  15.521  20.332  0.00  0.00    -0.267 OA
ATOM     26  C   UNL     1      44.221  17.642  21.042  0.00  0.00    +0.070 A 
ATOM     27  C   UNL     1      44.360  19.030  21.110  0.00  0.00    +0.071 A 
ATOM     28  O   UNL     1      43.306  19.535  21.820  0.00  0.00    -0.291 OA
ATOM     29  C   UNL     1      42.313  18.494  21.826  0.00  0.00    +0.454 C 
ATOM     30  C   UNL     1      45.444  19.677  20.535  0.00  0.00    +0.136 A 
ATOM     31  O   UNL     1      43.083  17.285  21.705  0.00  0.00    -0.286 OA
ATOM     32  C   UNL     1      46.393  18.936  19.845  0.00  0.00    -0.119 A 
ATOM     33  C   UNL     1      47.558  19.511  19.155  0.00  0.00    +0.542 A 
ATOM     34  O   UNL     1      47.565  20.680  18.823  0.00  0.00    -0.410 OA
ATOM     35  O   UNL     1      48.625  18.715  18.893  0.00  0.00    -0.261 OA
ATOM     36  C   UNL     1      45.753  14.861  19.335  0.00  0.00    +0.539 A 
ATOM     37  O   UNL     1      45.286  13.839  18.871  0.00  0.00    -0.411 OA
ATOM     38  C   UNL     1      48.423  17.405  18.603  0.00  0.00    +0.105 A 
ENDROOT
BRANCH   4   5
ATOM      5  C   UNL     1      50.152  14.478  16.939  0.00  0.00    +0.239 C 
ATOM      6  C   UNL     1      50.718  13.395  17.860  0.00  0.00    +0.173 C 
ATOM      9  C   UNL     1      51.720  12.540  17.075  0.00  0.00    +0.123 C 
ATOM     12  C   UNL     1      51.019  11.952  15.847  0.00  0.00    +0.129 C 
ATOM     15  C   UNL     1      50.441  13.092  15.004  0.00  0.00    +0.183 C 
ATOM     19  O   UNL     1      49.542  13.864  15.802  0.00  0.00    -0.341 OA
BRANCH   6   7
ATOM      7  O   UNL     1      51.379  14.007  18.970  0.00  0.00    -0.549 OA
ATOM      8  H   UNL     1      51.217  14.956  19.050  0.00  0.00    +0.392 HD
ENDBRANCH   6   7
BRANCH   9  10
ATOM     10  O   UNL     1      52.200  11.482  17.907  0.00  0.00    -0.556 OA
ATOM     11  H   UNL     1      51.505  11.013  18.389  0.00  0.00    +0.384 HD
ENDBRANCH   9  10
BRANCH  12  13
ATOM     13  O   UNL     1      51.961  11.211  15.069  0.00  0.00    -0.551 OA
ATOM     14  H   UNL     1      52.537  10.636  15.592  0.00  0.00    +0.384 HD
ENDBRANCH  12  13
BRANCH  15  16
ATOM     16  C   UNL     1      49.688  12.509  13.806  0.00  0.00    +0.221 C 
BRANCH  16  17
ATOM     17  O   UNL     1      49.196  11.210  14.140  0.00  0.00    -0.565 OA
ATOM     18  H   UNL     1      48.238  11.114  14.040  0.00  0.00    +0.385 HD
ENDBRANCH  16  17
ENDBRANCH  15  16
ENDBRANCH   4   5
BRANCH   3   2
ATOM      1  C   UNL     1      51.542  17.435  18.378  0.00  0.00    +0.257 C 
ATOM      2  O   UNL     1      50.490  17.219  17.436  0.00  0.00    -0.321 OA
ENDBRANCH   3   2
TORSDOF 7
ENDMDL
MODEL 9
REMARK VINA RESULT:      -5.4      2.199      8.126
REMARK  Name = ZINC95485954
REMARK  8 active torsions:
REMARK  status: ('A' for Active; 'I' for Inactive)
REMARK    1  A    between atoms: C1_1  and  O1_2
REMARK    2  A    between atoms: O1_2  and  C2_3
REMARK    3  A    between atoms: C3_4  and  C17_24
REMARK    4  A    between atoms: C18_26  and  O12_39
REMARK    5  A    between atoms: C19_28  and  O11_38
REMARK    6  A    between atoms: C20_30  and  O10_37
REMARK    7  A    between atoms: C21_32  and  C22_35
REMARK    8  A    between atoms: C22_35  and  O9_36
REMARK                            x       y       z     vdW  Elec       q    Type
REMARK                         _______ _______ _______ _____ _____    ______ ____
ROOT
ATOM      3  C   UNL     1      49.791  16.678  17.777  0.00  0.00    +0.172 A 
ATOM      4  C   UNL     1      49.003  15.530  17.763  0.00  0.00    -0.066 A 
ATOM     20  C   UNL     1      47.794  15.468  18.430  0.00  0.00    +0.154 A 
ATOM     21  C   UNL     1      47.348  16.582  19.130  0.00  0.00    -0.141 A 
ATOM     22  C   UNL     1      48.151  17.742  19.141  0.00  0.00    -0.058 A 
ATOM     23  C   UNL     1      47.655  18.904  19.890  0.00  0.00    -0.071 A 
ATOM     24  C   UNL     1      46.533  18.786  20.705  0.00  0.00    +0.152 A 
ATOM     25  O   UNL     1      45.928  17.579  20.839  0.00  0.00    -0.267 OA
ATOM     26  C   UNL     1      46.094  19.919  21.383  0.00  0.00    +0.070 A 
ATOM     27  C   UNL     1      46.788  21.124  21.258  0.00  0.00    +0.071 A 
ATOM     28  O   UNL     1      46.160  22.065  22.026  0.00  0.00    -0.291 OA
ATOM     29  C   UNL     1      44.848  21.536  22.287  0.00  0.00    +0.454 C 
ATOM     30  C   UNL     1      47.929  21.224  20.474  0.00  0.00    +0.136 A 
ATOM     31  O   UNL     1      45.036  20.110  22.223  0.00  0.00    -0.286 OA
ATOM     32  C   UNL     1      48.371  20.113  19.770  0.00  0.00    -0.119 A 
ATOM     33  C   UNL     1      49.536  20.106  18.872  0.00  0.00    +0.542 A 
ATOM     34  O   UNL     1      49.957  21.144  18.397  0.00  0.00    -0.410 OA
ATOM     35  O   UNL     1      50.134  18.924  18.581  0.00  0.00    -0.261 OA
ATOM     36  C   UNL     1      46.073  16.651  19.860  0.00  0.00    +0.539 A 
ATOM     37  O   UNL     1      45.164  15.890  19.591  0.00  0.00    -0.411 OA
ATOM     38  C   UNL     1      49.377  17.802  18.485  0.00  0.00    +0.105 A 
ENDROOT
BRANCH   4   5
ATOM      5  C   UNL     1      49.481  14.323  16.999  0.00  0.00    +0.239 C 
ATOM      6  C   UNL     1      49.605  13.132  17.953  0.00  0.00    +0.173 C 
ATOM      9  C   UNL     1      50.033  11.893  17.158  0.00  0.00    +0.123 C 
ATOM     12  C   UNL     1      49.017  11.640  16.040  0.00  0.00    +0.129 C 
ATOM     15  C   UNL     1      48.917  12.890  15.161  0.00  0.00    +0.183 C 
ATOM     19  O   UNL     1      48.545  14.009  15.967  0.00  0.00    -0.341 OA
BRANCH   6   7
ATOM      7  O   UNL     1      50.583  13.419  18.954  0.00  0.00    -0.549 OA
ATOM      8  H   UNL     1      51.110  12.654  19.220  0.00  0.00    +0.392 HD
ENDBRANCH   6   7
BRANCH   9  10
ATOM     10  O   UNL     1      50.082  10.760  18.028  0.00  0.00    -0.556 OA
ATOM     11  H   UNL     1      49.411  10.089  17.839  0.00  0.00    +0.384 HD
ENDBRANCH   9  10
BRANCH  12  13
ATOM     13  O   UNL     1      49.443  10.531  15.249  0.00  0.00    -0.551 OA
ATOM     14  H   UNL     1      49.422  10.695  14.296  0.00  0.00    +0.384 HD
ENDBRANCH  12  13
BRANCH  15  16
ATOM     16  C   UNL     1      47.859  12.667  14.077  0.00  0.00    +0.221 C 
BRANCH  16  17
ATOM     17  O   UNL     1      46.851  11.782  14.571  0.00  0.00    -0.565 OA
ATOM     18  H   UNL     1      46.332  11.352  13.877  0.00  0.00    +0.385 HD
ENDBRANCH  16  17
ENDBRANCH  15  16
ENDBRANCH   4   5
BRANCH   3   2
ATOM      1  C   UNL     1      52.152  16.415  17.851  0.00  0.00    +0.257 C 
ATOM      2  O   UNL     1      50.970  16.699  17.101  0.00  0.00    -0.321 OA
ENDBRANCH   3   2
TORSDOF 7
ENDMDL
