MODEL 1
REMARK VINA RESULT:      -6.6      0.000      0.000
REMARK  Name = ZINC95486208
REMARK  12 active torsions:
REMARK  status: ('A' for Active; 'I' for Inactive)
REMARK    1  A    between atoms: C1_1  and  N1_2
REMARK    2  A    between atoms: C7_9  and  O4_35
REMARK    3  A    between atoms: C8_10  and  O3_33
REMARK    4  A    between atoms: C9_11  and  O1_12
REMARK    5  A    between atoms: O1_12  and  C10_13
REMARK    6  A    between atoms: C16_19  and  C19_24
REMARK    7  A    between atoms: C19_24  and  C20_25
REMARK    8  A    between atoms: C23_28  and  O2_31
REMARK    9  A    between atoms: O2_31  and  C26_32
REMARK   10  A    between atoms: O3_33  and  C27_34
REMARK   11  A    between atoms: O4_35  and  C28_36
REMARK   12  A    between atoms: C35_44  and  O5_46
REMARK                            x       y       z     vdW  Elec       q    Type
REMARK                         _______ _______ _______ _____ _____    ______ ____
ROOT
ATOM      1  C   UNL     1      41.509  19.127  19.090  0.00  0.00    +0.201 C 
ATOM      2  N   UNL     1      42.345  19.985  19.941  0.00  0.00    -0.515 NA
ATOM      3  C   UNL     1      43.515  20.474  19.206  0.00  0.00    +0.230 C 
ATOM      4  C   UNL     1      44.249  19.281  18.593  0.00  0.00    +0.072 C 
ATOM      5  C   UNL     1      44.505  18.240  19.653  0.00  0.00    -0.098 A 
ATOM      6  C   UNL     1      43.808  18.239  20.843  0.00  0.00    -0.058 A 
ATOM      7  C   UNL     1      44.070  17.262  21.793  0.00  0.00    -0.048 A 
ATOM      8  C   UNL     1      45.027  16.290  21.558  0.00  0.00    +0.122 A 
ATOM     11  C   UNL     1      45.730  16.289  20.360  0.00  0.00    +0.062 A 
ATOM     14  C   UNL     1      45.467  17.266  19.409  0.00  0.00    +0.106 A 
ATOM     36  C   UNL     1      44.456  21.216  20.116  0.00  0.00    -0.077 A 
ATOM     37  C   UNL     1      45.430  22.021  19.543  0.00  0.00    +0.032 A 
ATOM     38  C   UNL     1      46.316  22.720  20.336  0.00  0.00    -0.016 A 
ATOM     39  C   UNL     1      46.235  22.618  21.717  0.00  0.00    +0.111 A 
ATOM     42  C   UNL     1      45.236  21.864  22.282  0.00  0.00    -0.022 A 
ATOM     43  C   UNL     1      44.358  21.149  21.486  0.00  0.00    -0.047 A 
ATOM     44  C   UNL     1      43.318  20.288  22.155  0.00  0.00    +0.108 C 
ATOM     45  C   UNL     1      42.761  19.275  21.154  0.00  0.00    +0.226 C 
ENDROOT
BRANCH   8   9
ATOM      9  O   UNL     1      45.277  15.338  22.496  0.00  0.00    -0.302 OA
ATOM     10  C   UNL     1      44.421  14.194  22.503  0.00  0.00    +0.244 C 
ENDBRANCH   8   9
BRANCH  11  12
ATOM     12  O   UNL     1      46.672  15.336  20.119  0.00  0.00    -0.317 OA
ATOM     13  C   UNL     1      46.302  14.261  19.254  0.00  0.00    +0.228 C 
ENDBRANCH  11  12
BRANCH  39  40
ATOM     40  O   UNL     1      47.106  23.302  22.504  0.00  0.00    -0.500 OA
ATOM     41  H   UNL     1      46.987  23.147  23.451  0.00  0.00    +0.391 HD
ENDBRANCH  39  40
BRANCH  14  15
ATOM     15  O   UNL     1      46.152  17.271  18.234  0.00  0.00    -0.249 OA
BRANCH  15  16
ATOM     16  C   UNL     1      47.397  17.815  18.224  0.00  0.00    +0.128 A 
ATOM     17  C   UNL     1      47.598  19.102  18.705  0.00  0.00    -0.054 A 
ATOM     18  C   UNL     1      48.865  19.646  18.693  0.00  0.00    +0.047 A 
ATOM     19  C   UNL     1      49.939  18.917  18.203  0.00  0.00    -0.107 A 
ATOM     20  C   UNL     1      49.741  17.641  17.720  0.00  0.00    -0.076 A 
ATOM     21  C   UNL     1      50.874  16.816  17.167  0.00  0.00    +0.232 C 
ATOM     31  N   UNL     1      52.165  17.362  17.597  0.00  0.00    -0.666 NA
ATOM     32  H   UNL     1      52.315  17.202  18.582  0.00  0.00    +0.341 HD
ATOM     33  C   UNL     1      52.244  18.796  17.276  0.00  0.00    +0.215 C 
ATOM     34  C   UNL     1      51.305  19.555  18.216  0.00  0.00    +0.039 C 
ATOM     35  C   UNL     1      48.470  17.088  17.739  0.00  0.00    -0.007 A 
BRANCH  21  22
ATOM     22  C   UNL     1      50.743  15.377  17.670  0.00  0.00    +0.084 C 
BRANCH  22  23
ATOM     23  C   UNL     1      50.643  14.441  16.493  0.00  0.00    -0.106 A 
ATOM     24  C   UNL     1      51.717  14.297  15.633  0.00  0.00    +0.047 A 
ATOM     25  C   UNL     1      51.628  13.441  14.552  0.00  0.00    -0.025 A 
ATOM     26  C   UNL     1      50.460  12.725  14.331  0.00  0.00    +0.122 A 
ATOM     29  C   UNL     1      49.385  12.872  15.195  0.00  0.00    -0.082 A 
ATOM     30  C   UNL     1      49.481  13.725  16.277  0.00  0.00    +0.067 A 
BRANCH  26  27
ATOM     27  O   UNL     1      50.370  11.883  13.268  0.00  0.00    -0.320 OA
ATOM     28  C   UNL     1      51.332  10.829  13.192  0.00  0.00    +0.237 C 
ENDBRANCH  26  27
ENDBRANCH  22  23
ENDBRANCH  21  22
ENDBRANCH  15  16
ENDBRANCH  14  15
TORSDOF 8
ENDMDL
MODEL 2
REMARK VINA RESULT:      -6.2      2.817      8.863
REMARK  Name = ZINC95486208
REMARK  12 active torsions:
REMARK  status: ('A' for Active; 'I' for Inactive)
REMARK    1  A    between atoms: C1_1  and  N1_2
REMARK    2  A    between atoms: C7_9  and  O4_35
REMARK    3  A    between atoms: C8_10  and  O3_33
REMARK    4  A    between atoms: C9_11  and  O1_12
REMARK    5  A    between atoms: O1_12  and  C10_13
REMARK    6  A    between atoms: C16_19  and  C19_24
REMARK    7  A    between atoms: C19_24  and  C20_25
REMARK    8  A    between atoms: C23_28  and  O2_31
REMARK    9  A    between atoms: O2_31  and  C26_32
REMARK   10  A    between atoms: O3_33  and  C27_34
REMARK   11  A    between atoms: O4_35  and  C28_36
REMARK   12  A    between atoms: C35_44  and  O5_46
REMARK                            x       y       z     vdW  Elec       q    Type
REMARK                         _______ _______ _______ _____ _____    ______ ____
ROOT
ATOM      1  C   UNL     1      46.218  16.635  17.222  0.00  0.00    +0.201 C 
ATOM      2  N   UNL     1      47.026  15.430  17.454  0.00  0.00    -0.515 NA
ATOM      3  C   UNL     1      47.106  15.117  18.884  0.00  0.00    +0.230 C 
ATOM      4  C   UNL     1      47.588  16.358  19.636  0.00  0.00    +0.072 C 
ATOM      5  C   UNL     1      48.843  16.890  18.991  0.00  0.00    -0.098 A 
ATOM      6  C   UNL     1      49.201  16.528  17.709  0.00  0.00    -0.058 A 
ATOM      7  C   UNL     1      50.363  17.041  17.149  0.00  0.00    -0.048 A 
ATOM      8  C   UNL     1      51.165  17.912  17.865  0.00  0.00    +0.122 A 
ATOM     11  C   UNL     1      50.806  18.277  19.157  0.00  0.00    +0.062 A 
ATOM     14  C   UNL     1      49.644  17.765  19.717  0.00  0.00    +0.106 A 
ATOM     36  C   UNL     1      48.062  13.985  19.139  0.00  0.00    -0.077 A 
ATOM     37  C   UNL     1      48.012  13.343  20.368  0.00  0.00    +0.032 A 
ATOM     38  C   UNL     1      48.870  12.300  20.649  0.00  0.00    -0.016 A 
ATOM     39  C   UNL     1      49.791  11.888  19.697  0.00  0.00    +0.111 A 
ATOM     42  C   UNL     1      49.800  12.487  18.462  0.00  0.00    -0.022 A 
ATOM     43  C   UNL     1      48.951  13.546  18.186  0.00  0.00    -0.047 A 
ATOM     44  C   UNL     1      49.043  14.210  16.836  0.00  0.00    +0.108 C 
ATOM     45  C   UNL     1      48.369  15.582  16.887  0.00  0.00    +0.226 C 
ENDROOT
BRANCH   8   9
ATOM      9  O   UNL     1      52.302  18.408  17.308  0.00  0.00    -0.302 OA
ATOM     10  C   UNL     1      52.144  19.334  16.231  0.00  0.00    +0.244 C 
ENDBRANCH   8   9
BRANCH  11  12
ATOM     12  O   UNL     1      51.589  19.134  19.869  0.00  0.00    -0.317 OA
ATOM     13  C   UNL     1      52.369  18.574  20.927  0.00  0.00    +0.228 C 
ENDBRANCH  11  12
BRANCH  39  40
ATOM     40  O   UNL     1      50.639  10.862  19.967  0.00  0.00    -0.500 OA
ATOM     41  H   UNL     1      51.477  10.906  19.486  0.00  0.00    +0.391 HD
ENDBRANCH  39  40
BRANCH  14  15
ATOM     15  O   UNL     1      49.286  18.119  20.981  0.00  0.00    -0.249 OA
BRANCH  15  16
ATOM     16  C   UNL     1      48.478  19.199  21.136  0.00  0.00    +0.128 A 
ATOM     17  C   UNL     1      48.945  20.469  20.825  0.00  0.00    -0.054 A 
ATOM     18  C   UNL     1      48.117  21.561  20.984  0.00  0.00    +0.047 A 
ATOM     19  C   UNL     1      46.821  21.398  21.453  0.00  0.00    -0.107 A 
ATOM     20  C   UNL     1      46.356  20.139  21.766  0.00  0.00    -0.076 A 
ATOM     21  C   UNL     1      44.961  19.915  22.290  0.00  0.00    +0.232 C 
ATOM     31  N   UNL     1      44.115  21.079  22.012  0.00  0.00    -0.666 NA
ATOM     32  H   UNL     1      43.908  21.149  21.027  0.00  0.00    +0.341 HD
ATOM     33  C   UNL     1      44.760  22.306  22.505  0.00  0.00    +0.215 C 
ATOM     34  C   UNL     1      45.954  22.622  21.604  0.00  0.00    +0.039 C 
ATOM     35  C   UNL     1      47.183  19.038  21.600  0.00  0.00    -0.007 A 
BRANCH  21  22
ATOM     22  C   UNL     1      44.360  18.681  21.612  0.00  0.00    +0.084 C 
BRANCH  22  23
ATOM     23  C   UNL     1      43.256  19.109  20.680  0.00  0.00    -0.106 A 
ATOM     24  C   UNL     1      41.936  18.883  21.024  0.00  0.00    +0.047 A 
ATOM     25  C   UNL     1      40.921  19.273  20.171  0.00  0.00    -0.025 A 
ATOM     26  C   UNL     1      41.229  19.892  18.968  0.00  0.00    +0.122 A 
ATOM     29  C   UNL     1      42.554  20.117  18.625  0.00  0.00    -0.082 A 
ATOM     30  C   UNL     1      43.564  19.730  19.484  0.00  0.00    +0.067 A 
BRANCH  26  27
ATOM     27  O   UNL     1      40.233  20.276  18.127  0.00  0.00    -0.320 OA
ATOM     28  C   UNL     1      39.595  21.524  18.404  0.00  0.00    +0.237 C 
ENDBRANCH  26  27
ENDBRANCH  22  23
ENDBRANCH  21  22
ENDBRANCH  15  16
ENDBRANCH  14  15
TORSDOF 8
ENDMDL
MODEL 3
REMARK VINA RESULT:      -6.2      2.971      5.489
REMARK  Name = ZINC95486208
REMARK  12 active torsions:
REMARK  status: ('A' for Active; 'I' for Inactive)
REMARK    1  A    between atoms: C1_1  and  N1_2
REMARK    2  A    between atoms: C7_9  and  O4_35
REMARK    3  A    between atoms: C8_10  and  O3_33
REMARK    4  A    between atoms: C9_11  and  O1_12
REMARK    5  A    between atoms: O1_12  and  C10_13
REMARK    6  A    between atoms: C16_19  and  C19_24
REMARK    7  A    between atoms: C19_24  and  C20_25
REMARK    8  A    between atoms: C23_28  and  O2_31
REMARK    9  A    between atoms: O2_31  and  C26_32
REMARK   10  A    between atoms: O3_33  and  C27_34
REMARK   11  A    between atoms: O4_35  and  C28_36
REMARK   12  A    between atoms: C35_44  and  O5_46
REMARK                            x       y       z     vdW  Elec       q    Type
REMARK                         _______ _______ _______ _____ _____    ______ ____
ROOT
ATOM      1  C   UNL     1      48.805  19.252  19.148  0.00  0.00    +0.201 C 
ATOM      2  N   UNL     1      47.357  19.311  19.388  0.00  0.00    -0.515 NA
ATOM      3  C   UNL     1      47.037  18.925  20.766  0.00  0.00    +0.230 C 
ATOM      4  C   UNL     1      47.674  17.566  21.060  0.00  0.00    +0.072 C 
ATOM      5  C   UNL     1      47.300  16.583  19.979  0.00  0.00    -0.098 A 
ATOM      6  C   UNL     1      46.818  17.006  18.758  0.00  0.00    -0.058 A 
ATOM      7  C   UNL     1      46.487  16.070  17.788  0.00  0.00    -0.048 A 
ATOM      8  C   UNL     1      46.635  14.716  18.035  0.00  0.00    +0.122 A 
ATOM     11  C   UNL     1      47.121  14.288  19.265  0.00  0.00    +0.062 A 
ATOM     14  C   UNL     1      47.453  15.225  20.235  0.00  0.00    +0.106 A 
ATOM     36  C   UNL     1      45.550  18.826  20.969  0.00  0.00    -0.077 A 
ATOM     37  C   UNL     1      45.062  18.801  22.268  0.00  0.00    +0.032 A 
ATOM     38  C   UNL     1      43.706  18.710  22.505  0.00  0.00    -0.016 A 
ATOM     39  C   UNL     1      42.822  18.641  21.439  0.00  0.00    +0.111 A 
ATOM     42  C   UNL     1      43.303  18.722  20.155  0.00  0.00    -0.022 A 
ATOM     43  C   UNL     1      44.665  18.796  19.917  0.00  0.00    -0.047 A 
ATOM     44  C   UNL     1      45.145  18.820  18.489  0.00  0.00    +0.108 C 
ATOM     45  C   UNL     1      46.632  18.464  18.436  0.00  0.00    +0.226 C 
ENDROOT
BRANCH   8   9
ATOM      9  O   UNL     1      46.308  13.808  17.078  0.00  0.00    -0.302 OA
ATOM     10  C   UNL     1      47.198  13.686  15.968  0.00  0.00    +0.244 C 
ENDBRANCH   8   9
BRANCH  11  12
ATOM     12  O   UNL     1      47.271  12.959  19.517  0.00  0.00    -0.317 OA
ATOM     13  C   UNL     1      48.427  12.321  18.971  0.00  0.00    +0.228 C 
ENDBRANCH  11  12
BRANCH  39  40
ATOM     40  O   UNL     1      41.486  18.549  21.666  0.00  0.00    -0.500 OA
ATOM     41  H   UNL     1      40.957  19.186  21.165  0.00  0.00    +0.391 HD
ENDBRANCH  39  40
BRANCH  14  15
ATOM     15  O   UNL     1      47.928  14.813  21.441  0.00  0.00    -0.249 OA
BRANCH  15  16
ATOM     16  C   UNL     1      49.215  14.381  21.506  0.00  0.00    +0.128 A 
ATOM     17  C   UNL     1      49.563  13.358  22.378  0.00  0.00    -0.054 A 
ATOM     18  C   UNL     1      50.871  12.925  22.436  0.00  0.00    +0.047 A 
ATOM     19  C   UNL     1      51.840  13.504  21.629  0.00  0.00    -0.107 A 
ATOM     20  C   UNL     1      51.498  14.523  20.765  0.00  0.00    -0.076 A 
ATOM     21  C   UNL     1      52.518  15.190  19.880  0.00  0.00    +0.232 C 
ATOM     31  N   UNL     1      53.722  14.362  19.768  0.00  0.00    -0.666 NA
ATOM     32  H   UNL     1      53.543  13.537  19.215  0.00  0.00    +0.341 HD
ATOM     33  C   UNL     1      54.220  14.003  21.106  0.00  0.00    +0.215 C 
ATOM     34  C   UNL     1      53.255  12.992  21.726  0.00  0.00    +0.039 C 
ATOM     35  C   UNL     1      50.182  14.956  20.699  0.00  0.00    -0.007 A 
BRANCH  21  22
ATOM     22  C   UNL     1      51.918  15.399  18.488  0.00  0.00    +0.084 C 
BRANCH  22  23
ATOM     23  C   UNL     1      52.005  16.857  18.117  0.00  0.00    -0.106 A 
ATOM     24  C   UNL     1      51.521  17.289  16.896  0.00  0.00    +0.047 A 
ATOM     25  C   UNL     1      51.600  18.625  16.553  0.00  0.00    -0.025 A 
ATOM     26  C   UNL     1      52.166  19.533  17.436  0.00  0.00    +0.122 A 
ATOM     29  C   UNL     1      52.650  19.098  18.661  0.00  0.00    -0.082 A 
ATOM     30  C   UNL     1      52.563  17.762  19.001  0.00  0.00    +0.067 A 
BRANCH  26  27
ATOM     27  O   UNL     1      52.245  20.848  17.102  0.00  0.00    -0.320 OA
ATOM     28  C   UNL     1      51.520  21.268  15.944  0.00  0.00    +0.237 C 
ENDBRANCH  26  27
ENDBRANCH  22  23
ENDBRANCH  21  22
ENDBRANCH  15  16
ENDBRANCH  14  15
TORSDOF 8
ENDMDL
MODEL 4
REMARK VINA RESULT:      -5.9      2.689      6.111
REMARK  Name = ZINC95486208
REMARK  12 active torsions:
REMARK  status: ('A' for Active; 'I' for Inactive)
REMARK    1  A    between atoms: C1_1  and  N1_2
REMARK    2  A    between atoms: C7_9  and  O4_35
REMARK    3  A    between atoms: C8_10  and  O3_33
REMARK    4  A    between atoms: C9_11  and  O1_12
REMARK    5  A    between atoms: O1_12  and  C10_13
REMARK    6  A    between atoms: C16_19  and  C19_24
REMARK    7  A    between atoms: C19_24  and  C20_25
REMARK    8  A    between atoms: C23_28  and  O2_31
REMARK    9  A    between atoms: O2_31  and  C26_32
REMARK   10  A    between atoms: O3_33  and  C27_34
REMARK   11  A    between atoms: O4_35  and  C28_36
REMARK   12  A    between atoms: C35_44  and  O5_46
REMARK                            x       y       z     vdW  Elec       q    Type
REMARK                         _______ _______ _______ _____ _____    ______ ____
ROOT
ATOM      1  C   UNL     1      48.388  17.562  22.371  0.00  0.00    +0.201 C 
ATOM      2  N   UNL     1      47.594  18.751  22.036  0.00  0.00    -0.515 NA
ATOM      3  C   UNL     1      46.867  18.561  20.777  0.00  0.00    +0.230 C 
ATOM      4  C   UNL     1      47.857  18.135  19.693  0.00  0.00    +0.072 C 
ATOM      5  C   UNL     1      49.021  19.092  19.661  0.00  0.00    -0.098 A 
ATOM      6  C   UNL     1      49.292  19.931  20.722  0.00  0.00    -0.058 A 
ATOM      7  C   UNL     1      50.375  20.796  20.656  0.00  0.00    -0.048 A 
ATOM      8  C   UNL     1      51.186  20.825  19.534  0.00  0.00    +0.122 A 
ATOM     11  C   UNL     1      50.915  19.980  18.465  0.00  0.00    +0.062 A 
ATOM     14  C   UNL     1      49.832  19.114  18.532  0.00  0.00    +0.106 A 
ATOM     36  C   UNL     1      46.184  19.831  20.348  0.00  0.00    -0.077 A 
ATOM     37  C   UNL     1      45.194  19.753  19.379  0.00  0.00    +0.032 A 
ATOM     38  C   UNL     1      44.540  20.890  18.952  0.00  0.00    -0.016 A 
ATOM     39  C   UNL     1      44.874  22.123  19.495  0.00  0.00    +0.111 A 
ATOM     42  C   UNL     1      45.814  22.190  20.493  0.00  0.00    -0.022 A 
ATOM     43  C   UNL     1      46.483  21.051  20.909  0.00  0.00    -0.047 A 
ATOM     44  C   UNL     1      47.549  21.188  21.965  0.00  0.00    +0.108 C 
ATOM     45  C   UNL     1      48.442  19.945  21.963  0.00  0.00    +0.226 C 
ENDROOT
BRANCH   8   9
ATOM      9  O   UNL     1      52.244  21.677  19.480  0.00  0.00    -0.302 OA
ATOM     10  C   UNL     1      52.942  21.924  20.702  0.00  0.00    +0.244 C 
ENDBRANCH   8   9
BRANCH  11  12
ATOM     12  O   UNL     1      51.708  20.001  17.358  0.00  0.00    -0.317 OA
ATOM     13  C   UNL     1      51.493  21.062  16.425  0.00  0.00    +0.228 C 
ENDBRANCH  11  12
BRANCH  39  40
ATOM     40  O   UNL     1      44.235  23.247  19.078  0.00  0.00    -0.500 OA
ATOM     41  H   UNL     1      43.510  23.081  18.459  0.00  0.00    +0.391 HD
ENDBRANCH  39  40
BRANCH  14  15
ATOM     15  O   UNL     1      49.562  18.285  17.488  0.00  0.00    -0.249 OA
BRANCH  15  16
ATOM     16  C   UNL     1      49.823  16.961  17.641  0.00  0.00    +0.128 A 
ATOM     17  C   UNL     1      50.898  16.548  18.417  0.00  0.00    -0.054 A 
ATOM     18  C   UNL     1      51.155  15.202  18.569  0.00  0.00    +0.047 A 
ATOM     19  C   UNL     1      50.347  14.257  17.951  0.00  0.00    -0.107 A 
ATOM     20  C   UNL     1      49.281  14.664  17.177  0.00  0.00    -0.076 A 
ATOM     21  C   UNL     1      48.384  13.677  16.478  0.00  0.00    +0.232 C 
ATOM     31  N   UNL     1      48.539  12.340  17.061  0.00  0.00    -0.666 NA
ATOM     32  H   UNL     1      48.134  12.299  17.984  0.00  0.00    +0.341 HD
ATOM     33  C   UNL     1      49.959  11.958  17.088  0.00  0.00    +0.215 C 
ATOM     34  C   UNL     1      50.666  12.798  18.152  0.00  0.00    +0.039 C 
ATOM     35  C   UNL     1      49.015  16.017  17.029  0.00  0.00    -0.007 A 
BRANCH  21  22
ATOM     22  C   UNL     1      46.928  14.125  16.624  0.00  0.00    +0.084 C 
BRANCH  22  23
ATOM     23  C   UNL     1      46.569  14.194  18.086  0.00  0.00    -0.106 A 
ATOM     24  C   UNL     1      46.922  13.159  18.933  0.00  0.00    +0.047 A 
ATOM     25  C   UNL     1      46.593  13.219  20.274  0.00  0.00    -0.025 A 
ATOM     26  C   UNL     1      45.908  14.319  20.769  0.00  0.00    +0.122 A 
ATOM     29  C   UNL     1      45.555  15.355  19.917  0.00  0.00    -0.082 A 
ATOM     30  C   UNL     1      45.891  15.293  18.579  0.00  0.00    +0.067 A 
BRANCH  26  27
ATOM     27  O   UNL     1      45.582  14.380  22.087  0.00  0.00    -0.320 OA
ATOM     28  C   UNL     1      44.774  15.482  22.505  0.00  0.00    +0.237 C 
ENDBRANCH  26  27
ENDBRANCH  22  23
ENDBRANCH  21  22
ENDBRANCH  15  16
ENDBRANCH  14  15
TORSDOF 8
ENDMDL
MODEL 5
REMARK VINA RESULT:      -5.8      3.525      7.388
REMARK  Name = ZINC95486208
REMARK  12 active torsions:
REMARK  status: ('A' for Active; 'I' for Inactive)
REMARK    1  A    between atoms: C1_1  and  N1_2
REMARK    2  A    between atoms: C7_9  and  O4_35
REMARK    3  A    between atoms: C8_10  and  O3_33
REMARK    4  A    between atoms: C9_11  and  O1_12
REMARK    5  A    between atoms: O1_12  and  C10_13
REMARK    6  A    between atoms: C16_19  and  C19_24
REMARK    7  A    between atoms: C19_24  and  C20_25
REMARK    8  A    between atoms: C23_28  and  O2_31
REMARK    9  A    between atoms: O2_31  and  C26_32
REMARK   10  A    between atoms: O3_33  and  C27_34
REMARK   11  A    between atoms: O4_35  and  C28_36
REMARK   12  A    between atoms: C35_44  and  O5_46
REMARK                            x       y       z     vdW  Elec       q    Type
REMARK                         _______ _______ _______ _____ _____    ______ ____
ROOT
ATOM      1  C   UNL     1      47.336  17.512  17.044  0.00  0.00    +0.201 C 
ATOM      2  N   UNL     1      47.112  16.526  18.110  0.00  0.00    -0.515 NA
ATOM      3  C   UNL     1      48.368  16.184  18.784  0.00  0.00    +0.230 C 
ATOM      4  C   UNL     1      49.394  15.759  17.732  0.00  0.00    +0.072 C 
ATOM      5  C   UNL     1      48.799  14.701  16.839  0.00  0.00    -0.098 A 
ATOM      6  C   UNL     1      47.436  14.501  16.769  0.00  0.00    -0.058 A 
ATOM      7  C   UNL     1      46.927  13.518  15.932  0.00  0.00    -0.048 A 
ATOM      8  C   UNL     1      47.774  12.736  15.167  0.00  0.00    +0.122 A 
ATOM     11  C   UNL     1      49.148  12.935  15.235  0.00  0.00    +0.062 A 
ATOM     14  C   UNL     1      49.657  13.919  16.072  0.00  0.00    +0.106 A 
ATOM     36  C   UNL     1      48.171  15.059  19.762  0.00  0.00    -0.077 A 
ATOM     37  C   UNL     1      49.154  14.833  20.714  0.00  0.00    +0.032 A 
ATOM     38  C   UNL     1      49.019  13.812  21.632  0.00  0.00    -0.016 A 
ATOM     39  C   UNL     1      47.892  13.004  21.604  0.00  0.00    +0.111 A 
ATOM     42  C   UNL     1      46.895  13.265  20.697  0.00  0.00    -0.022 A 
ATOM     43  C   UNL     1      47.039  14.279  19.765  0.00  0.00    -0.047 A 
ATOM     44  C   UNL     1      45.942  14.485  18.751  0.00  0.00    +0.108 C 
ATOM     45  C   UNL     1      46.469  15.318  17.582  0.00  0.00    +0.226 C 
ENDROOT
BRANCH   8   9
ATOM      9  O   UNL     1      47.265  11.775  14.350  0.00  0.00    -0.302 OA
ATOM     10  C   UNL     1      46.341  10.853  14.932  0.00  0.00    +0.244 C 
ENDBRANCH   8   9
BRANCH  11  12
ATOM     12  O   UNL     1      49.988  12.172  14.486  0.00  0.00    -0.317 OA
ATOM     13  C   UNL     1      50.387  12.696  13.218  0.00  0.00    +0.228 C 
ENDBRANCH  11  12
BRANCH  39  40
ATOM     40  O   UNL     1      47.752  11.996  22.505  0.00  0.00    -0.500 OA
ATOM     41  H   UNL     1      46.834  11.747  22.678  0.00  0.00    +0.391 HD
ENDBRANCH  39  40
BRANCH  14  15
ATOM     15  O   UNL     1      51.000  14.120  16.144  0.00  0.00    -0.249 OA
BRANCH  15  16
ATOM     16  C   UNL     1      51.638  13.766  17.290  0.00  0.00    +0.128 A 
ATOM     17  C   UNL     1      51.903  12.429  17.556  0.00  0.00    -0.054 A 
ATOM     18  C   UNL     1      52.552  12.079  18.721  0.00  0.00    +0.047 A 
ATOM     19  C   UNL     1      52.941  13.053  19.629  0.00  0.00    -0.107 A 
ATOM     20  C   UNL     1      52.675  14.381  19.370  0.00  0.00    -0.076 A 
ATOM     21  C   UNL     1      53.068  15.471  20.332  0.00  0.00    +0.232 C 
ATOM     31  N   UNL     1      54.077  14.985  21.278  0.00  0.00    -0.666 NA
ATOM     32  H   UNL     1      54.965  14.847  20.820  0.00  0.00    +0.341 HD
ATOM     33  C   UNL     1      53.615  13.744  21.921  0.00  0.00    +0.215 C 
ATOM     34  C   UNL     1      53.652  12.619  20.886  0.00  0.00    +0.039 C 
ATOM     35  C   UNL     1      52.030  14.737  18.196  0.00  0.00    -0.007 A 
BRANCH  21  22
ATOM     22  C   UNL     1      53.641  16.654  19.548  0.00  0.00    +0.084 C 
BRANCH  22  23
ATOM     23  C   UNL     1      52.563  17.685  19.333  0.00  0.00    -0.106 A 
ATOM     24  C   UNL     1      52.577  18.471  18.196  0.00  0.00    +0.047 A 
ATOM     25  C   UNL     1      51.589  19.417  17.997  0.00  0.00    -0.025 A 
ATOM     26  C   UNL     1      50.585  19.577  18.940  0.00  0.00    +0.122 A 
ATOM     29  C   UNL     1      50.574  18.787  20.080  0.00  0.00    -0.082 A 
ATOM     30  C   UNL     1      51.560  17.839  20.272  0.00  0.00    +0.067 A 
BRANCH  26  27
ATOM     27  O   UNL     1      49.613  20.508  18.747  0.00  0.00    -0.320 OA
ATOM     28  C   UNL     1      48.744  20.776  19.849  0.00  0.00    +0.237 C 
ENDBRANCH  26  27
ENDBRANCH  22  23
ENDBRANCH  21  22
ENDBRANCH  15  16
ENDBRANCH  14  15
TORSDOF 8
ENDMDL
MODEL 6
REMARK VINA RESULT:      -5.8      2.948      5.260
REMARK  Name = ZINC95486208
REMARK  12 active torsions:
REMARK  status: ('A' for Active; 'I' for Inactive)
REMARK    1  A    between atoms: C1_1  and  N1_2
REMARK    2  A    between atoms: C7_9  and  O4_35
REMARK    3  A    between atoms: C8_10  and  O3_33
REMARK    4  A    between atoms: C9_11  and  O1_12
REMARK    5  A    between atoms: O1_12  and  C10_13
REMARK    6  A    between atoms: C16_19  and  C19_24
REMARK    7  A    between atoms: C19_24  and  C20_25
REMARK    8  A    between atoms: C23_28  and  O2_31
REMARK    9  A    between atoms: O2_31  and  C26_32
REMARK   10  A    between atoms: O3_33  and  C27_34
REMARK   11  A    between atoms: O4_35  and  C28_36
REMARK   12  A    between atoms: C35_44  and  O5_46
REMARK                            x       y       z     vdW  Elec       q    Type
REMARK                         _______ _______ _______ _____ _____    ______ ____
ROOT
ATOM      1  C   UNL     1      46.120  17.455  22.026  0.00  0.00    +0.201 C 
ATOM      2  N   UNL     1      45.922  18.909  21.969  0.00  0.00    -0.515 NA
ATOM      3  C   UNL     1      45.364  19.313  20.674  0.00  0.00    +0.230 C 
ATOM      4  C   UNL     1      46.242  18.748  19.558  0.00  0.00    +0.072 C 
ATOM      5  C   UNL     1      47.684  19.108  19.812  0.00  0.00    -0.098 A 
ATOM      6  C   UNL     1      48.116  19.511  21.058  0.00  0.00    -0.058 A 
ATOM      7  C   UNL     1      49.452  19.832  21.252  0.00  0.00    -0.048 A 
ATOM      8  C   UNL     1      50.355  19.752  20.206  0.00  0.00    +0.122 A 
ATOM     11  C   UNL     1      49.922  19.346  18.950  0.00  0.00    +0.062 A 
ATOM     14  C   UNL     1      48.585  19.024  18.756  0.00  0.00    +0.106 A 
ATOM     36  C   UNL     1      45.312  20.811  20.550  0.00  0.00    -0.077 A 
ATOM     37  C   UNL     1      44.519  21.363  19.553  0.00  0.00    +0.032 A 
ATOM     38  C   UNL     1      44.441  22.731  19.398  0.00  0.00    -0.016 A 
ATOM     39  C   UNL     1      45.159  23.564  20.244  0.00  0.00    +0.111 A 
ATOM     42  C   UNL     1      45.898  23.017  21.263  0.00  0.00    -0.022 A 
ATOM     43  C   UNL     1      45.991  21.643  21.408  0.00  0.00    -0.047 A 
ATOM     44  C   UNL     1      46.865  21.092  22.505  0.00  0.00    +0.108 C 
ATOM     45  C   UNL     1      47.177  19.621  22.229  0.00  0.00    +0.226 C 
ENDROOT
BRANCH   8   9
ATOM      9  O   UNL     1      51.662  20.069  20.407  0.00  0.00    -0.302 OA
ATOM     10  C   UNL     1      51.943  21.386  20.884  0.00  0.00    +0.244 C 
ENDBRANCH   8   9
BRANCH  11  12
ATOM     12  O   UNL     1      50.803  19.263  17.916  0.00  0.00    -0.317 OA
ATOM     13  C   UNL     1      51.109  20.476  17.224  0.00  0.00    +0.228 C 
ENDBRANCH  11  12
BRANCH  39  40
ATOM     40  O   UNL     1      45.087  24.912  20.096  0.00  0.00    -0.500 OA
ATOM     41  H   UNL     1      44.390  25.330  20.621  0.00  0.00    +0.391 HD
ENDBRANCH  39  40
BRANCH  14  15
ATOM     15  O   UNL     1      48.155  18.626  17.529  0.00  0.00    -0.249 OA
BRANCH  15  16
ATOM     16  C   UNL     1      47.978  17.296  17.315  0.00  0.00    +0.128 A 
ATOM     17  C   UNL     1      46.755  16.821  16.860  0.00  0.00    -0.054 A 
ATOM     18  C   UNL     1      46.584  15.469  16.644  0.00  0.00    +0.047 A 
ATOM     19  C   UNL     1      47.626  14.582  16.879  0.00  0.00    -0.107 A 
ATOM     20  C   UNL     1      48.840  15.052  17.334  0.00  0.00    -0.076 A 
ATOM     21  C   UNL     1      49.994  14.126  17.615  0.00  0.00    +0.232 C 
ATOM     31  N   UNL     1      49.785  12.830  16.961  0.00  0.00    -0.666 NA
ATOM     32  H   UNL     1      49.882  12.911  15.960  0.00  0.00    +0.341 HD
ATOM     33  C   UNL     1      48.467  12.285  17.322  0.00  0.00    +0.215 C 
ATOM     34  C   UNL     1      47.390  13.115  16.622  0.00  0.00    +0.039 C 
ATOM     35  C   UNL     1      49.017  16.411  17.545  0.00  0.00    -0.007 A 
BRANCH  21  22
ATOM     22  C   UNL     1      51.285  14.755  17.085  0.00  0.00    +0.084 C 
BRANCH  22  23
ATOM     23  C   UNL     1      52.162  15.152  18.245  0.00  0.00    -0.106 A 
ATOM     24  C   UNL     1      52.583  14.195  19.150  0.00  0.00    +0.047 A 
ATOM     25  C   UNL     1      53.387  14.556  20.215  0.00  0.00    -0.025 A 
ATOM     26  C   UNL     1      53.771  15.880  20.374  0.00  0.00    +0.122 A 
ATOM     29  C   UNL     1      53.347  16.837  19.464  0.00  0.00    -0.082 A 
ATOM     30  C   UNL     1      52.548  16.470  18.398  0.00  0.00    +0.067 A 
BRANCH  26  27
ATOM     27  O   UNL     1      54.561  16.238  21.421  0.00  0.00    -0.320 OA
ATOM     28  C   UNL     1      55.946  15.900  21.333  0.00  0.00    +0.237 C 
ENDBRANCH  26  27
ENDBRANCH  22  23
ENDBRANCH  21  22
ENDBRANCH  15  16
ENDBRANCH  14  15
TORSDOF 8
ENDMDL
MODEL 7
REMARK VINA RESULT:      -5.5      3.136      5.377
REMARK  Name = ZINC95486208
REMARK  12 active torsions:
REMARK  status: ('A' for Active; 'I' for Inactive)
REMARK    1  A    between atoms: C1_1  and  N1_2
REMARK    2  A    between atoms: C7_9  and  O4_35
REMARK    3  A    between atoms: C8_10  and  O3_33
REMARK    4  A    between atoms: C9_11  and  O1_12
REMARK    5  A    between atoms: O1_12  and  C10_13
REMARK    6  A    between atoms: C16_19  and  C19_24
REMARK    7  A    between atoms: C19_24  and  C20_25
REMARK    8  A    between atoms: C23_28  and  O2_31
REMARK    9  A    between atoms: O2_31  and  C26_32
REMARK   10  A    between atoms: O3_33  and  C27_34
REMARK   11  A    between atoms: O4_35  and  C28_36
REMARK   12  A    between atoms: C35_44  and  O5_46
REMARK                            x       y       z     vdW  Elec       q    Type
REMARK                         _______ _______ _______ _____ _____    ______ ____
ROOT
ATOM      1  C   UNL     1      50.730  17.284  16.946  0.00  0.00    +0.201 C 
ATOM      2  N   UNL     1      49.372  17.754  17.252  0.00  0.00    -0.515 NA
ATOM      3  C   UNL     1      49.244  18.104  18.670  0.00  0.00    +0.230 C 
ATOM      4  C   UNL     1      49.711  16.919  19.516  0.00  0.00    +0.072 C 
ATOM      5  C   UNL     1      49.009  15.663  19.065  0.00  0.00    -0.098 A 
ATOM      6  C   UNL     1      48.390  15.587  17.835  0.00  0.00    -0.058 A 
ATOM      7  C   UNL     1      47.757  14.412  17.455  0.00  0.00    -0.048 A 
ATOM      8  C   UNL     1      47.741  13.315  18.300  0.00  0.00    +0.122 A 
ATOM     11  C   UNL     1      48.364  13.390  19.540  0.00  0.00    +0.062 A 
ATOM     14  C   UNL     1      48.998  14.565  19.919  0.00  0.00    +0.106 A 
ATOM     36  C   UNL     1      47.818  18.429  19.021  0.00  0.00    -0.077 A 
ATOM     37  C   UNL     1      47.567  19.093  20.213  0.00  0.00    +0.032 A 
ATOM     38  C   UNL     1      46.276  19.412  20.580  0.00  0.00    -0.016 A 
ATOM     39  C   UNL     1      45.218  19.065  19.752  0.00  0.00    +0.111 A 
ATOM     42  C   UNL     1      45.474  18.457  18.547  0.00  0.00    -0.022 A 
ATOM     43  C   UNL     1      46.768  18.122  18.188  0.00  0.00    -0.047 A 
ATOM     44  C   UNL     1      46.989  17.401  16.883  0.00  0.00    +0.108 C 
ATOM     45  C   UNL     1      48.372  16.749  16.879  0.00  0.00    +0.226 C 
ENDROOT
BRANCH   8   9
ATOM      9  O   UNL     1      47.118  12.169  17.918  0.00  0.00    -0.302 OA
ATOM     10  C   UNL     1      45.857  12.305  17.260  0.00  0.00    +0.244 C 
ENDBRANCH   8   9
BRANCH  11  12
ATOM     12  O   UNL     1      48.354  12.317  20.377  0.00  0.00    -0.317 OA
ATOM     13  C   UNL     1      49.281  11.266  20.097  0.00  0.00    +0.228 C 
ENDBRANCH  11  12
BRANCH  39  40
ATOM     40  O   UNL     1      43.944  19.374  20.107  0.00  0.00    -0.500 OA
ATOM     41  H   UNL     1      43.269  18.939  19.569  0.00  0.00    +0.391 HD
ENDBRANCH  39  40
BRANCH  14  15
ATOM     15  O   UNL     1      49.610  14.645  21.131  0.00  0.00    -0.249 OA
BRANCH  15  16
ATOM     16  C   UNL     1      50.964  14.532  21.172  0.00  0.00    +0.128 A 
ATOM     17  C   UNL     1      51.682  15.130  22.198  0.00  0.00    -0.054 A 
ATOM     18  C   UNL     1      53.056  15.008  22.232  0.00  0.00    +0.047 A 
ATOM     19  C   UNL     1      53.723  14.293  21.248  0.00  0.00    -0.107 A 
ATOM     20  C   UNL     1      53.012  13.701  20.225  0.00  0.00    -0.076 A 
ATOM     21  C   UNL     1      53.694  12.926  19.129  0.00  0.00    +0.232 C 
ATOM     31  N   UNL     1      55.055  12.557  19.530  0.00  0.00    -0.666 NA
ATOM     32  H   UNL     1      55.041  11.845  20.246  0.00  0.00    +0.341 HD
ATOM     33  C   UNL     1      55.793  13.747  19.983  0.00  0.00    +0.215 C 
ATOM     34  C   UNL     1      55.225  14.185  21.333  0.00  0.00    +0.039 C 
ATOM     35  C   UNL     1      51.631  13.815  20.193  0.00  0.00    -0.007 A 
BRANCH  21  22
ATOM     22  C   UNL     1      52.893  11.655  18.836  0.00  0.00    +0.084 C 
BRANCH  22  23
ATOM     23  C   UNL     1      52.505  11.631  17.380  0.00  0.00    -0.106 A 
ATOM     24  C   UNL     1      53.014  10.651  16.547  0.00  0.00    +0.047 A 
ATOM     25  C   UNL     1      52.661  10.627  15.211  0.00  0.00    -0.025 A 
ATOM     26  C   UNL     1      51.796  11.587  14.707  0.00  0.00    +0.122 A 
ATOM     29  C   UNL     1      51.288  12.569  15.544  0.00  0.00    -0.082 A 
ATOM     30  C   UNL     1      51.639  12.585  16.880  0.00  0.00    +0.067 A 
BRANCH  26  27
ATOM     27  O   UNL     1      51.448  11.566  13.393  0.00  0.00    -0.320 OA
ATOM     28  C   UNL     1      50.719  12.690  12.897  0.00  0.00    +0.237 C 
ENDBRANCH  26  27
ENDBRANCH  22  23
ENDBRANCH  21  22
ENDBRANCH  15  16
ENDBRANCH  14  15
TORSDOF 8
ENDMDL
MODEL 8
REMARK VINA RESULT:      -5.4      3.082      8.347
REMARK  Name = ZINC95486208
REMARK  12 active torsions:
REMARK  status: ('A' for Active; 'I' for Inactive)
REMARK    1  A    between atoms: C1_1  and  N1_2
REMARK    2  A    between atoms: C7_9  and  O4_35
REMARK    3  A    between atoms: C8_10  and  O3_33
REMARK    4  A    between atoms: C9_11  and  O1_12
REMARK    5  A    between atoms: O1_12  and  C10_13
REMARK    6  A    between atoms: C16_19  and  C19_24
REMARK    7  A    between atoms: C19_24  and  C20_25
REMARK    8  A    between atoms: C23_28  and  O2_31
REMARK    9  A    between atoms: O2_31  and  C26_32
REMARK   10  A    between atoms: O3_33  and  C27_34
REMARK   11  A    between atoms: O4_35  and  C28_36
REMARK   12  A    between atoms: C35_44  and  O5_46
REMARK                            x       y       z     vdW  Elec       q    Type
REMARK                         _______ _______ _______ _____ _____    ______ ____
ROOT
ATOM      1  C   UNL     1      51.838  17.185  17.087  0.00  0.00    +0.201 C 
ATOM      2  N   UNL     1      50.782  16.241  16.695  0.00  0.00    -0.515 NA
ATOM      3  C   UNL     1      49.595  16.400  17.541  0.00  0.00    +0.230 C 
ATOM      4  C   UNL     1      50.015  16.309  19.008  0.00  0.00    +0.072 C 
ATOM      5  C   UNL     1      50.836  15.063  19.226  0.00  0.00    -0.098 A 
ATOM      6  C   UNL     1      51.420  14.392  18.171  0.00  0.00    -0.058 A 
ATOM      7  C   UNL     1      52.170  13.250  18.413  0.00  0.00    -0.048 A 
ATOM      8  C   UNL     1      52.337  12.777  19.703  0.00  0.00    +0.122 A 
ATOM     11  C   UNL     1      51.750  13.451  20.767  0.00  0.00    +0.062 A 
ATOM     14  C   UNL     1      51.000  14.594  20.525  0.00  0.00    +0.106 A 
ATOM     36  C   UNL     1      48.576  15.332  17.252  0.00  0.00    -0.077 A 
ATOM     37  C   UNL     1      47.279  15.517  17.707  0.00  0.00    +0.032 A 
ATOM     38  C   UNL     1      46.310  14.564  17.469  0.00  0.00    -0.016 A 
ATOM     39  C   UNL     1      46.634  13.411  16.769  0.00  0.00    +0.111 A 
ATOM     42  C   UNL     1      47.905  13.255  16.273  0.00  0.00    -0.022 A 
ATOM     43  C   UNL     1      48.881  14.204  16.527  0.00  0.00    -0.047 A 
ATOM     44  C   UNL     1      50.276  13.957  16.012  0.00  0.00    +0.108 C 
ATOM     45  C   UNL     1      51.267  14.859  16.749  0.00  0.00    +0.226 C 
ENDROOT
BRANCH   8   9
ATOM      9  O   UNL     1      53.074  11.657  19.929  0.00  0.00    -0.302 OA
ATOM     10  C   UNL     1      54.147  11.393  19.023  0.00  0.00    +0.244 C 
ENDBRANCH   8   9
BRANCH  11  12
ATOM     12  O   UNL     1      51.909  12.993  22.039  0.00  0.00    -0.317 OA
ATOM     13  C   UNL     1      50.965  12.027  22.505  0.00  0.00    +0.228 C 
ENDBRANCH  11  12
BRANCH  39  40
ATOM     40  O   UNL     1      45.686  12.467  16.532  0.00  0.00    -0.500 OA
ATOM     41  H   UNL     1      45.665  11.756  17.187  0.00  0.00    +0.391 HD
ENDBRANCH  39  40
BRANCH  14  15
ATOM     15  O   UNL     1      50.422  15.258  21.562  0.00  0.00    -0.249 OA
BRANCH  15  16
ATOM     16  C   UNL     1      49.074  15.426  21.540  0.00  0.00    +0.128 A 
ATOM     17  C   UNL     1      48.234  14.341  21.750  0.00  0.00    -0.054 A 
ATOM     18  C   UNL     1      46.866  14.520  21.728  0.00  0.00    +0.047 A 
ATOM     19  C   UNL     1      46.325  15.777  21.497  0.00  0.00    -0.107 A 
ATOM     20  C   UNL     1      47.158  16.856  21.284  0.00  0.00    -0.076 A 
ATOM     21  C   UNL     1      46.616  18.236  21.018  0.00  0.00    +0.232 C 
ATOM     31  N   UNL     1      45.211  18.325  21.428  0.00  0.00    -0.666 NA
ATOM     32  H   UNL     1      45.127  18.310  22.433  0.00  0.00    +0.341 HD
ATOM     33  C   UNL     1      44.432  17.238  20.815  0.00  0.00    +0.215 C 
ATOM     34  C   UNL     1      44.825  15.922  21.488  0.00  0.00    +0.039 C 
ATOM     35  C   UNL     1      48.533  16.680  21.314  0.00  0.00    -0.007 A 
BRANCH  21  22
ATOM     22  C   UNL     1      47.437  19.261  21.804  0.00  0.00    +0.084 C 
BRANCH  22  23
ATOM     23  C   UNL     1      48.508  19.837  20.913  0.00  0.00    -0.106 A 
ATOM     24  C   UNL     1      49.760  20.114  21.430  0.00  0.00    +0.047 A 
ATOM     25  C   UNL     1      50.743  20.643  20.615  0.00  0.00    -0.025 A 
ATOM     26  C   UNL     1      50.471  20.895  19.279  0.00  0.00    +0.122 A 
ATOM     29  C   UNL     1      49.214  20.617  18.763  0.00  0.00    -0.082 A 
ATOM     30  C   UNL     1      48.237  20.082  19.580  0.00  0.00    +0.067 A 
BRANCH  26  27
ATOM     27  O   UNL     1      51.436  21.416  18.475  0.00  0.00    -0.320 OA
ATOM     28  C   UNL     1      51.391  21.060  17.092  0.00  0.00    +0.237 C 
ENDBRANCH  26  27
ENDBRANCH  22  23
ENDBRANCH  21  22
ENDBRANCH  15  16
ENDBRANCH  14  15
TORSDOF 8
ENDMDL
MODEL 9
REMARK VINA RESULT:      -5.3      2.662      7.981
REMARK  Name = ZINC95486208
REMARK  12 active torsions:
REMARK  status: ('A' for Active; 'I' for Inactive)
REMARK    1  A    between atoms: C1_1  and  N1_2
REMARK    2  A    between atoms: C7_9  and  O4_35
REMARK    3  A    between atoms: C8_10  and  O3_33
REMARK    4  A    between atoms: C9_11  and  O1_12
REMARK    5  A    between atoms: O1_12  and  C10_13
REMARK    6  A    between atoms: C16_19  and  C19_24
REMARK    7  A    between atoms: C19_24  and  C20_25
REMARK    8  A    between atoms: C23_28  and  O2_31
REMARK    9  A    between atoms: O2_31  and  C26_32
REMARK   10  A    between atoms: O3_33  and  C27_34
REMARK   11  A    between atoms: O4_35  and  C28_36
REMARK   12  A    between atoms: C35_44  and  O5_46
REMARK                            x       y       z     vdW  Elec       q    Type
REMARK                         _______ _______ _______ _____ _____    ______ ____
ROOT
ATOM      1  C   UNL     1      49.023  17.532  17.542  0.00  0.00    +0.201 C 
ATOM      2  N   UNL     1      49.247  16.245  16.870  0.00  0.00    -0.515 NA
ATOM      3  C   UNL     1      48.004  15.472  16.788  0.00  0.00    +0.230 C 
ATOM      4  C   UNL     1      47.397  15.360  18.187  0.00  0.00    +0.072 C 
ATOM      5  C   UNL     1      48.438  14.861  19.156  0.00  0.00    -0.098 A 
ATOM      6  C   UNL     1      49.784  14.917  18.859  0.00  0.00    -0.058 A 
ATOM      7  C   UNL     1      50.712  14.451  19.779  0.00  0.00    -0.048 A 
ATOM      8  C   UNL     1      50.299  13.928  20.992  0.00  0.00    +0.122 A 
ATOM     11  C   UNL     1      48.944  13.870  21.294  0.00  0.00    +0.062 A 
ATOM     14  C   UNL     1      48.016  14.338  20.374  0.00  0.00    +0.106 A 
ATOM     36  C   UNL     1      48.260  14.090  16.250  0.00  0.00    -0.077 A 
ATOM     37  C   UNL     1      47.179  13.349  15.796  0.00  0.00    +0.032 A 
ATOM     38  C   UNL     1      47.362  12.077  15.295  0.00  0.00    -0.016 A 
ATOM     39  C   UNL     1      48.637  11.532  15.245  0.00  0.00    +0.111 A 
ATOM     42  C   UNL     1      49.712  12.289  15.644  0.00  0.00    -0.022 A 
ATOM     43  C   UNL     1      49.525  13.559  16.163  0.00  0.00    -0.047 A 
ATOM     44  C   UNL     1      50.731  14.325  16.643  0.00  0.00    +0.108 C 
ATOM     45  C   UNL     1      50.288  15.471  17.554  0.00  0.00    +0.226 C 
ENDROOT
BRANCH   8   9
ATOM      9  O   UNL     1      51.216  13.473  21.887  0.00  0.00    -0.302 OA
ATOM     10  C   UNL     1      52.143  14.427  22.408  0.00  0.00    +0.244 C 
ENDBRANCH   8   9
BRANCH  11  12
ATOM     12  O   UNL     1      48.529  13.359  22.485  0.00  0.00    -0.317 OA
ATOM     13  C   UNL     1      48.154  11.980  22.506  0.00  0.00    +0.228 C 
ENDBRANCH  11  12
BRANCH  39  40
ATOM     40  O   UNL     1      48.825  10.280  14.755  0.00  0.00    -0.500 OA
ATOM     41  H   UNL     1      49.634  10.178  14.234  0.00  0.00    +0.391 HD
ENDBRANCH  39  40
BRANCH  14  15
ATOM     15  O   UNL     1      46.688  14.285  20.663  0.00  0.00    -0.249 OA
BRANCH  15  16
ATOM     16  C   UNL     1      46.076  15.429  21.066  0.00  0.00    +0.128 A 
ATOM     17  C   UNL     1      44.720  15.425  21.366  0.00  0.00    -0.054 A 
ATOM     18  C   UNL     1      44.107  16.590  21.777  0.00  0.00    +0.047 A 
ATOM     19  C   UNL     1      44.836  17.766  21.891  0.00  0.00    -0.107 A 
ATOM     20  C   UNL     1      46.182  17.773  21.590  0.00  0.00    -0.076 A 
ATOM     21  C   UNL     1      47.011  19.027  21.688  0.00  0.00    +0.232 C 
ATOM     31  N   UNL     1      46.326  20.034  22.505  0.00  0.00    -0.666 NA
ATOM     32  H   UNL     1      46.322  19.767  23.479  0.00  0.00    +0.341 HD
ATOM     33  C   UNL     1      44.957  20.247  22.010  0.00  0.00    +0.215 C 
ATOM     34  C   UNL     1      44.121  19.012  22.349  0.00  0.00    +0.039 C 
ATOM     35  C   UNL     1      46.802  16.601  21.185  0.00  0.00    -0.007 A 
BRANCH  21  22
ATOM     22  C   UNL     1      48.360  18.691  22.327  0.00  0.00    +0.084 C 
BRANCH  22  23
ATOM     23  C   UNL     1      49.459  18.900  21.317  0.00  0.00    -0.106 A 
ATOM     24  C   UNL     1      50.477  17.971  21.203  0.00  0.00    +0.047 A 
ATOM     25  C   UNL     1      51.487  18.160  20.279  0.00  0.00    -0.025 A 
ATOM     26  C   UNL     1      51.477  19.284  19.465  0.00  0.00    +0.122 A 
ATOM     29  C   UNL     1      50.455  20.214  19.582  0.00  0.00    -0.082 A 
ATOM     30  C   UNL     1      49.445  20.018  20.503  0.00  0.00    +0.067 A 
BRANCH  26  27
ATOM     27  O   UNL     1      52.470  19.473  18.555  0.00  0.00    -0.320 OA
ATOM     28  C   UNL     1      52.073  19.789  17.219  0.00  0.00    +0.237 C 
ENDBRANCH  26  27
ENDBRANCH  22  23
ENDBRANCH  21  22
ENDBRANCH  15  16
ENDBRANCH  14  15
TORSDOF 8
ENDMDL
