MODEL 1
REMARK VINA RESULT:      -7.5      0.000      0.000
REMARK  Name = ZINC95485905
REMARK  6 active torsions:
REMARK  status: ('A' for Active; 'I' for Inactive)
REMARK    1  A    between atoms: C1_1  and  C2_2
REMARK    2  A    between atoms: C9_11  and  C28_36
REMARK    3  A    between atoms: C14_17  and  C24_30
REMARK    4  A    between atoms: C18_22  and  C23_29
REMARK    5  A    between atoms: C21_25  and  O1_28
REMARK    6  A    between atoms: C26_33  and  C27_35
REMARK                            x       y       z     vdW  Elec       q    Type
REMARK                         _______ _______ _______ _____ _____    ______ ____
ROOT
ATOM      1  C   UNL     1      51.467  20.051  16.534  0.00  0.00    +0.011 C 
ATOM      2  C   UNL     1      51.687  19.281  17.838  0.00  0.00    -0.014 C 
ATOM      3  C   UNL     1      51.895  17.822  17.518  0.00  0.00    +0.045 C 
ATOM      4  C   UNL     1      50.590  17.092  17.222  0.00  0.00    -0.037 C 
ATOM      5  C   UNL     1      49.917  16.480  18.464  0.00  0.00    +0.001 C 
ATOM      6  C   UNL     1      49.268  17.644  17.709  0.00  0.00    -0.089 C 
ATOM      7  C   UNL     1      47.968  17.295  16.967  0.00  0.00    +0.043 C 
ATOM      8  C   UNL     1      46.786  18.017  17.618  0.00  0.00    +0.021 C 
ATOM      9  C   UNL     1      46.944  18.125  19.128  0.00  0.00    -0.001 C 
ATOM     10  C   UNL     1      47.152  16.708  19.683  0.00  0.00    +0.022 C 
ATOM     11  C   UNL     1      48.171  18.933  19.466  0.00  0.00    -0.083 C 
ATOM     12  C   UNL     1      48.309  19.591  20.585  0.00  0.00    -0.059 C 
ATOM     13  C   UNL     1      47.126  19.636  21.545  0.00  0.00    +0.058 C 
ATOM     14  C   UNL     1      45.925  19.861  20.620  0.00  0.00    +0.005 C 
ATOM     15  C   UNL     1      44.727  20.487  21.287  0.00  0.00    -0.032 C 
ATOM     16  C   UNL     1      44.249  19.678  22.505  0.00  0.00    +0.021 C 
ATOM     17  C   UNL     1      45.100  21.875  21.839  0.00  0.00    +0.018 C 
ATOM     18  C   UNL     1      45.421  22.855  20.717  0.00  0.00    -0.017 C 
ATOM     19  C   UNL     1      44.187  23.004  19.821  0.00  0.00    +0.157 C 
ATOM     22  C   UNL     1      43.889  21.640  19.199  0.00  0.00    +0.030 C 
ATOM     23  C   UNL     1      43.571  20.620  20.294  0.00  0.00    -0.001 C 
ATOM     24  C   UNL     1      43.278  19.280  19.615  0.00  0.00    +0.011 C 
ATOM     25  C   UNL     1      44.512  18.794  18.848  0.00  0.00    +0.022 C 
ATOM     26  C   UNL     1      45.674  18.611  19.809  0.00  0.00    -0.030 C 
ATOM     27  C   UNL     1      45.302  17.440  20.726  0.00  0.00    +0.010 C 
ATOM     28  C   UNL     1      49.218  19.015  18.373  0.00  0.00    +0.066 C 
ATOM     29  C   UNL     1      50.541  19.577  18.785  0.00  0.00    -0.001 C 
ATOM     30  C   UNL     1      50.421  21.113  18.846  0.00  0.00    +0.014 C 
ENDROOT
BRANCH  19  20
ATOM     20  O   UNL     1      44.455  23.956  18.791  0.00  0.00    -0.568 OA
ATOM     21  H   UNL     1      45.183  23.707  18.205  0.00  0.00    +0.377 HD
ENDBRANCH  19  20
TORSDOF 1
ENDMDL
MODEL 2
REMARK VINA RESULT:      -7.4      2.140      6.808
REMARK  Name = ZINC95485905
REMARK  6 active torsions:
REMARK  status: ('A' for Active; 'I' for Inactive)
REMARK    1  A    between atoms: C1_1  and  C2_2
REMARK    2  A    between atoms: C9_11  and  C28_36
REMARK    3  A    between atoms: C14_17  and  C24_30
REMARK    4  A    between atoms: C18_22  and  C23_29
REMARK    5  A    between atoms: C21_25  and  O1_28
REMARK    6  A    between atoms: C26_33  and  C27_35
REMARK                            x       y       z     vdW  Elec       q    Type
REMARK                         _______ _______ _______ _____ _____    ______ ____
ROOT
ATOM      1  C   UNL     1      43.884  20.065  18.735  0.00  0.00    +0.011 C 
ATOM      2  C   UNL     1      44.215  18.827  19.572  0.00  0.00    -0.014 C 
ATOM      3  C   UNL     1      43.860  19.099  21.012  0.00  0.00    +0.045 C 
ATOM      4  C   UNL     1      44.906  19.949  21.725  0.00  0.00    -0.037 C 
ATOM      5  C   UNL     1      46.023  19.133  22.401  0.00  0.00    +0.001 C 
ATOM      6  C   UNL     1      46.322  20.035  21.199  0.00  0.00    -0.089 C 
ATOM      7  C   UNL     1      47.184  21.269  21.509  0.00  0.00    +0.043 C 
ATOM      8  C   UNL     1      48.545  21.140  20.821  0.00  0.00    +0.021 C 
ATOM      9  C   UNL     1      49.036  19.699  20.792  0.00  0.00    -0.001 C 
ATOM     10  C   UNL     1      49.048  19.175  22.235  0.00  0.00    +0.022 C 
ATOM     11  C   UNL     1      48.080  18.841  20.003  0.00  0.00    -0.083 C 
ATOM     12  C   UNL     1      48.437  17.737  19.404  0.00  0.00    -0.059 C 
ATOM     13  C   UNL     1      49.915  17.359  19.408  0.00  0.00    +0.058 C 
ATOM     14  C   UNL     1      50.622  18.691  19.135  0.00  0.00    +0.005 C 
ATOM     15  C   UNL     1      52.003  18.559  18.544  0.00  0.00    -0.032 C 
ATOM     16  C   UNL     1      52.929  17.692  19.415  0.00  0.00    +0.021 C 
ATOM     17  C   UNL     1      51.925  17.837  17.187  0.00  0.00    +0.018 C 
ATOM     18  C   UNL     1      51.185  18.673  16.150  0.00  0.00    -0.017 C 
ATOM     19  C   UNL     1      51.933  19.995  15.954  0.00  0.00    +0.157 C 
ATOM     22  C   UNL     1      51.915  20.748  17.284  0.00  0.00    +0.030 C 
ATOM     23  C   UNL     1      52.639  19.937  18.360  0.00  0.00    -0.001 C 
ATOM     24  C   UNL     1      52.593  20.739  19.663  0.00  0.00    +0.011 C 
ATOM     25  C   UNL     1      51.142  20.940  20.108  0.00  0.00    +0.022 C 
ATOM     26  C   UNL     1      50.484  19.591  20.341  0.00  0.00    -0.030 C 
ATOM     27  C   UNL     1      51.181  18.971  21.558  0.00  0.00    +0.010 C 
ATOM     28  C   UNL     1      46.674  19.389  19.864  0.00  0.00    +0.066 C 
ATOM     29  C   UNL     1      45.657  18.434  19.325  0.00  0.00    -0.001 C 
ATOM     30  C   UNL     1      45.824  18.357  17.794  0.00  0.00    +0.014 C 
ENDROOT
BRANCH  19  20
ATOM     20  O   UNL     1      51.280  20.772  14.950  0.00  0.00    -0.568 OA
ATOM     21  H   UNL     1      51.647  21.660  14.839  0.00  0.00    +0.377 HD
ENDBRANCH  19  20
TORSDOF 1
ENDMDL
MODEL 3
REMARK VINA RESULT:      -6.9      2.118      6.645
REMARK  Name = ZINC95485905
REMARK  6 active torsions:
REMARK  status: ('A' for Active; 'I' for Inactive)
REMARK    1  A    between atoms: C1_1  and  C2_2
REMARK    2  A    between atoms: C9_11  and  C28_36
REMARK    3  A    between atoms: C14_17  and  C24_30
REMARK    4  A    between atoms: C18_22  and  C23_29
REMARK    5  A    between atoms: C21_25  and  O1_28
REMARK    6  A    between atoms: C26_33  and  C27_35
REMARK                            x       y       z     vdW  Elec       q    Type
REMARK                         _______ _______ _______ _____ _____    ______ ____
ROOT
ATOM      1  C   UNL     1      44.335  20.430  21.022  0.00  0.00    +0.011 C 
ATOM      2  C   UNL     1      44.028  19.360  19.972  0.00  0.00    -0.014 C 
ATOM      3  C   UNL     1      43.408  18.167  20.655  0.00  0.00    +0.045 C 
ATOM      4  C   UNL     1      44.438  17.288  21.355  0.00  0.00    -0.037 C 
ATOM      5  C   UNL     1      45.023  16.176  20.466  0.00  0.00    +0.001 C 
ATOM      6  C   UNL     1      45.896  17.337  20.956  0.00  0.00    -0.089 C 
ATOM      7  C   UNL     1      46.985  16.950  21.968  0.00  0.00    +0.043 C 
ATOM      8  C   UNL     1      48.370  17.136  21.342  0.00  0.00    +0.021 C 
ATOM      9  C   UNL     1      48.375  16.794  19.859  0.00  0.00    -0.001 C 
ATOM     10  C   UNL     1      47.841  15.363  19.702  0.00  0.00    +0.022 C 
ATOM     11  C   UNL     1      47.445  17.714  19.109  0.00  0.00    -0.083 C 
ATOM     12  C   UNL     1      47.585  17.997  17.843  0.00  0.00    -0.059 C 
ATOM     13  C   UNL     1      48.815  17.462  17.116  0.00  0.00    +0.058 C 
ATOM     14  C   UNL     1      49.948  17.684  18.123  0.00  0.00    +0.005 C 
ATOM     15  C   UNL     1      51.323  17.773  17.511  0.00  0.00    -0.032 C 
ATOM     16  C   UNL     1      51.667  16.533  16.668  0.00  0.00    +0.021 C 
ATOM     17  C   UNL     1      51.387  18.961  16.535  0.00  0.00    +0.018 C 
ATOM     18  C   UNL     1      51.248  20.292  17.264  0.00  0.00    -0.017 C 
ATOM     19  C   UNL     1      52.395  20.428  18.271  0.00  0.00    +0.157 C 
ATOM     22  C   UNL     1      52.260  19.300  19.294  0.00  0.00    +0.030 C 
ATOM     23  C   UNL     1      52.382  17.942  18.601  0.00  0.00    -0.001 C 
ATOM     24  C   UNL     1      52.245  16.856  19.671  0.00  0.00    +0.011 C 
ATOM     25  C   UNL     1      50.865  16.937  20.331  0.00  0.00    +0.022 C 
ATOM     26  C   UNL     1      49.783  16.733  19.285  0.00  0.00    -0.030 C 
ATOM     27  C   UNL     1      49.902  15.279  18.812  0.00  0.00    +0.010 C 
ATOM     28  C   UNL     1      46.370  18.377  19.947  0.00  0.00    +0.066 C 
ATOM     29  C   UNL     1      45.288  19.068  19.181  0.00  0.00    -0.001 C 
ATOM     30  C   UNL     1      45.822  20.435  18.708  0.00  0.00    +0.014 C 
ENDROOT
BRANCH  19  20
ATOM     20  O   UNL     1      52.307  21.691  18.930  0.00  0.00    -0.568 OA
ATOM     21  H   UNL     1      52.552  21.665  19.865  0.00  0.00    +0.377 HD
ENDBRANCH  19  20
TORSDOF 1
ENDMDL
MODEL 4
REMARK VINA RESULT:      -6.7      3.176      5.869
REMARK  Name = ZINC95485905
REMARK  6 active torsions:
REMARK  status: ('A' for Active; 'I' for Inactive)
REMARK    1  A    between atoms: C1_1  and  C2_2
REMARK    2  A    between atoms: C9_11  and  C28_36
REMARK    3  A    between atoms: C14_17  and  C24_30
REMARK    4  A    between atoms: C18_22  and  C23_29
REMARK    5  A    between atoms: C21_25  and  O1_28
REMARK    6  A    between atoms: C26_33  and  C27_35
REMARK                            x       y       z     vdW  Elec       q    Type
REMARK                         _______ _______ _______ _____ _____    ______ ____
ROOT
ATOM      1  C   UNL     1      47.358  13.431  15.719  0.00  0.00    +0.011 C 
ATOM      2  C   UNL     1      47.769  13.010  17.132  0.00  0.00    -0.014 C 
ATOM      3  C   UNL     1      46.529  12.716  17.937  0.00  0.00    +0.045 C 
ATOM      4  C   UNL     1      45.838  13.980  18.437  0.00  0.00    -0.037 C 
ATOM      5  C   UNL     1      46.331  14.462  19.813  0.00  0.00    +0.001 C 
ATOM      6  C   UNL     1      46.598  15.284  18.547  0.00  0.00    -0.089 C 
ATOM      7  C   UNL     1      45.846  16.622  18.468  0.00  0.00    +0.043 C 
ATOM      8  C   UNL     1      46.838  17.784  18.549  0.00  0.00    +0.021 C 
ATOM      9  C   UNL     1      48.005  17.475  19.477  0.00  0.00    -0.001 C 
ATOM     10  C   UNL     1      47.429  17.091  20.848  0.00  0.00    +0.022 C 
ATOM     11  C   UNL     1      48.781  16.291  18.960  0.00  0.00    -0.083 C 
ATOM     12  C   UNL     1      50.042  16.089  19.228  0.00  0.00    -0.059 C 
ATOM     13  C   UNL     1      50.795  17.163  20.007  0.00  0.00    +0.058 C 
ATOM     14  C   UNL     1      50.302  18.470  19.377  0.00  0.00    +0.005 C 
ATOM     15  C   UNL     1      51.241  19.638  19.540  0.00  0.00    -0.032 C 
ATOM     16  C   UNL     1      51.578  19.914  21.015  0.00  0.00    +0.021 C 
ATOM     17  C   UNL     1      52.588  19.326  18.865  0.00  0.00    +0.018 C 
ATOM     18  C   UNL     1      52.443  19.209  17.352  0.00  0.00    -0.017 C 
ATOM     19  C   UNL     1      51.920  20.539  16.801  0.00  0.00    +0.157 C 
ATOM     22  C   UNL     1      50.537  20.787  17.402  0.00  0.00    +0.030 C 
ATOM     23  C   UNL     1      50.635  20.900  18.923  0.00  0.00    -0.001 C 
ATOM     24  C   UNL     1      49.227  21.151  19.467  0.00  0.00    +0.011 C 
ATOM     25  C   UNL     1      48.311  19.971  19.131  0.00  0.00    +0.022 C 
ATOM     26  C   UNL     1      48.859  18.701  19.760  0.00  0.00    -0.030 C 
ATOM     27  C   UNL     1      48.726  18.874  21.277  0.00  0.00    +0.010 C 
ATOM     28  C   UNL     1      48.024  15.377  18.017  0.00  0.00    +0.066 C 
ATOM     29  C   UNL     1      48.683  14.069  17.715  0.00  0.00    -0.001 C 
ATOM     30  C   UNL     1      49.786  14.309  16.665  0.00  0.00    +0.014 C 
ENDROOT
BRANCH  19  20
ATOM     20  O   UNL     1      51.823  20.464  15.378  0.00  0.00    -0.568 OA
ATOM     21  H   UNL     1      52.292  19.712  14.992  0.00  0.00    +0.377 HD
ENDBRANCH  19  20
TORSDOF 1
ENDMDL
MODEL 5
REMARK VINA RESULT:      -6.5      3.573      6.356
REMARK  Name = ZINC95485905
REMARK  6 active torsions:
REMARK  status: ('A' for Active; 'I' for Inactive)
REMARK    1  A    between atoms: C1_1  and  C2_2
REMARK    2  A    between atoms: C9_11  and  C28_36
REMARK    3  A    between atoms: C14_17  and  C24_30
REMARK    4  A    between atoms: C18_22  and  C23_29
REMARK    5  A    between atoms: C21_25  and  O1_28
REMARK    6  A    between atoms: C26_33  and  C27_35
REMARK                            x       y       z     vdW  Elec       q    Type
REMARK                         _______ _______ _______ _____ _____    ______ ____
ROOT
ATOM      1  C   UNL     1      52.589  19.514  18.096  0.00  0.00    +0.011 C 
ATOM      2  C   UNL     1      51.357  19.855  17.254  0.00  0.00    -0.014 C 
ATOM      3  C   UNL     1      50.714  21.102  17.807  0.00  0.00    +0.045 C 
ATOM      4  C   UNL     1      49.877  20.830  19.052  0.00  0.00    -0.037 C 
ATOM      5  C   UNL     1      48.406  20.487  18.757  0.00  0.00    +0.001 C 
ATOM      6  C   UNL     1      49.357  19.440  19.346  0.00  0.00    -0.089 C 
ATOM      7  C   UNL     1      49.051  19.022  20.793  0.00  0.00    +0.043 C 
ATOM      8  C   UNL     1      48.594  17.562  20.829  0.00  0.00    +0.021 C 
ATOM      9  C   UNL     1      47.769  17.191  19.605  0.00  0.00    -0.001 C 
ATOM     10  C   UNL     1      46.595  18.177  19.511  0.00  0.00    +0.022 C 
ATOM     11  C   UNL     1      48.596  17.345  18.354  0.00  0.00    -0.083 C 
ATOM     12  C   UNL     1      48.364  16.679  17.256  0.00  0.00    -0.059 C 
ATOM     13  C   UNL     1      47.276  15.610  17.276  0.00  0.00    +0.058 C 
ATOM     14  C   UNL     1      47.497  14.904  18.618  0.00  0.00    +0.005 C 
ATOM     15  C   UNL     1      46.963  13.496  18.682  0.00  0.00    -0.032 C 
ATOM     16  C   UNL     1      45.464  13.426  18.344  0.00  0.00    +0.021 C 
ATOM     17  C   UNL     1      47.661  12.622  17.625  0.00  0.00    +0.018 C 
ATOM     18  C   UNL     1      49.142  12.442  17.937  0.00  0.00    -0.017 C 
ATOM     19  C   UNL     1      49.282  11.759  19.301  0.00  0.00    +0.157 C 
ATOM     22  C   UNL     1      48.675  12.685  20.355  0.00  0.00    +0.030 C 
ATOM     23  C   UNL     1      47.188  12.902  20.073  0.00  0.00    -0.001 C 
ATOM     24  C   UNL     1      46.635  13.828  21.159  0.00  0.00    +0.011 C 
ATOM     25  C   UNL     1      47.338  15.187  21.102  0.00  0.00    +0.022 C 
ATOM     26  C   UNL     1      47.105  15.830  19.745  0.00  0.00    -0.030 C 
ATOM     27  C   UNL     1      45.611  16.164  19.673  0.00  0.00    +0.010 C 
ATOM     28  C   UNL     1      49.792  18.268  18.473  0.00  0.00    +0.066 C 
ATOM     29  C   UNL     1      50.455  18.639  17.185  0.00  0.00    -0.001 C 
ATOM     30  C   UNL     1      51.351  17.465  16.742  0.00  0.00    +0.014 C 
ENDROOT
BRANCH  19  20
ATOM     20  O   UNL     1      50.663  11.540  19.588  0.00  0.00    -0.568 OA
ATOM     21  H   UNL     1      51.256  12.190  19.188  0.00  0.00    +0.377 HD
ENDBRANCH  19  20
TORSDOF 1
ENDMDL
MODEL 6
REMARK VINA RESULT:      -5.7      1.855      2.479
REMARK  Name = ZINC95485905
REMARK  6 active torsions:
REMARK  status: ('A' for Active; 'I' for Inactive)
REMARK    1  A    between atoms: C1_1  and  C2_2
REMARK    2  A    between atoms: C9_11  and  C28_36
REMARK    3  A    between atoms: C14_17  and  C24_30
REMARK    4  A    between atoms: C18_22  and  C23_29
REMARK    5  A    between atoms: C21_25  and  O1_28
REMARK    6  A    between atoms: C26_33  and  C27_35
REMARK                            x       y       z     vdW  Elec       q    Type
REMARK                         _______ _______ _______ _____ _____    ______ ____
ROOT
ATOM      1  C   UNL     1      52.657  21.771  21.052  0.00  0.00    +0.011 C 
ATOM      2  C   UNL     1      52.299  20.656  22.036  0.00  0.00    -0.014 C 
ATOM      3  C   UNL     1      52.953  19.374  21.585  0.00  0.00    +0.045 C 
ATOM      4  C   UNL     1      52.204  18.703  20.439  0.00  0.00    -0.037 C 
ATOM      5  C   UNL     1      51.119  17.711  20.894  0.00  0.00    +0.001 C 
ATOM      6  C   UNL     1      50.747  19.015  20.180  0.00  0.00    -0.089 C 
ATOM      7  C   UNL     1      50.161  18.841  18.770  0.00  0.00    +0.043 C 
ATOM      8  C   UNL     1      48.692  19.272  18.758  0.00  0.00    +0.021 C 
ATOM      9  C   UNL     1      47.986  18.927  20.061  0.00  0.00    -0.001 C 
ATOM     10  C   UNL     1      48.160  17.421  20.308  0.00  0.00    +0.022 C 
ATOM     11  C   UNL     1      48.631  19.656  21.212  0.00  0.00    -0.083 C 
ATOM     12  C   UNL     1      48.001  19.951  22.316  0.00  0.00    -0.059 C 
ATOM     13  C   UNL     1      46.510  19.645  22.399  0.00  0.00    +0.058 C 
ATOM     14  C   UNL     1      45.981  20.078  21.027  0.00  0.00    +0.005 C 
ATOM     15  C   UNL     1      44.511  20.412  20.998  0.00  0.00    -0.032 C 
ATOM     16  C   UNL     1      43.639  19.251  21.504  0.00  0.00    +0.021 C 
ATOM     17  C   UNL     1      44.221  21.585  21.951  0.00  0.00    +0.018 C 
ATOM     18  C   UNL     1      44.877  22.874  21.468  0.00  0.00    -0.017 C 
ATOM     19  C   UNL     1      44.322  23.223  20.084  0.00  0.00    +0.157 C 
ATOM     22  C   UNL     1      44.705  22.097  19.124  0.00  0.00    +0.030 C 
ATOM     23  C   UNL     1      44.075  20.780  19.579  0.00  0.00    -0.001 C 
ATOM     24  C   UNL     1      44.488  19.694  18.582  0.00  0.00    +0.011 C 
ATOM     25  C   UNL     1      46.010  19.526  18.584  0.00  0.00    +0.022 C 
ATOM     26  C   UNL     1      46.480  19.120  19.971  0.00  0.00    -0.030 C 
ATOM     27  C   UNL     1      45.933  17.710  20.221  0.00  0.00    +0.010 C 
ATOM     28  C   UNL     1      50.055  20.117  20.974  0.00  0.00    +0.066 C 
ATOM     29  C   UNL     1      50.792  20.594  22.185  0.00  0.00    -0.001 C 
ATOM     30  C   UNL     1      50.334  22.032  22.500  0.00  0.00    +0.014 C 
ENDROOT
BRANCH  19  20
ATOM     20  O   UNL     1      44.891  24.454  19.636  0.00  0.00    -0.568 OA
ATOM     21  H   UNL     1      44.770  24.622  18.691  0.00  0.00    +0.377 HD
ENDBRANCH  19  20
TORSDOF 1
ENDMDL
MODEL 7
REMARK VINA RESULT:      -5.5      2.806      6.601
REMARK  Name = ZINC95485905
REMARK  6 active torsions:
REMARK  status: ('A' for Active; 'I' for Inactive)
REMARK    1  A    between atoms: C1_1  and  C2_2
REMARK    2  A    between atoms: C9_11  and  C28_36
REMARK    3  A    between atoms: C14_17  and  C24_30
REMARK    4  A    between atoms: C18_22  and  C23_29
REMARK    5  A    between atoms: C21_25  and  O1_28
REMARK    6  A    between atoms: C26_33  and  C27_35
REMARK                            x       y       z     vdW  Elec       q    Type
REMARK                         _______ _______ _______ _____ _____    ______ ____
ROOT
ATOM      1  C   UNL     1      45.344  13.986  20.902  0.00  0.00    +0.011 C 
ATOM      2  C   UNL     1      45.460  14.737  22.230  0.00  0.00    -0.014 C 
ATOM      3  C   UNL     1      44.161  15.450  22.506  0.00  0.00    +0.045 C 
ATOM      4  C   UNL     1      44.018  16.741  21.706  0.00  0.00    -0.037 C 
ATOM      5  C   UNL     1      44.578  17.985  22.416  0.00  0.00    +0.001 C 
ATOM      6  C   UNL     1      45.235  17.441  21.143  0.00  0.00    -0.089 C 
ATOM      7  C   UNL     1      45.102  18.342  19.905  0.00  0.00    +0.043 C 
ATOM      8  C   UNL     1      46.476  18.884  19.505  0.00  0.00    +0.021 C 
ATOM      9  C   UNL     1      47.354  19.165  20.716  0.00  0.00    -0.001 C 
ATOM     10  C   UNL     1      46.588  20.118  21.644  0.00  0.00    +0.022 C 
ATOM     11  C   UNL     1      47.609  17.890  21.479  0.00  0.00    -0.083 C 
ATOM     12  C   UNL     1      48.659  17.705  22.233  0.00  0.00    -0.059 C 
ATOM     13  C   UNL     1      49.735  18.786  22.250  0.00  0.00    +0.058 C 
ATOM     14  C   UNL     1      49.859  19.186  20.775  0.00  0.00    +0.005 C 
ATOM     15  C   UNL     1      51.182  19.808  20.403  0.00  0.00    -0.032 C 
ATOM     16  C   UNL     1      51.510  21.039  21.265  0.00  0.00    +0.021 C 
ATOM     17  C   UNL     1      52.322  18.809  20.667  0.00  0.00    +0.018 C 
ATOM     18  C   UNL     1      52.236  17.602  19.740  0.00  0.00    -0.017 C 
ATOM     19  C   UNL     1      52.337  18.084  18.290  0.00  0.00    +0.157 C 
ATOM     22  C   UNL     1      51.142  18.994  18.010  0.00  0.00    +0.030 C 
ATOM     23  C   UNL     1      51.184  20.216  18.929  0.00  0.00    -0.001 C 
ATOM     24  C   UNL     1      49.970  21.090  18.603  0.00  0.00    +0.011 C 
ATOM     25  C   UNL     1      48.675  20.322  18.883  0.00  0.00    +0.022 C 
ATOM     26  C   UNL     1      48.616  19.931  20.350  0.00  0.00    -0.030 C 
ATOM     27  C   UNL     1      48.472  21.236  21.142  0.00  0.00    +0.010 C 
ATOM     28  C   UNL     1      46.605  16.780  21.247  0.00  0.00    +0.066 C 
ATOM     29  C   UNL     1      46.689  15.623  22.191  0.00  0.00    -0.001 C 
ATOM     30  C   UNL     1      47.856  14.717  21.750  0.00  0.00    +0.014 C 
ENDROOT
BRANCH  19  20
ATOM     20  O   UNL     1      52.306  16.961  17.408  0.00  0.00    -0.568 OA
ATOM     21  H   UNL     1      52.059  17.181  16.499  0.00  0.00    +0.377 HD
ENDBRANCH  19  20
TORSDOF 1
ENDMDL
MODEL 8
REMARK VINA RESULT:      -5.4      3.342      5.701
REMARK  Name = ZINC95485905
REMARK  6 active torsions:
REMARK  status: ('A' for Active; 'I' for Inactive)
REMARK    1  A    between atoms: C1_1  and  C2_2
REMARK    2  A    between atoms: C9_11  and  C28_36
REMARK    3  A    between atoms: C14_17  and  C24_30
REMARK    4  A    between atoms: C18_22  and  C23_29
REMARK    5  A    between atoms: C21_25  and  O1_28
REMARK    6  A    between atoms: C26_33  and  C27_35
REMARK                            x       y       z     vdW  Elec       q    Type
REMARK                         _______ _______ _______ _____ _____    ______ ____
ROOT
ATOM      1  C   UNL     1      50.128  12.275  17.625  0.00  0.00    +0.011 C 
ATOM      2  C   UNL     1      50.205  12.359  19.151  0.00  0.00    -0.014 C 
ATOM      3  C   UNL     1      48.917  11.839  19.737  0.00  0.00    +0.045 C 
ATOM      4  C   UNL     1      47.784  12.857  19.666  0.00  0.00    -0.037 C 
ATOM      5  C   UNL     1      47.693  13.781  20.893  0.00  0.00    +0.001 C 
ATOM      6  C   UNL     1      48.080  14.334  19.517  0.00  0.00    -0.089 C 
ATOM      7  C   UNL     1      47.041  15.266  18.874  0.00  0.00    +0.043 C 
ATOM      8  C   UNL     1      47.599  16.689  18.790  0.00  0.00    +0.021 C 
ATOM      9  C   UNL     1      48.477  17.029  19.986  0.00  0.00    -0.001 C 
ATOM     10  C   UNL     1      47.653  16.790  21.260  0.00  0.00    +0.022 C 
ATOM     11  C   UNL     1      49.671  16.110  20.033  0.00  0.00    -0.083 C 
ATOM     12  C   UNL     1      50.800  16.431  20.603  0.00  0.00    -0.059 C 
ATOM     13  C   UNL     1      50.956  17.848  21.145  0.00  0.00    +0.058 C 
ATOM     14  C   UNL     1      50.326  18.719  20.052  0.00  0.00    +0.005 C 
ATOM     15  C   UNL     1      50.809  20.147  20.031  0.00  0.00    -0.032 C 
ATOM     16  C   UNL     1      50.604  20.851  21.384  0.00  0.00    +0.021 C 
ATOM     17  C   UNL     1      52.326  20.184  19.778  0.00  0.00    +0.018 C 
ATOM     18  C   UNL     1      52.672  19.683  18.380  0.00  0.00    -0.017 C 
ATOM     19  C   UNL     1      51.985  20.582  17.348  0.00  0.00    +0.157 C 
ATOM     22  C   UNL     1      50.475  20.457  17.545  0.00  0.00    +0.030 C 
ATOM     23  C   UNL     1      50.084  20.940  18.943  0.00  0.00    -0.001 C 
ATOM     24  C   UNL     1      48.566  20.796  19.081  0.00  0.00    +0.011 C 
ATOM     25  C   UNL     1      48.160  19.325  18.949  0.00  0.00    +0.022 C 
ATOM     26  C   UNL     1      48.831  18.508  20.041  0.00  0.00    -0.030 C 
ATOM     27  C   UNL     1      48.212  18.963  21.368  0.00  0.00    +0.010 C 
ATOM     28  C   UNL     1      49.513  14.799  19.288  0.00  0.00    +0.066 C 
ATOM     29  C   UNL     1      50.570  13.775  19.550  0.00  0.00    -0.001 C 
ATOM     30  C   UNL     1      51.821  14.143  18.726  0.00  0.00    +0.014 C 
ENDROOT
BRANCH  19  20
ATOM     20  O   UNL     1      52.337  20.156  16.031  0.00  0.00    -0.568 OA
ATOM     21  H   UNL     1      52.374  19.195  15.925  0.00  0.00    +0.377 HD
ENDBRANCH  19  20
TORSDOF 1
ENDMDL
MODEL 9
REMARK VINA RESULT:      -5.4      2.798      4.344
REMARK  Name = ZINC95485905
REMARK  6 active torsions:
REMARK  status: ('A' for Active; 'I' for Inactive)
REMARK    1  A    between atoms: C1_1  and  C2_2
REMARK    2  A    between atoms: C9_11  and  C28_36
REMARK    3  A    between atoms: C14_17  and  C24_30
REMARK    4  A    between atoms: C18_22  and  C23_29
REMARK    5  A    between atoms: C21_25  and  O1_28
REMARK    6  A    between atoms: C26_33  and  C27_35
REMARK                            x       y       z     vdW  Elec       q    Type
REMARK                         _______ _______ _______ _____ _____    ______ ____
ROOT
ATOM      1  C   UNL     1      51.259  13.388  16.063  0.00  0.00    +0.011 C 
ATOM      2  C   UNL     1      50.707  12.674  17.299  0.00  0.00    -0.014 C 
ATOM      3  C   UNL     1      49.716  11.626  16.860  0.00  0.00    +0.045 C 
ATOM      4  C   UNL     1      48.356  12.216  16.505  0.00  0.00    -0.037 C 
ATOM      5  C   UNL     1      47.379  12.302  17.691  0.00  0.00    +0.001 C 
ATOM      6  C   UNL     1      47.937  13.570  17.034  0.00  0.00    -0.089 C 
ATOM      7  C   UNL     1      46.907  14.412  16.266  0.00  0.00    +0.043 C 
ATOM      8  C   UNL     1      46.697  15.753  16.974  0.00  0.00    +0.021 C 
ATOM      9  C   UNL     1      46.782  15.619  18.487  0.00  0.00    -0.001 C 
ATOM     10  C   UNL     1      45.766  14.553  18.924  0.00  0.00    +0.022 C 
ATOM     11  C   UNL     1      48.152  15.137  18.891  0.00  0.00    -0.083 C 
ATOM     12  C   UNL     1      48.680  15.378  20.060  0.00  0.00    -0.059 C 
ATOM     13  C   UNL     1      47.920  16.287  21.021  0.00  0.00    +0.058 C 
ATOM     14  C   UNL     1      47.412  17.415  20.117  0.00  0.00    +0.005 C 
ATOM     15  C   UNL     1      47.117  18.708  20.833  0.00  0.00    -0.032 C 
ATOM     16  C   UNL     1      46.109  18.522  21.980  0.00  0.00    +0.021 C 
ATOM     17  C   UNL     1      48.397  19.244  21.497  0.00  0.00    +0.018 C 
ATOM     18  C   UNL     1      49.436  19.654  20.459  0.00  0.00    -0.017 C 
ATOM     19  C   UNL     1      48.847  20.760  19.578  0.00  0.00    +0.157 C 
ATOM     22  C   UNL     1      47.635  20.183  18.847  0.00  0.00    +0.030 C 
ATOM     23  C   UNL     1      46.569  19.748  19.853  0.00  0.00    -0.001 C 
ATOM     24  C   UNL     1      45.383  19.185  19.066  0.00  0.00    +0.011 C 
ATOM     25  C   UNL     1      45.817  17.956  18.263  0.00  0.00    +0.022 C 
ATOM     26  C   UNL     1      46.332  16.882  19.206  0.00  0.00    -0.030 C 
ATOM     27  C   UNL     1      45.125  16.405  20.023  0.00  0.00    +0.010 C 
ATOM     28  C   UNL     1      48.936  14.422  17.809  0.00  0.00    +0.066 C 
ATOM     29  C   UNL     1      50.168  13.709  18.267  0.00  0.00    -0.001 C 
ATOM     30  C   UNL     1      51.292  14.748  18.454  0.00  0.00    +0.014 C 
ENDROOT
BRANCH  19  20
ATOM     20  O   UNL     1      49.824  21.190  18.630  0.00  0.00    -0.568 OA
ATOM     21  H   UNL     1      50.238  22.036  18.849  0.00  0.00    +0.377 HD
ENDBRANCH  19  20
TORSDOF 1
ENDMDL
