MODEL 1
REMARK VINA RESULT:      -5.9      0.000      0.000
REMARK  Name = ZINC13311972
REMARK  8 active torsions:
REMARK  status: ('A' for Active; 'I' for Inactive)
REMARK    1  A    between atoms: C1_1  and  C2_2
REMARK    2  A    between atoms: C2_2  and  C22_28
REMARK    3  A    between atoms: C10_10  and  O1_11
REMARK    4  A    between atoms: O1_11  and  C11_12
REMARK    5  A    between atoms: C13_15  and  C15_18
REMARK    6  A    between atoms: C18_21  and  O5_25
REMARK    7  A    between atoms: C20_23  and  O4_24
REMARK    8  A    between atoms: O5_25  and  C21_26
REMARK                            x       y       z     vdW  Elec       q    Type
REMARK                         _______ _______ _______ _____ _____    ______ ____
ROOT
ATOM      1  C   UNL     1      53.749  16.355  19.141  0.00  0.00    +0.088 C 
ATOM      2  C   UNL     1      52.220  16.343  19.107  0.00  0.00    +0.146 C 
ATOM      3  C   UNL     1      51.704  15.197  19.979  0.00  0.00    +0.038 C 
ATOM      4  C   UNL     1      51.756  16.135  17.689  0.00  0.00    -0.049 C 
ATOM      5  C   UNL     1      50.582  16.624  17.295  0.00  0.00    +0.057 C 
ATOM      6  C   UNL     1      49.775  17.375  18.279  0.00  0.00    -0.183 A 
ATOM      7  C   UNL     1      50.407  17.842  19.446  0.00  0.00    +0.210 A 
ATOM      8  C   UNL     1      49.691  18.549  20.392  0.00  0.00    -0.024 A 
ATOM      9  C   UNL     1      48.337  18.806  20.199  0.00  0.00    +0.192 A 
ATOM     10  C   UNL     1      47.705  18.344  19.031  0.00  0.00    -0.270 A 
ATOM     11  C   UNL     1      46.270  18.620  18.851  0.00  0.00    +0.431 A 
ATOM     12  C   UNL     1      45.611  19.383  19.928  0.00  0.00    -0.223 A 
ATOM     23  C   UNL     1      46.354  19.768  20.994  0.00  0.00    +0.316 A 
ATOM     24  O   UNL     1      45.660  18.243  17.864  0.00  0.00    -0.426 OA
ATOM     25  O   UNL     1      47.650  19.497  21.129  0.00  0.00    -0.206 OA
ATOM     26  C   UNL     1      48.423  17.621  18.069  0.00  0.00    +0.233 A 
ATOM     29  O   UNL     1      51.728  17.582  19.619  0.00  0.00    -0.294 OA
ENDROOT
BRANCH  12  13
ATOM     13  C   UNL     1      44.169  19.722  19.845  0.00  0.00    -0.092 A 
ATOM     14  C   UNL     1      43.213  18.833  20.328  0.00  0.00    +0.083 A 
ATOM     15  C   UNL     1      41.873  19.154  20.253  0.00  0.00    -0.081 A 
ATOM     16  C   UNL     1      41.474  20.357  19.688  0.00  0.00    +0.152 A 
ATOM     19  C   UNL     1      42.421  21.246  19.199  0.00  0.00    -0.040 A 
ATOM     20  C   UNL     1      43.768  20.934  19.274  0.00  0.00    +0.175 A 
BRANCH  16  17
ATOM     17  O   UNL     1      40.153  20.666  19.612  0.00  0.00    -0.315 OA
ATOM     18  C   UNL     1      39.723  21.403  18.465  0.00  0.00    +0.245 C 
ENDBRANCH  16  17
BRANCH  20  21
ATOM     21  O   UNL     1      44.695  21.804  18.797  0.00  0.00    -0.484 OA
ATOM     22  H   UNL     1      45.601  21.465  18.819  0.00  0.00    +0.390 HD
ENDBRANCH  20  21
ENDBRANCH  12  13
BRANCH  26  27
ATOM     27  O   UNL     1      47.809  17.173  16.946  0.00  0.00    -0.316 OA
ATOM     28  C   UNL     1      47.410  15.800  16.929  0.00  0.00    +0.248 C 
ENDBRANCH  26  27
TORSDOF 4
ENDMDL
MODEL 2
REMARK VINA RESULT:      -5.6      1.641      8.484
REMARK  Name = ZINC13311972
REMARK  8 active torsions:
REMARK  status: ('A' for Active; 'I' for Inactive)
REMARK    1  A    between atoms: C1_1  and  C2_2
REMARK    2  A    between atoms: C2_2  and  C22_28
REMARK    3  A    between atoms: C10_10  and  O1_11
REMARK    4  A    between atoms: O1_11  and  C11_12
REMARK    5  A    between atoms: C13_15  and  C15_18
REMARK    6  A    between atoms: C18_21  and  O5_25
REMARK    7  A    between atoms: C20_23  and  O4_24
REMARK    8  A    between atoms: O5_25  and  C21_26
REMARK                            x       y       z     vdW  Elec       q    Type
REMARK                         _______ _______ _______ _____ _____    ______ ____
ROOT
ATOM      1  C   UNL     1      39.830  21.436  19.143  0.00  0.00    +0.088 C 
ATOM      2  C   UNL     1      41.076  20.550  19.081  0.00  0.00    +0.146 C 
ATOM      3  C   UNL     1      41.168  19.905  17.697  0.00  0.00    +0.038 C 
ATOM      4  C   UNL     1      40.972  19.470  20.125  0.00  0.00    -0.049 C 
ATOM      5  C   UNL     1      42.076  18.950  20.657  0.00  0.00    +0.057 C 
ATOM      6  C   UNL     1      43.381  19.473  20.201  0.00  0.00    -0.183 A 
ATOM      7  C   UNL     1      43.408  20.702  19.517  0.00  0.00    +0.210 A 
ATOM      8  C   UNL     1      44.606  21.227  19.073  0.00  0.00    -0.024 A 
ATOM      9  C   UNL     1      45.798  20.546  19.300  0.00  0.00    +0.192 A 
ATOM     10  C   UNL     1      45.773  19.319  19.988  0.00  0.00    -0.270 A 
ATOM     11  C   UNL     1      47.045  18.611  20.210  0.00  0.00    +0.431 A 
ATOM     12  C   UNL     1      48.258  19.269  19.691  0.00  0.00    -0.223 A 
ATOM     23  C   UNL     1      48.126  20.457  19.052  0.00  0.00    +0.316 A 
ATOM     24  O   UNL     1      47.093  17.542  20.794  0.00  0.00    -0.426 OA
ATOM     25  O   UNL     1      46.959  21.069  18.863  0.00  0.00    -0.206 OA
ATOM     26  C   UNL     1      44.561  18.777  20.436  0.00  0.00    +0.233 A 
ATOM     29  O   UNL     1      42.236  21.353  19.303  0.00  0.00    -0.294 OA
ENDROOT
BRANCH  12  13
ATOM     13  C   UNL     1      49.593  18.646  19.866  0.00  0.00    -0.092 A 
ATOM     14  C   UNL     1      50.362  18.946  20.988  0.00  0.00    +0.083 A 
ATOM     15  C   UNL     1      51.601  18.362  21.150  0.00  0.00    -0.081 A 
ATOM     16  C   UNL     1      52.090  17.483  20.192  0.00  0.00    +0.152 A 
ATOM     19  C   UNL     1      51.332  17.184  19.068  0.00  0.00    -0.040 A 
ATOM     20  C   UNL     1      50.085  17.762  18.901  0.00  0.00    +0.175 A 
BRANCH  16  17
ATOM     17  O   UNL     1      53.313  16.915  20.354  0.00  0.00    -0.315 OA
ATOM     18  C   UNL     1      53.880  16.258  19.218  0.00  0.00    +0.245 C 
ENDBRANCH  16  17
BRANCH  20  21
ATOM     21  O   UNL     1      49.342  17.469  17.802  0.00  0.00    -0.484 OA
ATOM     22  H   UNL     1      48.544  16.956  17.992  0.00  0.00    +0.390 HD
ENDBRANCH  20  21
ENDBRANCH  12  13
BRANCH  26  27
ATOM     27  O   UNL     1      44.541  17.592  21.095  0.00  0.00    -0.316 OA
ATOM     28  C   UNL     1      44.315  17.637  22.505  0.00  0.00    +0.248 C 
ENDBRANCH  26  27
TORSDOF 4
ENDMDL
MODEL 3
REMARK VINA RESULT:      -5.5      2.908      7.893
REMARK  Name = ZINC13311972
REMARK  8 active torsions:
REMARK  status: ('A' for Active; 'I' for Inactive)
REMARK    1  A    between atoms: C1_1  and  C2_2
REMARK    2  A    between atoms: C2_2  and  C22_28
REMARK    3  A    between atoms: C10_10  and  O1_11
REMARK    4  A    between atoms: O1_11  and  C11_12
REMARK    5  A    between atoms: C13_15  and  C15_18
REMARK    6  A    between atoms: C18_21  and  O5_25
REMARK    7  A    between atoms: C20_23  and  O4_24
REMARK    8  A    between atoms: O5_25  and  C21_26
REMARK                            x       y       z     vdW  Elec       q    Type
REMARK                         _______ _______ _______ _____ _____    ______ ____
ROOT
ATOM      1  C   UNL     1      45.692  23.020  21.354  0.00  0.00    +0.088 C 
ATOM      2  C   UNL     1      45.579  21.752  20.505  0.00  0.00    +0.146 C 
ATOM      3  C   UNL     1      45.085  22.123  19.106  0.00  0.00    +0.038 C 
ATOM      4  C   UNL     1      44.592  20.812  21.146  0.00  0.00    -0.049 C 
ATOM      5  C   UNL     1      44.713  19.497  20.968  0.00  0.00    +0.057 C 
ATOM      6  C   UNL     1      45.839  19.008  20.145  0.00  0.00    -0.183 A 
ATOM      7  C   UNL     1      46.910  19.882  19.887  0.00  0.00    +0.210 A 
ATOM      8  C   UNL     1      47.982  19.465  19.124  0.00  0.00    -0.024 A 
ATOM      9  C   UNL     1      48.013  18.176  18.602  0.00  0.00    +0.192 A 
ATOM     10  C   UNL     1      46.945  17.299  18.863  0.00  0.00    -0.270 A 
ATOM     11  C   UNL     1      46.994  15.941  18.294  0.00  0.00    +0.431 A 
ATOM     12  C   UNL     1      48.189  15.610  17.495  0.00  0.00    -0.223 A 
ATOM     23  C   UNL     1      49.143  16.560  17.336  0.00  0.00    +0.316 A 
ATOM     24  O   UNL     1      46.099  15.134  18.477  0.00  0.00    -0.426 OA
ATOM     25  O   UNL     1      49.065  17.781  17.859  0.00  0.00    -0.206 OA
ATOM     26  C   UNL     1      45.851  17.716  19.632  0.00  0.00    +0.233 A 
ATOM     29  O   UNL     1      46.863  21.137  20.403  0.00  0.00    -0.294 OA
ENDROOT
BRANCH  12  13
ATOM     13  C   UNL     1      48.344  14.268  16.883  0.00  0.00    -0.092 A 
ATOM     14  C   UNL     1      49.301  13.383  17.372  0.00  0.00    +0.083 A 
ATOM     15  C   UNL     1      49.441  12.134  16.803  0.00  0.00    -0.081 A 
ATOM     16  C   UNL     1      48.636  11.760  15.735  0.00  0.00    +0.152 A 
ATOM     19  C   UNL     1      47.683  12.639  15.238  0.00  0.00    -0.040 A 
ATOM     20  C   UNL     1      47.535  13.892  15.807  0.00  0.00    +0.175 A 
BRANCH  16  17
ATOM     17  O   UNL     1      48.781  10.531  15.175  0.00  0.00    -0.315 OA
ATOM     18  C   UNL     1      50.000  10.277  14.474  0.00  0.00    +0.245 C 
ENDBRANCH  16  17
BRANCH  20  21
ATOM     21  O   UNL     1      46.602  14.752  15.321  0.00  0.00    -0.484 OA
ATOM     22  H   UNL     1      45.883  14.943  15.939  0.00  0.00    +0.390 HD
ENDBRANCH  20  21
ENDBRANCH  12  13
BRANCH  26  27
ATOM     27  O   UNL     1      44.820  16.869  19.877  0.00  0.00    -0.316 OA
ATOM     28  C   UNL     1      44.768  16.268  21.173  0.00  0.00    +0.248 C 
ENDBRANCH  26  27
TORSDOF 4
ENDMDL
MODEL 4
REMARK VINA RESULT:      -5.5      3.700      5.528
REMARK  Name = ZINC13311972
REMARK  8 active torsions:
REMARK  status: ('A' for Active; 'I' for Inactive)
REMARK    1  A    between atoms: C1_1  and  C2_2
REMARK    2  A    between atoms: C2_2  and  C22_28
REMARK    3  A    between atoms: C10_10  and  O1_11
REMARK    4  A    between atoms: O1_11  and  C11_12
REMARK    5  A    between atoms: C13_15  and  C15_18
REMARK    6  A    between atoms: C18_21  and  O5_25
REMARK    7  A    between atoms: C20_23  and  O4_24
REMARK    8  A    between atoms: O5_25  and  C21_26
REMARK                            x       y       z     vdW  Elec       q    Type
REMARK                         _______ _______ _______ _____ _____    ______ ____
ROOT
ATOM      1  C   UNL     1      51.437  10.959  12.984  0.00  0.00    +0.088 C 
ATOM      2  C   UNL     1      50.702  12.086  13.712  0.00  0.00    +0.146 C 
ATOM      3  C   UNL     1      49.902  12.904  12.697  0.00  0.00    +0.038 C 
ATOM      4  C   UNL     1      51.708  12.981  14.387  0.00  0.00    -0.049 C 
ATOM      5  C   UNL     1      51.371  13.650  15.488  0.00  0.00    +0.057 C 
ATOM      6  C   UNL     1      50.003  13.473  16.017  0.00  0.00    -0.183 A 
ATOM      7  C   UNL     1      49.248  12.373  15.571  0.00  0.00    +0.210 A 
ATOM      8  C   UNL     1      47.966  12.169  16.040  0.00  0.00    -0.024 A 
ATOM      9  C   UNL     1      47.407  13.051  16.960  0.00  0.00    +0.192 A 
ATOM     10  C   UNL     1      48.162  14.149  17.411  0.00  0.00    -0.270 A 
ATOM     11  C   UNL     1      47.548  15.075  18.379  0.00  0.00    +0.431 A 
ATOM     12  C   UNL     1      46.173  14.755  18.807  0.00  0.00    -0.223 A 
ATOM     23  C   UNL     1      45.575  13.655  18.289  0.00  0.00    +0.316 A 
ATOM     24  O   UNL     1      48.145  16.048  18.805  0.00  0.00    -0.426 OA
ATOM     25  O   UNL     1      46.156  12.842  17.410  0.00  0.00    -0.206 OA
ATOM     26  C   UNL     1      49.461  14.366  16.935  0.00  0.00    +0.233 A 
ATOM     29  O   UNL     1      49.808  11.523  14.672  0.00  0.00    -0.294 OA
ENDROOT
BRANCH  12  13
ATOM     13  C   UNL     1      45.464  15.617  19.784  0.00  0.00    -0.092 A 
ATOM     14  C   UNL     1      45.119  15.115  21.036  0.00  0.00    +0.083 A 
ATOM     15  C   UNL     1      44.463  15.920  21.944  0.00  0.00    -0.081 A 
ATOM     16  C   UNL     1      44.135  17.227  21.609  0.00  0.00    +0.152 A 
ATOM     19  C   UNL     1      44.470  17.733  20.361  0.00  0.00    -0.040 A 
ATOM     20  C   UNL     1      45.133  16.932  19.446  0.00  0.00    +0.175 A 
BRANCH  16  17
ATOM     17  O   UNL     1      43.484  18.014  22.506  0.00  0.00    -0.315 OA
ATOM     18  C   UNL     1      42.451  18.861  21.996  0.00  0.00    +0.245 C 
ENDBRANCH  16  17
BRANCH  20  21
ATOM     21  O   UNL     1      45.462  17.426  18.224  0.00  0.00    -0.484 OA
ATOM     22  H   UNL     1      45.474  16.762  17.521  0.00  0.00    +0.390 HD
ENDBRANCH  20  21
ENDBRANCH  12  13
BRANCH  26  27
ATOM     27  O   UNL     1      50.184  15.429  17.369  0.00  0.00    -0.316 OA
ATOM     28  C   UNL     1      51.245  15.161  18.288  0.00  0.00    +0.248 C 
ENDBRANCH  26  27
TORSDOF 4
ENDMDL
MODEL 5
REMARK VINA RESULT:      -5.3      1.580      2.808
REMARK  Name = ZINC13311972
REMARK  8 active torsions:
REMARK  status: ('A' for Active; 'I' for Inactive)
REMARK    1  A    between atoms: C1_1  and  C2_2
REMARK    2  A    between atoms: C2_2  and  C22_28
REMARK    3  A    between atoms: C10_10  and  O1_11
REMARK    4  A    between atoms: O1_11  and  C11_12
REMARK    5  A    between atoms: C13_15  and  C15_18
REMARK    6  A    between atoms: C18_21  and  O5_25
REMARK    7  A    between atoms: C20_23  and  O4_24
REMARK    8  A    between atoms: O5_25  and  C21_26
REMARK                            x       y       z     vdW  Elec       q    Type
REMARK                         _______ _______ _______ _____ _____    ______ ____
ROOT
ATOM      1  C   UNL     1      53.480  16.624  19.241  0.00  0.00    +0.088 C 
ATOM      2  C   UNL     1      52.184  17.389  18.967  0.00  0.00    +0.146 C 
ATOM      3  C   UNL     1      52.000  17.545  17.457  0.00  0.00    +0.038 C 
ATOM      4  C   UNL     1      52.268  18.753  19.600  0.00  0.00    -0.049 C 
ATOM      5  C   UNL     1      51.158  19.372  19.997  0.00  0.00    +0.057 C 
ATOM      6  C   UNL     1      49.869  18.676  19.809  0.00  0.00    -0.183 A 
ATOM      7  C   UNL     1      49.884  17.291  19.561  0.00  0.00    +0.210 A 
ATOM      8  C   UNL     1      48.702  16.602  19.379  0.00  0.00    -0.024 A 
ATOM      9  C   UNL     1      47.483  17.270  19.442  0.00  0.00    +0.192 A 
ATOM     10  C   UNL     1      47.465  18.654  19.695  0.00  0.00    -0.270 A 
ATOM     11  C   UNL     1      46.164  19.342  19.748  0.00  0.00    +0.431 A 
ATOM     12  C   UNL     1      44.971  18.502  19.539  0.00  0.00    -0.223 A 
ATOM     23  C   UNL     1      45.145  17.177  19.311  0.00  0.00    +0.316 A 
ATOM     24  O   UNL     1      46.079  20.541  19.958  0.00  0.00    -0.426 OA
ATOM     25  O   UNL     1      46.337  16.586  19.263  0.00  0.00    -0.206 OA
ATOM     26  C   UNL     1      48.660  19.361  19.874  0.00  0.00    +0.233 A 
ATOM     29  O   UNL     1      51.082  16.655  19.502  0.00  0.00    -0.294 OA
ENDROOT
BRANCH  12  13
ATOM     13  C   UNL     1      43.611  19.092  19.579  0.00  0.00    -0.092 A 
ATOM     14  C   UNL     1      43.158  19.879  18.523  0.00  0.00    +0.083 A 
ATOM     15  C   UNL     1      41.891  20.423  18.562  0.00  0.00    -0.081 A 
ATOM     16  C   UNL     1      41.068  20.197  19.657  0.00  0.00    +0.152 A 
ATOM     19  C   UNL     1      41.513  19.419  20.716  0.00  0.00    -0.040 A 
ATOM     20  C   UNL     1      42.782  18.865  20.683  0.00  0.00    +0.175 A 
BRANCH  16  17
ATOM     17  O   UNL     1      39.823  20.740  19.692  0.00  0.00    -0.315 OA
ATOM     18  C   UNL     1      39.411  21.495  18.551  0.00  0.00    +0.245 C 
ENDBRANCH  16  17
BRANCH  20  21
ATOM     21  O   UNL     1      43.219  18.103  21.718  0.00  0.00    -0.484 OA
ATOM     22  H   UNL     1      43.789  18.575  22.341  0.00  0.00    +0.390 HD
ENDBRANCH  20  21
ENDBRANCH  12  13
BRANCH  26  27
ATOM     27  O   UNL     1      48.640  20.696  20.113  0.00  0.00    -0.316 OA
ATOM     28  C   UNL     1      48.839  21.117  21.464  0.00  0.00    +0.248 C 
ENDBRANCH  26  27
TORSDOF 4
ENDMDL
MODEL 6
REMARK VINA RESULT:      -5.3      1.639      8.651
REMARK  Name = ZINC13311972
REMARK  8 active torsions:
REMARK  status: ('A' for Active; 'I' for Inactive)
REMARK    1  A    between atoms: C1_1  and  C2_2
REMARK    2  A    between atoms: C2_2  and  C22_28
REMARK    3  A    between atoms: C10_10  and  O1_11
REMARK    4  A    between atoms: O1_11  and  C11_12
REMARK    5  A    between atoms: C13_15  and  C15_18
REMARK    6  A    between atoms: C18_21  and  O5_25
REMARK    7  A    between atoms: C20_23  and  O4_24
REMARK    8  A    between atoms: O5_25  and  C21_26
REMARK                            x       y       z     vdW  Elec       q    Type
REMARK                         _______ _______ _______ _____ _____    ______ ____
ROOT
ATOM      1  C   UNL     1      41.657  20.905  18.532  0.00  0.00    +0.088 C 
ATOM      2  C   UNL     1      42.974  20.501  19.196  0.00  0.00    +0.146 C 
ATOM      3  C   UNL     1      42.674  19.679  20.451  0.00  0.00    +0.038 C 
ATOM      4  C   UNL     1      43.736  21.740  19.586  0.00  0.00    -0.049 C 
ATOM      5  C   UNL     1      45.066  21.712  19.646  0.00  0.00    +0.057 C 
ATOM      6  C   UNL     1      45.751  20.446  19.310  0.00  0.00    -0.183 A 
ATOM      7  C   UNL     1      45.030  19.458  18.616  0.00  0.00    +0.210 A 
ATOM      8  C   UNL     1      45.631  18.261  18.282  0.00  0.00    -0.024 A 
ATOM      9  C   UNL     1      46.957  18.021  18.628  0.00  0.00    +0.192 A 
ATOM     10  C   UNL     1      47.681  19.010  19.319  0.00  0.00    -0.270 A 
ATOM     11  C   UNL     1      49.081  18.732  19.683  0.00  0.00    +0.431 A 
ATOM     12  C   UNL     1      49.614  17.419  19.274  0.00  0.00    -0.223 A 
ATOM     23  C   UNL     1      48.796  16.569  18.606  0.00  0.00    +0.316 A 
ATOM     24  O   UNL     1      49.762  19.543  20.286  0.00  0.00    -0.426 OA
ATOM     25  O   UNL     1      47.533  16.849  18.296  0.00  0.00    -0.206 OA
ATOM     26  C   UNL     1      47.077  20.225  19.666  0.00  0.00    +0.233 A 
ATOM     29  O   UNL     1      43.737  19.708  18.286  0.00  0.00    -0.294 OA
ENDROOT
BRANCH  12  13
ATOM     13  C   UNL     1      51.014  17.039  19.583  0.00  0.00    -0.092 A 
ATOM     14  C   UNL     1      51.314  16.391  20.779  0.00  0.00    +0.083 A 
ATOM     15  C   UNL     1      52.617  16.035  21.062  0.00  0.00    -0.081 A 
ATOM     16  C   UNL     1      53.632  16.330  20.162  0.00  0.00    +0.152 A 
ATOM     19  C   UNL     1      53.342  16.980  18.971  0.00  0.00    -0.040 A 
ATOM     20  C   UNL     1      52.036  17.337  18.677  0.00  0.00    +0.175 A 
BRANCH  16  17
ATOM     17  O   UNL     1      54.914  15.981  20.448  0.00  0.00    -0.315 OA
ATOM     18  C   UNL     1      55.362  16.199  21.788  0.00  0.00    +0.245 C 
ENDBRANCH  16  17
BRANCH  20  21
ATOM     21  O   UNL     1      51.751  17.972  17.511  0.00  0.00    -0.484 OA
ATOM     22  H   UNL     1      51.201  17.456  16.906  0.00  0.00    +0.390 HD
ENDBRANCH  20  21
ENDBRANCH  12  13
BRANCH  26  27
ATOM     27  O   UNL     1      47.776  21.174  20.336  0.00  0.00    -0.316 OA
ATOM     28  C   UNL     1      47.489  21.331  21.727  0.00  0.00    +0.248 C 
ENDBRANCH  26  27
TORSDOF 4
ENDMDL
MODEL 7
REMARK VINA RESULT:      -5.2      2.797      4.874
REMARK  Name = ZINC13311972
REMARK  8 active torsions:
REMARK  status: ('A' for Active; 'I' for Inactive)
REMARK    1  A    between atoms: C1_1  and  C2_2
REMARK    2  A    between atoms: C2_2  and  C22_28
REMARK    3  A    between atoms: C10_10  and  O1_11
REMARK    4  A    between atoms: O1_11  and  C11_12
REMARK    5  A    between atoms: C13_15  and  C15_18
REMARK    6  A    between atoms: C18_21  and  O5_25
REMARK    7  A    between atoms: C20_23  and  O4_24
REMARK    8  A    between atoms: O5_25  and  C21_26
REMARK                            x       y       z     vdW  Elec       q    Type
REMARK                         _______ _______ _______ _____ _____    ______ ____
ROOT
ATOM      1  C   UNL     1      50.206  10.677  14.499  0.00  0.00    +0.088 C 
ATOM      2  C   UNL     1      49.954  12.157  14.791  0.00  0.00    +0.146 C 
ATOM      3  C   UNL     1      49.395  12.831  13.537  0.00  0.00    +0.038 C 
ATOM      4  C   UNL     1      51.254  12.818  15.170  0.00  0.00    -0.049 C 
ATOM      5  C   UNL     1      51.251  13.876  15.979  0.00  0.00    +0.057 C 
ATOM      6  C   UNL     1      49.951  14.358  16.488  0.00  0.00    -0.183 A 
ATOM      7  C   UNL     1      48.837  13.503  16.401  0.00  0.00    +0.210 A 
ATOM      8  C   UNL     1      47.604  13.914  16.866  0.00  0.00    -0.024 A 
ATOM      9  C   UNL     1      47.450  15.178  17.426  0.00  0.00    +0.192 A 
ATOM     10  C   UNL     1      48.563  16.033  17.518  0.00  0.00    -0.270 A 
ATOM     11  C   UNL     1      48.376  17.370  18.107  0.00  0.00    +0.431 A 
ATOM     12  C   UNL     1      47.014  17.697  18.568  0.00  0.00    -0.223 A 
ATOM     23  C   UNL     1      46.041  16.765  18.418  0.00  0.00    +0.316 A 
ATOM     24  O   UNL     1      49.298  18.162  18.212  0.00  0.00    -0.426 OA
ATOM     25  O   UNL     1      46.242  15.567  17.876  0.00  0.00    -0.206 OA
ATOM     26  C   UNL     1      49.817  15.626  17.044  0.00  0.00    +0.233 A 
ATOM     29  O   UNL     1      49.004  12.273  15.851  0.00  0.00    -0.294 OA
ENDROOT
BRANCH  12  13
ATOM     13  C   UNL     1      46.716  19.013  19.183  0.00  0.00    -0.092 A 
ATOM     14  C   UNL     1      46.164  20.035  18.414  0.00  0.00    +0.083 A 
ATOM     15  C   UNL     1      45.885  21.257  18.991  0.00  0.00    -0.081 A 
ATOM     16  C   UNL     1      46.161  21.475  20.334  0.00  0.00    +0.152 A 
ATOM     19  C   UNL     1      46.717  20.464  21.105  0.00  0.00    -0.040 A 
ATOM     20  C   UNL     1      46.996  19.233  20.535  0.00  0.00    +0.175 A 
BRANCH  16  17
ATOM     17  O   UNL     1      45.889  22.682  20.895  0.00  0.00    -0.315 OA
ATOM     18  C   UNL     1      44.747  22.756  21.752  0.00  0.00    +0.245 C 
ENDBRANCH  16  17
BRANCH  20  21
ATOM     21  O   UNL     1      47.538  18.242  21.289  0.00  0.00    -0.484 OA
ATOM     22  H   UNL     1      47.826  17.472  20.780  0.00  0.00    +0.390 HD
ENDBRANCH  20  21
ENDBRANCH  12  13
BRANCH  26  27
ATOM     27  O   UNL     1      50.887  16.455  17.130  0.00  0.00    -0.316 OA
ATOM     28  C   UNL     1      51.852  16.166  18.144  0.00  0.00    +0.248 C 
ENDBRANCH  26  27
TORSDOF 4
ENDMDL
MODEL 8
REMARK VINA RESULT:      -5.2      2.660      4.105
REMARK  Name = ZINC13311972
REMARK  8 active torsions:
REMARK  status: ('A' for Active; 'I' for Inactive)
REMARK    1  A    between atoms: C1_1  and  C2_2
REMARK    2  A    between atoms: C2_2  and  C22_28
REMARK    3  A    between atoms: C10_10  and  O1_11
REMARK    4  A    between atoms: O1_11  and  C11_12
REMARK    5  A    between atoms: C13_15  and  C15_18
REMARK    6  A    between atoms: C18_21  and  O5_25
REMARK    7  A    between atoms: C20_23  and  O4_24
REMARK    8  A    between atoms: O5_25  and  C21_26
REMARK                            x       y       z     vdW  Elec       q    Type
REMARK                         _______ _______ _______ _____ _____    ______ ____
ROOT
ATOM      1  C   UNL     1      52.246  11.364  15.284  0.00  0.00    +0.088 C 
ATOM      2  C   UNL     1      51.176  12.102  16.091  0.00  0.00    +0.146 C 
ATOM      3  C   UNL     1      51.212  11.615  17.541  0.00  0.00    +0.038 C 
ATOM      4  C   UNL     1      49.820  11.809  15.504  0.00  0.00    -0.049 C 
ATOM      5  C   UNL     1      48.837  12.701  15.621  0.00  0.00    +0.057 C 
ATOM      6  C   UNL     1      49.128  13.967  16.325  0.00  0.00    -0.183 A 
ATOM      7  C   UNL     1      50.473  14.332  16.522  0.00  0.00    +0.210 A 
ATOM      8  C   UNL     1      50.789  15.507  17.173  0.00  0.00    -0.024 A 
ATOM      9  C   UNL     1      49.780  16.343  17.642  0.00  0.00    +0.192 A 
ATOM     10  C   UNL     1      48.435  15.983  17.442  0.00  0.00    -0.270 A 
ATOM     11  C   UNL     1      47.384  16.879  17.953  0.00  0.00    +0.431 A 
ATOM     12  C   UNL     1      47.843  18.104  18.632  0.00  0.00    -0.223 A 
ATOM     23  C   UNL     1      49.176  18.320  18.744  0.00  0.00    +0.316 A 
ATOM     24  O   UNL     1      46.199  16.623  17.818  0.00  0.00    -0.426 OA
ATOM     25  O   UNL     1      50.102  17.487  18.276  0.00  0.00    -0.206 OA
ATOM     26  C   UNL     1      48.106  14.790  16.786  0.00  0.00    +0.233 A 
ATOM     29  O   UNL     1      51.444  13.504  16.059  0.00  0.00    -0.294 OA
ENDROOT
BRANCH  12  13
ATOM     13  C   UNL     1      46.867  19.079  19.178  0.00  0.00    -0.092 A 
ATOM     14  C   UNL     1      46.461  20.167  18.409  0.00  0.00    +0.083 A 
ATOM     15  C   UNL     1      45.551  21.070  18.919  0.00  0.00    -0.081 A 
ATOM     16  C   UNL     1      45.045  20.903  20.201  0.00  0.00    +0.152 A 
ATOM     19  C   UNL     1      45.449  19.825  20.976  0.00  0.00    -0.040 A 
ATOM     20  C   UNL     1      46.359  18.912  20.470  0.00  0.00    +0.175 A 
BRANCH  16  17
ATOM     17  O   UNL     1      44.153  21.798  20.700  0.00  0.00    -0.315 OA
ATOM     18  C   UNL     1      43.860  22.941  19.892  0.00  0.00    +0.245 C 
ENDBRANCH  16  17
BRANCH  20  21
ATOM     21  O   UNL     1      46.755  17.856  21.227  0.00  0.00    -0.484 OA
ATOM     22  H   UNL     1      46.026  17.307  21.549  0.00  0.00    +0.390 HD
ENDBRANCH  20  21
ENDBRANCH  12  13
BRANCH  26  27
ATOM     27  O   UNL     1      46.808  14.443  16.600  0.00  0.00    -0.316 OA
ATOM     28  C   UNL     1      46.279  13.425  17.452  0.00  0.00    +0.248 C 
ENDBRANCH  26  27
TORSDOF 4
ENDMDL
MODEL 9
REMARK VINA RESULT:      -5.1      2.852      8.311
REMARK  Name = ZINC13311972
REMARK  8 active torsions:
REMARK  status: ('A' for Active; 'I' for Inactive)
REMARK    1  A    between atoms: C1_1  and  C2_2
REMARK    2  A    between atoms: C2_2  and  C22_28
REMARK    3  A    between atoms: C10_10  and  O1_11
REMARK    4  A    between atoms: O1_11  and  C11_12
REMARK    5  A    between atoms: C13_15  and  C15_18
REMARK    6  A    between atoms: C18_21  and  O5_25
REMARK    7  A    between atoms: C20_23  and  O4_24
REMARK    8  A    between atoms: O5_25  and  C21_26
REMARK                            x       y       z     vdW  Elec       q    Type
REMARK                         _______ _______ _______ _____ _____    ______ ____
ROOT
ATOM      1  C   UNL     1      44.613  22.973  20.104  0.00  0.00    +0.088 C 
ATOM      2  C   UNL     1      45.361  21.642  20.205  0.00  0.00    +0.146 C 
ATOM      3  C   UNL     1      44.677  20.757  21.249  0.00  0.00    +0.038 C 
ATOM      4  C   UNL     1      46.782  21.901  20.630  0.00  0.00    -0.049 C 
ATOM      5  C   UNL     1      47.750  21.062  20.266  0.00  0.00    +0.057 C 
ATOM      6  C   UNL     1      47.382  19.897  19.434  0.00  0.00    -0.183 A 
ATOM      7  C   UNL     1      46.138  19.908  18.777  0.00  0.00    +0.210 A 
ATOM      8  C   UNL     1      45.756  18.841  17.989  0.00  0.00    -0.024 A 
ATOM      9  C   UNL     1      46.598  17.744  17.836  0.00  0.00    +0.192 A 
ATOM     10  C   UNL     1      47.845  17.733  18.489  0.00  0.00    -0.270 A 
ATOM     11  C   UNL     1      48.717  16.559  18.319  0.00  0.00    +0.431 A 
ATOM     12  C   UNL     1      48.201  15.481  17.455  0.00  0.00    -0.223 A 
ATOM     23  C   UNL     1      46.980  15.636  16.887  0.00  0.00    +0.316 A 
ATOM     24  O   UNL     1      49.807  16.484  18.861  0.00  0.00    -0.426 OA
ATOM     25  O   UNL     1      46.213  16.709  17.065  0.00  0.00    -0.206 OA
ATOM     26  C   UNL     1      48.238  18.810  19.294  0.00  0.00    +0.233 A 
ATOM     29  O   UNL     1      45.328  20.986  18.938  0.00  0.00    -0.294 OA
ENDROOT
BRANCH  12  13
ATOM     13  C   UNL     1      49.001  14.256  17.211  0.00  0.00    -0.092 A 
ATOM     14  C   UNL     1      49.891  14.204  16.141  0.00  0.00    +0.083 A 
ATOM     15  C   UNL     1      50.637  13.065  15.919  0.00  0.00    -0.081 A 
ATOM     16  C   UNL     1      50.496  11.965  16.754  0.00  0.00    +0.152 A 
ATOM     19  C   UNL     1      49.608  12.006  17.819  0.00  0.00    -0.040 A 
ATOM     20  C   UNL     1      48.859  13.148  18.051  0.00  0.00    +0.175 A 
BRANCH  16  17
ATOM     17  O   UNL     1      51.229  10.843  16.527  0.00  0.00    -0.315 OA
ATOM     18  C   UNL     1      52.567  11.026  16.059  0.00  0.00    +0.245 C 
ENDBRANCH  16  17
BRANCH  20  21
ATOM     21  O   UNL     1      47.990  13.190  19.094  0.00  0.00    -0.484 OA
ATOM     22  H   UNL     1      47.372  13.933  19.062  0.00  0.00    +0.390 HD
ENDBRANCH  20  21
ENDBRANCH  12  13
BRANCH  26  27
ATOM     27  O   UNL     1      49.438  18.794  19.925  0.00  0.00    -0.316 OA
ATOM     28  C   UNL     1      50.483  19.582  19.351  0.00  0.00    +0.248 C 
ENDBRANCH  26  27
TORSDOF 4
ENDMDL
