MODEL 1
REMARK VINA RESULT:      -6.5      0.000      0.000
REMARK  Name = ZINC13359138
REMARK  12 active torsions:
REMARK  status: ('A' for Active; 'I' for Inactive)
REMARK    1  A    between atoms: C1_1  and  C2_2
REMARK    2  A    between atoms: C5_5  and  C14_16
REMARK    3  A    between atoms: C8_8  and  O2_14
REMARK    4  A    between atoms: C10_10  and  O1_12
REMARK    5  A    between atoms: O1_12  and  C12_13
REMARK    6  A    between atoms: O2_14  and  C13_15
REMARK    7  A    between atoms: C15_17  and  O4_31
REMARK    8  A    between atoms: C17_19  and  O3_29
REMARK    9  A    between atoms: C21_23  and  C24_28
REMARK   10  A    between atoms: C22_26  and  C23_27
REMARK   11  A    between atoms: O3_29  and  C25_30
REMARK   12  A    between atoms: O4_31  and  C26_32
REMARK                            x       y       z     vdW  Elec       q    Type
REMARK                         _______ _______ _______ _____ _____    ______ ____
ROOT
ATOM      6  C   UNL     1      45.279  19.888  20.326  0.00  0.00    -0.105 A 
ATOM      7  C   UNL     1      44.683  18.702  20.787  0.00  0.00    +0.203 A 
ATOM     10  C   UNL     1      43.307  18.551  20.742  0.00  0.00    -0.169 A 
ATOM     11  C   UNL     1      42.508  19.561  20.229  0.00  0.00    +0.209 A 
ATOM     14  C   UNL     1      43.096  20.743  19.762  0.00  0.00    -0.187 A 
ATOM     15  C   UNL     1      42.283  21.838  19.211  0.00  0.00    +0.231 C 
ATOM     16  C   UNL     1      40.875  21.571  18.741  0.00  0.00    +0.137 C 
ATOM     17  N   UNL     1      42.778  23.029  19.130  0.00  0.00    -0.524 NA
ATOM     18  C   UNL     1      44.128  23.342  19.585  0.00  0.00    +0.151 C 
ATOM     19  C   UNL     1      44.627  24.591  18.857  0.00  0.00    +0.052 C 
ATOM     20  C   UNL     1      45.087  22.185  19.306  0.00  0.00    +0.078 C 
ATOM     21  C   UNL     1      44.485  20.902  19.814  0.00  0.00    +0.029 A 
ENDROOT
BRANCH   6   5
ATOM      1  C   UNL     1      47.259  16.891  16.628  0.00  0.00    +0.091 C 
ATOM      2  C   UNL     1      47.856  17.817  17.656  0.00  0.00    -0.025 A 
ATOM      3  C   UNL     1      47.035  18.487  18.513  0.00  0.00    -0.031 A 
ATOM      4  C   UNL     1      47.580  19.348  19.477  0.00  0.00    +0.044 A 
ATOM      5  C   UNL     1      46.750  20.052  20.383  0.00  0.00    -0.072 A 
ATOM     22  C   UNL     1      47.322  20.892  21.321  0.00  0.00    +0.083 A 
ATOM     23  C   UNL     1      48.700  21.055  21.383  0.00  0.00    -0.108 A 
ATOM     24  C   UNL     1      49.531  20.383  20.514  0.00  0.00    +0.172 A 
ATOM     27  C   UNL     1      48.983  19.518  19.546  0.00  0.00    -0.099 A 
ATOM     28  C   UNL     1      49.809  18.818  18.645  0.00  0.00    +0.170 A 
ATOM     31  C   UNL     1      49.236  17.982  17.712  0.00  0.00    -0.109 A 
BRANCH  24  25
ATOM     25  O   UNL     1      50.876  20.554  20.589  0.00  0.00    -0.291 OA
ATOM     26  C   UNL     1      51.386  21.180  21.769  0.00  0.00    +0.238 C 
ENDBRANCH  24  25
BRANCH  28  29
ATOM     29  O   UNL     1      51.158  18.966  18.695  0.00  0.00    -0.290 OA
ATOM     30  C   UNL     1      51.849  19.039  17.446  0.00  0.00    +0.237 C 
ENDBRANCH  28  29
ENDBRANCH   6   5
BRANCH   7   8
ATOM      8  O   UNL     1      45.456  17.705  21.285  0.00  0.00    -0.298 OA
ATOM      9  C   UNL     1      45.096  16.367  20.935  0.00  0.00    +0.242 C 
ENDBRANCH   7   8
BRANCH  11  12
ATOM     12  O   UNL     1      41.161  19.407  20.181  0.00  0.00    -0.299 OA
ATOM     13  C   UNL     1      40.518  18.944  21.370  0.00  0.00    +0.241 C 
ENDBRANCH  11  12
TORSDOF 5
ENDMDL
MODEL 2
REMARK VINA RESULT:      -6.3      1.648      3.368
REMARK  Name = ZINC13359138
REMARK  12 active torsions:
REMARK  status: ('A' for Active; 'I' for Inactive)
REMARK    1  A    between atoms: C1_1  and  C2_2
REMARK    2  A    between atoms: C5_5  and  C14_16
REMARK    3  A    between atoms: C8_8  and  O2_14
REMARK    4  A    between atoms: C10_10  and  O1_12
REMARK    5  A    between atoms: O1_12  and  C12_13
REMARK    6  A    between atoms: O2_14  and  C13_15
REMARK    7  A    between atoms: C15_17  and  O4_31
REMARK    8  A    between atoms: C17_19  and  O3_29
REMARK    9  A    between atoms: C21_23  and  C24_28
REMARK   10  A    between atoms: C22_26  and  C23_27
REMARK   11  A    between atoms: O3_29  and  C25_30
REMARK   12  A    between atoms: O4_31  and  C26_32
REMARK                            x       y       z     vdW  Elec       q    Type
REMARK                         _______ _______ _______ _____ _____    ______ ____
ROOT
ATOM      6  C   UNL     1      44.995  20.613  20.251  0.00  0.00    -0.105 A 
ATOM      7  C   UNL     1      44.366  21.609  19.486  0.00  0.00    +0.203 A 
ATOM     10  C   UNL     1      42.993  21.583  19.302  0.00  0.00    -0.169 A 
ATOM     11  C   UNL     1      42.228  20.583  19.881  0.00  0.00    +0.209 A 
ATOM     14  C   UNL     1      42.848  19.591  20.651  0.00  0.00    -0.187 A 
ATOM     15  C   UNL     1      42.071  18.514  21.283  0.00  0.00    +0.231 C 
ATOM     16  C   UNL     1      40.585  18.671  21.484  0.00  0.00    +0.137 C 
ATOM     17  N   UNL     1      42.665  17.431  21.666  0.00  0.00    -0.524 NA
ATOM     18  C   UNL     1      44.097  17.224  21.480  0.00  0.00    +0.151 C 
ATOM     19  C   UNL     1      44.593  16.201  22.504  0.00  0.00    +0.052 C 
ATOM     20  C   UNL     1      44.872  18.528  21.663  0.00  0.00    +0.078 C 
ATOM     21  C   UNL     1      44.235  19.610  20.832  0.00  0.00    +0.029 A 
ENDROOT
BRANCH   6   5
ATOM      1  C   UNL     1      46.991  17.260  16.882  0.00  0.00    +0.091 C 
ATOM      2  C   UNL     1      47.583  18.175  17.923  0.00  0.00    -0.025 A 
ATOM      3  C   UNL     1      46.758  18.962  18.670  0.00  0.00    -0.031 A 
ATOM      4  C   UNL     1      47.298  19.813  19.646  0.00  0.00    +0.044 A 
ATOM      5  C   UNL     1      46.464  20.637  20.440  0.00  0.00    -0.072 A 
ATOM     22  C   UNL     1      47.030  21.464  21.394  0.00  0.00    +0.083 A 
ATOM     23  C   UNL     1      48.406  21.496  21.580  0.00  0.00    -0.108 A 
ATOM     24  C   UNL     1      49.241  20.705  20.822  0.00  0.00    +0.172 A 
ATOM     27  C   UNL     1      48.699  19.851  19.842  0.00  0.00    -0.099 A 
ATOM     28  C   UNL     1      49.528  19.030  19.052  0.00  0.00    +0.170 A 
ATOM     31  C   UNL     1      48.961  18.208  18.103  0.00  0.00    -0.109 A 
BRANCH  24  25
ATOM     25  O   UNL     1      50.584  20.750  21.018  0.00  0.00    -0.291 OA
ATOM     26  C   UNL     1      51.043  20.756  22.372  0.00  0.00    +0.238 C 
ENDBRANCH  24  25
BRANCH  28  29
ATOM     29  O   UNL     1      50.875  19.051  19.224  0.00  0.00    -0.290 OA
ATOM     30  C   UNL     1      51.679  19.114  18.044  0.00  0.00    +0.237 C 
ENDBRANCH  28  29
ENDBRANCH   6   5
BRANCH   7   8
ATOM      8  O   UNL     1      45.105  22.595  18.919  0.00  0.00    -0.298 OA
ATOM      9  C   UNL     1      44.712  23.941  19.193  0.00  0.00    +0.242 C 
ENDBRANCH   7   8
BRANCH  11  12
ATOM     12  O   UNL     1      40.883  20.565  19.704  0.00  0.00    -0.299 OA
ATOM     13  C   UNL     1      40.348  21.439  18.708  0.00  0.00    +0.241 C 
ENDBRANCH  11  12
TORSDOF 5
ENDMDL
MODEL 3
REMARK VINA RESULT:      -6.2      2.526      7.209
REMARK  Name = ZINC13359138
REMARK  12 active torsions:
REMARK  status: ('A' for Active; 'I' for Inactive)
REMARK    1  A    between atoms: C1_1  and  C2_2
REMARK    2  A    between atoms: C5_5  and  C14_16
REMARK    3  A    between atoms: C8_8  and  O2_14
REMARK    4  A    between atoms: C10_10  and  O1_12
REMARK    5  A    between atoms: O1_12  and  C12_13
REMARK    6  A    between atoms: O2_14  and  C13_15
REMARK    7  A    between atoms: C15_17  and  O4_31
REMARK    8  A    between atoms: C17_19  and  O3_29
REMARK    9  A    between atoms: C21_23  and  C24_28
REMARK   10  A    between atoms: C22_26  and  C23_27
REMARK   11  A    between atoms: O3_29  and  C25_30
REMARK   12  A    between atoms: O4_31  and  C26_32
REMARK                            x       y       z     vdW  Elec       q    Type
REMARK                         _______ _______ _______ _____ _____    ______ ____
ROOT
ATOM      6  C   UNL     1      48.131  18.538  18.640  0.00  0.00    -0.105 A 
ATOM      7  C   UNL     1      48.139  17.645  17.556  0.00  0.00    +0.203 A 
ATOM     10  C   UNL     1      49.286  16.932  17.249  0.00  0.00    -0.169 A 
ATOM     11  C   UNL     1      50.431  17.084  18.016  0.00  0.00    +0.209 A 
ATOM     14  C   UNL     1      50.428  17.969  19.101  0.00  0.00    -0.187 A 
ATOM     15  C   UNL     1      51.623  18.157  19.939  0.00  0.00    +0.231 C 
ATOM     16  C   UNL     1      52.721  17.125  19.932  0.00  0.00    +0.137 C 
ATOM     17  N   UNL     1      51.727  19.211  20.682  0.00  0.00    -0.524 NA
ATOM     18  C   UNL     1      50.699  20.245  20.712  0.00  0.00    +0.151 C 
ATOM     19  C   UNL     1      50.792  21.007  22.036  0.00  0.00    +0.052 C 
ATOM     20  C   UNL     1      49.302  19.640  20.582  0.00  0.00    +0.078 C 
ATOM     21  C   UNL     1      49.273  18.696  19.409  0.00  0.00    +0.029 A 
ENDROOT
BRANCH   6   5
ATOM      1  C   UNL     1      45.113  15.430  21.435  0.00  0.00    +0.091 C 
ATOM      2  C   UNL     1      44.982  16.847  20.938  0.00  0.00    -0.025 A 
ATOM      3  C   UNL     1      45.990  17.396  20.204  0.00  0.00    -0.031 A 
ATOM      4  C   UNL     1      45.876  18.713  19.732  0.00  0.00    +0.044 A 
ATOM      5  C   UNL     1      46.906  19.306  18.962  0.00  0.00    -0.072 A 
ATOM     22  C   UNL     1      46.760  20.606  18.513  0.00  0.00    +0.083 A 
ATOM     23  C   UNL     1      45.615  21.336  18.810  0.00  0.00    -0.108 A 
ATOM     24  C   UNL     1      44.599  20.784  19.557  0.00  0.00    +0.172 A 
ATOM     27  C   UNL     1      44.713  19.462  20.030  0.00  0.00    -0.099 A 
ATOM     28  C   UNL     1      43.689  18.872  20.796  0.00  0.00    +0.170 A 
ATOM     31  C   UNL     1      43.838  17.577  21.242  0.00  0.00    -0.109 A 
BRANCH  24  25
ATOM     25  O   UNL     1      43.487  21.512  19.837  0.00  0.00    -0.291 OA
ATOM     26  C   UNL     1      43.618  22.936  19.802  0.00  0.00    +0.238 C 
ENDBRANCH  24  25
BRANCH  28  29
ATOM     29  O   UNL     1      42.565  19.573  21.093  0.00  0.00    -0.290 OA
ATOM     30  C   UNL     1      41.323  18.870  21.017  0.00  0.00    +0.237 C 
ENDBRANCH  28  29
ENDBRANCH   6   5
BRANCH   7   8
ATOM      8  O   UNL     1      47.022  17.484  16.804  0.00  0.00    -0.298 OA
ATOM      9  C   UNL     1      46.570  16.146  16.588  0.00  0.00    +0.242 C 
ENDBRANCH   7   8
BRANCH  11  12
ATOM     12  O   UNL     1      51.551  16.380  17.715  0.00  0.00    -0.299 OA
ATOM     13  C   UNL     1      51.404  15.281  16.814  0.00  0.00    +0.241 C 
ENDBRANCH  11  12
TORSDOF 5
ENDMDL
MODEL 4
REMARK VINA RESULT:      -5.7      1.617      2.236
REMARK  Name = ZINC13359138
REMARK  12 active torsions:
REMARK  status: ('A' for Active; 'I' for Inactive)
REMARK    1  A    between atoms: C1_1  and  C2_2
REMARK    2  A    between atoms: C5_5  and  C14_16
REMARK    3  A    between atoms: C8_8  and  O2_14
REMARK    4  A    between atoms: C10_10  and  O1_12
REMARK    5  A    between atoms: O1_12  and  C12_13
REMARK    6  A    between atoms: O2_14  and  C13_15
REMARK    7  A    between atoms: C15_17  and  O4_31
REMARK    8  A    between atoms: C17_19  and  O3_29
REMARK    9  A    between atoms: C21_23  and  C24_28
REMARK   10  A    between atoms: C22_26  and  C23_27
REMARK   11  A    between atoms: O3_29  and  C25_30
REMARK   12  A    between atoms: O4_31  and  C26_32
REMARK                            x       y       z     vdW  Elec       q    Type
REMARK                         _______ _______ _______ _____ _____    ______ ____
ROOT
ATOM      6  C   UNL     1      47.022  19.171  21.100  0.00  0.00    -0.105 A 
ATOM      7  C   UNL     1      46.990  18.043  21.935  0.00  0.00    +0.203 A 
ATOM     10  C   UNL     1      45.780  17.544  22.388  0.00  0.00    -0.169 A 
ATOM     11  C   UNL     1      44.590  18.146  22.010  0.00  0.00    +0.209 A 
ATOM     14  C   UNL     1      44.614  19.268  21.172  0.00  0.00    -0.187 A 
ATOM     15  C   UNL     1      43.373  19.935  20.748  0.00  0.00    +0.231 C 
ATOM     16  C   UNL     1      42.055  19.207  20.839  0.00  0.00    +0.137 C 
ATOM     17  N   UNL     1      43.415  21.145  20.297  0.00  0.00    -0.524 NA
ATOM     18  C   UNL     1      44.662  21.897  20.203  0.00  0.00    +0.151 C 
ATOM     19  C   UNL     1      44.512  22.989  19.142  0.00  0.00    +0.052 C 
ATOM     20  C   UNL     1      45.828  20.986  19.821  0.00  0.00    +0.078 C 
ATOM     21  C   UNL     1      45.836  19.778  20.719  0.00  0.00    +0.029 A 
ENDROOT
BRANCH   6   5
ATOM      1  C   UNL     1      48.254  16.536  16.843  0.00  0.00    +0.091 C 
ATOM      2  C   UNL     1      48.916  17.651  17.612  0.00  0.00    -0.025 A 
ATOM      3  C   UNL     1      48.312  18.145  18.729  0.00  0.00    -0.031 A 
ATOM      4  C   UNL     1      48.921  19.179  19.455  0.00  0.00    +0.044 A 
ATOM      5  C   UNL     1      48.317  19.708  20.623  0.00  0.00    -0.072 A 
ATOM     22  C   UNL     1      48.947  20.727  21.315  0.00  0.00    +0.083 A 
ATOM     23  C   UNL     1      50.162  21.239  20.876  0.00  0.00    -0.108 A 
ATOM     24  C   UNL     1      50.770  20.744  19.744  0.00  0.00    +0.172 A 
ATOM     27  C   UNL     1      50.159  19.706  19.015  0.00  0.00    -0.099 A 
ATOM     28  C   UNL     1      50.758  19.180  17.854  0.00  0.00    +0.170 A 
ATOM     31  C   UNL     1      50.129  18.165  17.167  0.00  0.00    -0.109 A 
BRANCH  24  25
ATOM     25  O   UNL     1      51.958  21.257  19.331  0.00  0.00    -0.291 OA
ATOM     26  C   UNL     1      52.746  21.939  20.309  0.00  0.00    +0.238 C 
ENDBRANCH  24  25
BRANCH  28  29
ATOM     29  O   UNL     1      51.946  19.670  17.415  0.00  0.00    -0.290 OA
ATOM     30  C   UNL     1      52.263  19.464  16.037  0.00  0.00    +0.237 C 
ENDBRANCH  28  29
ENDBRANCH   6   5
BRANCH   7   8
ATOM      8  O   UNL     1      48.149  17.443  22.306  0.00  0.00    -0.298 OA
ATOM      9  C   UNL     1      48.189  16.016  22.250  0.00  0.00    +0.242 C 
ENDBRANCH   7   8
BRANCH  11  12
ATOM     12  O   UNL     1      43.406  17.652  22.451  0.00  0.00    -0.299 OA
ATOM     13  C   UNL     1      43.272  16.230  22.494  0.00  0.00    +0.241 C 
ENDBRANCH  11  12
TORSDOF 5
ENDMDL
MODEL 5
REMARK VINA RESULT:      -5.6      2.437      7.414
REMARK  Name = ZINC13359138
REMARK  12 active torsions:
REMARK  status: ('A' for Active; 'I' for Inactive)
REMARK    1  A    between atoms: C1_1  and  C2_2
REMARK    2  A    between atoms: C5_5  and  C14_16
REMARK    3  A    between atoms: C8_8  and  O2_14
REMARK    4  A    between atoms: C10_10  and  O1_12
REMARK    5  A    between atoms: O1_12  and  C12_13
REMARK    6  A    between atoms: O2_14  and  C13_15
REMARK    7  A    between atoms: C15_17  and  O4_31
REMARK    8  A    between atoms: C17_19  and  O3_29
REMARK    9  A    between atoms: C21_23  and  C24_28
REMARK   10  A    between atoms: C22_26  and  C23_27
REMARK   11  A    between atoms: O3_29  and  C25_30
REMARK   12  A    between atoms: O4_31  and  C26_32
REMARK                            x       y       z     vdW  Elec       q    Type
REMARK                         _______ _______ _______ _____ _____    ______ ____
ROOT
ATOM      6  C   UNL     1      48.138  18.665  19.579  0.00  0.00    -0.105 A 
ATOM      7  C   UNL     1      49.120  18.986  20.531  0.00  0.00    +0.203 A 
ATOM     10  C   UNL     1      50.322  18.298  20.551  0.00  0.00    -0.169 A 
ATOM     11  C   UNL     1      50.573  17.299  19.623  0.00  0.00    +0.209 A 
ATOM     14  C   UNL     1      49.601  16.979  18.667  0.00  0.00    -0.187 A 
ATOM     15  C   UNL     1      49.829  15.925  17.666  0.00  0.00    +0.231 C 
ATOM     16  C   UNL     1      51.231  15.462  17.362  0.00  0.00    +0.137 C 
ATOM     17  N   UNL     1      48.824  15.398  17.047  0.00  0.00    -0.524 NA
ATOM     18  C   UNL     1      47.447  15.800  17.317  0.00  0.00    +0.151 C 
ATOM     19  C   UNL     1      46.582  15.478  16.097  0.00  0.00    +0.052 C 
ATOM     20  C   UNL     1      47.357  17.297  17.611  0.00  0.00    +0.078 C 
ATOM     21  C   UNL     1      48.382  17.666  18.650  0.00  0.00    +0.029 A 
ENDROOT
BRANCH   6   5
ATOM      1  C   UNL     1      44.752  15.772  22.176  0.00  0.00    +0.091 C 
ATOM      2  C   UNL     1      44.670  17.103  21.474  0.00  0.00    -0.025 A 
ATOM      3  C   UNL     1      45.780  17.611  20.868  0.00  0.00    -0.031 A 
ATOM      4  C   UNL     1      45.713  18.847  20.207  0.00  0.00    +0.044 A 
ATOM      5  C   UNL     1      46.850  19.395  19.565  0.00  0.00    -0.072 A 
ATOM     22  C   UNL     1      46.748  20.616  18.922  0.00  0.00    +0.083 A 
ATOM     23  C   UNL     1      45.545  21.311  18.902  0.00  0.00    -0.108 A 
ATOM     24  C   UNL     1      44.424  20.801  19.520  0.00  0.00    +0.172 A 
ATOM     27  C   UNL     1      44.491  19.560  20.183  0.00  0.00    -0.099 A 
ATOM     28  C   UNL     1      43.361  19.014  20.823  0.00  0.00    +0.170 A 
ATOM     31  C   UNL     1      43.466  17.798  21.461  0.00  0.00    -0.109 A 
BRANCH  24  25
ATOM     25  O   UNL     1      43.256  21.494  19.490  0.00  0.00    -0.291 OA
ATOM     26  C   UNL     1      43.345  22.919  19.560  0.00  0.00    +0.238 C 
ENDBRANCH  24  25
BRANCH  28  29
ATOM     29  O   UNL     1      42.178  19.682  20.810  0.00  0.00    -0.290 OA
ATOM     30  C   UNL     1      41.005  18.929  21.124  0.00  0.00    +0.237 C 
ENDBRANCH  28  29
ENDBRANCH   6   5
BRANCH   7   8
ATOM      8  O   UNL     1      48.887  19.966  21.439  0.00  0.00    -0.298 OA
ATOM      9  C   UNL     1      49.966  20.858  21.724  0.00  0.00    +0.242 C 
ENDBRANCH   7   8
BRANCH  11  12
ATOM     12  O   UNL     1      51.754  16.632  19.642  0.00  0.00    -0.299 OA
ATOM     13  C   UNL     1      52.920  17.388  19.972  0.00  0.00    +0.241 C 
ENDBRANCH  11  12
TORSDOF 5
ENDMDL
MODEL 6
REMARK VINA RESULT:      -5.4      4.158      8.437
REMARK  Name = ZINC13359138
REMARK  12 active torsions:
REMARK  status: ('A' for Active; 'I' for Inactive)
REMARK    1  A    between atoms: C1_1  and  C2_2
REMARK    2  A    between atoms: C5_5  and  C14_16
REMARK    3  A    between atoms: C8_8  and  O2_14
REMARK    4  A    between atoms: C10_10  and  O1_12
REMARK    5  A    between atoms: O1_12  and  C12_13
REMARK    6  A    between atoms: O2_14  and  C13_15
REMARK    7  A    between atoms: C15_17  and  O4_31
REMARK    8  A    between atoms: C17_19  and  O3_29
REMARK    9  A    between atoms: C21_23  and  C24_28
REMARK   10  A    between atoms: C22_26  and  C23_27
REMARK   11  A    between atoms: O3_29  and  C25_30
REMARK   12  A    between atoms: O4_31  and  C26_32
REMARK                            x       y       z     vdW  Elec       q    Type
REMARK                         _______ _______ _______ _____ _____    ______ ____
ROOT
ATOM      6  C   UNL     1      48.100  14.835  17.823  0.00  0.00    -0.105 A 
ATOM      7  C   UNL     1      47.642  13.706  17.125  0.00  0.00    +0.203 A 
ATOM     10  C   UNL     1      48.517  12.678  16.811  0.00  0.00    -0.169 A 
ATOM     11  C   UNL     1      49.847  12.749  17.196  0.00  0.00    +0.209 A 
ATOM     14  C   UNL     1      50.308  13.870  17.898  0.00  0.00    -0.187 A 
ATOM     15  C   UNL     1      51.712  13.982  18.324  0.00  0.00    +0.231 C 
ATOM     16  C   UNL     1      52.579  12.752  18.402  0.00  0.00    +0.137 C 
ATOM     17  N   UNL     1      52.200  15.139  18.631  0.00  0.00    -0.524 NA
ATOM     18  C   UNL     1      51.406  16.362  18.557  0.00  0.00    +0.151 C 
ATOM     19  C   UNL     1      52.009  17.409  19.495  0.00  0.00    +0.052 C 
ATOM     20  C   UNL     1      49.956  16.104  18.963  0.00  0.00    +0.078 C 
ATOM     21  C   UNL     1      49.429  14.913  18.209  0.00  0.00    +0.029 A 
ENDROOT
BRANCH   6   5
ATOM      1  C   UNL     1      45.645  13.476  22.148  0.00  0.00    +0.091 C 
ATOM      2  C   UNL     1      45.587  14.682  21.246  0.00  0.00    -0.025 A 
ATOM      3  C   UNL     1      46.393  14.739  20.149  0.00  0.00    -0.031 A 
ATOM      4  C   UNL     1      46.343  15.854  19.300  0.00  0.00    +0.044 A 
ATOM      5  C   UNL     1      47.165  15.936  18.150  0.00  0.00    -0.072 A 
ATOM     22  C   UNL     1      47.090  17.051  17.335  0.00  0.00    +0.083 A 
ATOM     23  C   UNL     1      46.217  18.091  17.632  0.00  0.00    -0.108 A 
ATOM     24  C   UNL     1      45.406  18.038  18.744  0.00  0.00    +0.172 A 
ATOM     27  C   UNL     1      45.457  16.917  19.596  0.00  0.00    -0.099 A 
ATOM     28  C   UNL     1      44.638  16.835  20.740  0.00  0.00    +0.170 A 
ATOM     31  C   UNL     1      44.716  15.723  21.550  0.00  0.00    -0.109 A 
BRANCH  24  25
ATOM     25  O   UNL     1      44.560  19.063  19.019  0.00  0.00    -0.291 OA
ATOM     26  C   UNL     1      45.062  20.388  18.827  0.00  0.00    +0.238 C 
ENDBRANCH  24  25
BRANCH  28  29
ATOM     29  O   UNL     1      43.781  17.844  21.042  0.00  0.00    -0.290 OA
ATOM     30  C   UNL     1      42.879  17.625  22.129  0.00  0.00    +0.237 C 
ENDBRANCH  28  29
ENDBRANCH   6   5
BRANCH   7   8
ATOM      8  O   UNL     1      46.341  13.623  16.749  0.00  0.00    -0.298 OA
ATOM      9  C   UNL     1      45.585  12.526  17.263  0.00  0.00    +0.242 C 
ENDBRANCH   7   8
BRANCH  11  12
ATOM     12  O   UNL     1      50.699  11.739  16.892  0.00  0.00    -0.299 OA
ATOM     13  C   UNL     1      50.128  10.554  16.334  0.00  0.00    +0.241 C 
ENDBRANCH  11  12
TORSDOF 5
ENDMDL
MODEL 7
REMARK VINA RESULT:      -5.2      4.345      8.753
REMARK  Name = ZINC13359138
REMARK  12 active torsions:
REMARK  status: ('A' for Active; 'I' for Inactive)
REMARK    1  A    between atoms: C1_1  and  C2_2
REMARK    2  A    between atoms: C5_5  and  C14_16
REMARK    3  A    between atoms: C8_8  and  O2_14
REMARK    4  A    between atoms: C10_10  and  O1_12
REMARK    5  A    between atoms: O1_12  and  C12_13
REMARK    6  A    between atoms: O2_14  and  C13_15
REMARK    7  A    between atoms: C15_17  and  O4_31
REMARK    8  A    between atoms: C17_19  and  O3_29
REMARK    9  A    between atoms: C21_23  and  C24_28
REMARK   10  A    between atoms: C22_26  and  C23_27
REMARK   11  A    between atoms: O3_29  and  C25_30
REMARK   12  A    between atoms: O4_31  and  C26_32
REMARK                            x       y       z     vdW  Elec       q    Type
REMARK                         _______ _______ _______ _____ _____    ______ ____
ROOT
ATOM      6  C   UNL     1      48.209  14.753  18.160  0.00  0.00    -0.105 A 
ATOM      7  C   UNL     1      49.529  14.886  18.622  0.00  0.00    +0.203 A 
ATOM     10  C   UNL     1      50.441  13.862  18.430  0.00  0.00    -0.169 A 
ATOM     11  C   UNL     1      50.063  12.702  17.770  0.00  0.00    +0.209 A 
ATOM     14  C   UNL     1      48.750  12.566  17.302  0.00  0.00    -0.187 A 
ATOM     15  C   UNL     1      48.311  11.352  16.596  0.00  0.00    +0.231 C 
ATOM     16  C   UNL     1      49.329  10.422  15.987  0.00  0.00    +0.137 C 
ATOM     17  N   UNL     1      47.050  11.085  16.500  0.00  0.00    -0.524 NA
ATOM     18  C   UNL     1      46.027  11.945  17.085  0.00  0.00    +0.151 C 
ATOM     19  C   UNL     1      44.706  11.731  16.343  0.00  0.00    +0.052 C 
ATOM     20  C   UNL     1      46.421  13.418  16.987  0.00  0.00    +0.078 C 
ATOM     21  C   UNL     1      47.825  13.596  17.501  0.00  0.00    +0.029 A 
ENDROOT
BRANCH   6   5
ATOM      1  C   UNL     1      45.566  13.587  22.430  0.00  0.00    +0.091 C 
ATOM      2  C   UNL     1      45.526  14.736  21.455  0.00  0.00    -0.025 A 
ATOM      3  C   UNL     1      46.386  14.749  20.399  0.00  0.00    -0.031 A 
ATOM      4  C   UNL     1      46.354  15.811  19.482  0.00  0.00    +0.044 A 
ATOM      5  C   UNL     1      47.233  15.846  18.373  0.00  0.00    -0.072 A 
ATOM     22  C   UNL     1      47.173  16.909  17.488  0.00  0.00    +0.083 A 
ATOM     23  C   UNL     1      46.261  17.940  17.678  0.00  0.00    -0.108 A 
ATOM     24  C   UNL     1      45.395  17.931  18.748  0.00  0.00    +0.172 A 
ATOM     27  C   UNL     1      45.428  16.865  19.669  0.00  0.00    -0.099 A 
ATOM     28  C   UNL     1      44.554  16.829  20.773  0.00  0.00    +0.170 A 
ATOM     31  C   UNL     1      44.616  15.769  21.651  0.00  0.00    -0.109 A 
BRANCH  24  25
ATOM     25  O   UNL     1      44.511  18.948  18.918  0.00  0.00    -0.291 OA
ATOM     26  C   UNL     1      45.027  20.278  18.828  0.00  0.00    +0.238 C 
ENDBRANCH  24  25
BRANCH  28  29
ATOM     29  O   UNL     1      43.657  17.830  20.970  0.00  0.00    -0.290 OA
ATOM     30  C   UNL     1      42.836  17.745  22.135  0.00  0.00    +0.237 C 
ENDBRANCH  28  29
ENDBRANCH   6   5
BRANCH   7   8
ATOM      8  O   UNL     1      49.910  16.019  19.263  0.00  0.00    -0.298 OA
ATOM      9  C   UNL     1      51.312  16.220  19.449  0.00  0.00    +0.242 C 
ENDBRANCH   7   8
BRANCH  11  12
ATOM     12  O   UNL     1      50.960  11.704  17.580  0.00  0.00    -0.299 OA
ATOM     13  C   UNL     1      52.332  12.081  17.441  0.00  0.00    +0.241 C 
ENDBRANCH  11  12
TORSDOF 5
ENDMDL
MODEL 8
REMARK VINA RESULT:      -5.2      4.569      7.518
REMARK  Name = ZINC13359138
REMARK  12 active torsions:
REMARK  status: ('A' for Active; 'I' for Inactive)
REMARK    1  A    between atoms: C1_1  and  C2_2
REMARK    2  A    between atoms: C5_5  and  C14_16
REMARK    3  A    between atoms: C8_8  and  O2_14
REMARK    4  A    between atoms: C10_10  and  O1_12
REMARK    5  A    between atoms: O1_12  and  C12_13
REMARK    6  A    between atoms: O2_14  and  C13_15
REMARK    7  A    between atoms: C15_17  and  O4_31
REMARK    8  A    between atoms: C17_19  and  O3_29
REMARK    9  A    between atoms: C21_23  and  C24_28
REMARK   10  A    between atoms: C22_26  and  C23_27
REMARK   11  A    between atoms: O3_29  and  C25_30
REMARK   12  A    between atoms: O4_31  and  C26_32
REMARK                            x       y       z     vdW  Elec       q    Type
REMARK                         _______ _______ _______ _____ _____    ______ ____
ROOT
ATOM      6  C   UNL     1      49.110  16.108  18.371  0.00  0.00    -0.105 A 
ATOM      7  C   UNL     1      47.991  16.065  17.524  0.00  0.00    +0.203 A 
ATOM     10  C   UNL     1      47.750  14.946  16.744  0.00  0.00    -0.169 A 
ATOM     11  C   UNL     1      48.602  13.854  16.803  0.00  0.00    +0.209 A 
ATOM     14  C   UNL     1      49.716  13.888  17.651  0.00  0.00    -0.187 A 
ATOM     15  C   UNL     1      50.644  12.750  17.743  0.00  0.00    +0.231 C 
ATOM     16  C   UNL     1      50.212  11.383  17.274  0.00  0.00    +0.137 C 
ATOM     17  N   UNL     1      51.830  12.924  18.226  0.00  0.00    -0.524 NA
ATOM     18  C   UNL     1      52.301  14.229  18.678  0.00  0.00    +0.151 C 
ATOM     19  C   UNL     1      53.429  14.032  19.692  0.00  0.00    +0.052 C 
ATOM     20  C   UNL     1      51.174  15.026  19.334  0.00  0.00    +0.078 C 
ATOM     21  C   UNL     1      49.967  15.020  18.434  0.00  0.00    +0.029 A 
ENDROOT
BRANCH   6   5
ATOM      1  C   UNL     1      52.086  19.241  15.560  0.00  0.00    +0.091 C 
ATOM      2  C   UNL     1      51.490  19.325  16.942  0.00  0.00    -0.025 A 
ATOM      3  C   UNL     1      50.723  18.298  17.405  0.00  0.00    -0.031 A 
ATOM      4  C   UNL     1      50.168  18.363  18.691  0.00  0.00    +0.044 A 
ATOM      5  C   UNL     1      49.372  17.308  19.199  0.00  0.00    -0.072 A 
ATOM     22  C   UNL     1      48.840  17.406  20.473  0.00  0.00    +0.083 A 
ATOM     23  C   UNL     1      49.078  18.527  21.258  0.00  0.00    -0.108 A 
ATOM     24  C   UNL     1      49.849  19.568  20.789  0.00  0.00    +0.172 A 
ATOM     27  C   UNL     1      50.406  19.502  19.497  0.00  0.00    -0.099 A 
ATOM     28  C   UNL     1      51.198  20.552  18.992  0.00  0.00    +0.170 A 
ATOM     31  C   UNL     1      51.726  20.451  17.723  0.00  0.00    -0.109 A 
BRANCH  24  25
ATOM     25  O   UNL     1      50.070  20.656  21.570  0.00  0.00    -0.291 OA
ATOM     26  C   UNL     1      48.949  21.180  22.286  0.00  0.00    +0.238 C 
ENDBRANCH  24  25
BRANCH  28  29
ATOM     29  O   UNL     1      51.440  21.653  19.748  0.00  0.00    -0.290 OA
ATOM     30  C   UNL     1      52.804  21.935  20.067  0.00  0.00    +0.237 C 
ENDBRANCH  28  29
ENDBRANCH   6   5
BRANCH   7   8
ATOM      8  O   UNL     1      47.148  17.126  17.463  0.00  0.00    -0.298 OA
ATOM      9  C   UNL     1      45.883  16.988  18.113  0.00  0.00    +0.242 C 
ENDBRANCH   7   8
BRANCH  11  12
ATOM     12  O   UNL     1      48.359  12.759  16.042  0.00  0.00    -0.299 OA
ATOM     13  C   UNL     1      48.104  12.976  14.653  0.00  0.00    +0.241 C 
ENDBRANCH  11  12
TORSDOF 5
ENDMDL
MODEL 9
REMARK VINA RESULT:      -5.1      5.495      9.779
REMARK  Name = ZINC13359138
REMARK  12 active torsions:
REMARK  status: ('A' for Active; 'I' for Inactive)
REMARK    1  A    between atoms: C1_1  and  C2_2
REMARK    2  A    between atoms: C5_5  and  C14_16
REMARK    3  A    between atoms: C8_8  and  O2_14
REMARK    4  A    between atoms: C10_10  and  O1_12
REMARK    5  A    between atoms: O1_12  and  C12_13
REMARK    6  A    between atoms: O2_14  and  C13_15
REMARK    7  A    between atoms: C15_17  and  O4_31
REMARK    8  A    between atoms: C17_19  and  O3_29
REMARK    9  A    between atoms: C21_23  and  C24_28
REMARK   10  A    between atoms: C22_26  and  C23_27
REMARK   11  A    between atoms: O3_29  and  C25_30
REMARK   12  A    between atoms: O4_31  and  C26_32
REMARK                            x       y       z     vdW  Elec       q    Type
REMARK                         _______ _______ _______ _____ _____    ______ ____
ROOT
ATOM      6  C   UNL     1      49.444  13.213  17.109  0.00  0.00    -0.105 A 
ATOM      7  C   UNL     1      49.388  12.866  15.749  0.00  0.00    +0.203 A 
ATOM     10  C   UNL     1      50.436  12.173  15.163  0.00  0.00    -0.169 A 
ATOM     11  C   UNL     1      51.540  11.806  15.917  0.00  0.00    +0.209 A 
ATOM     14  C   UNL     1      51.598  12.144  17.274  0.00  0.00    -0.187 A 
ATOM     15  C   UNL     1      52.752  11.770  18.108  0.00  0.00    +0.231 C 
ATOM     16  C   UNL     1      53.685  10.675  17.659  0.00  0.00    +0.137 C 
ATOM     17  N   UNL     1      52.964  12.385  19.225  0.00  0.00    -0.524 NA
ATOM     18  C   UNL     1      52.099  13.462  19.695  0.00  0.00    +0.151 C 
ATOM     19  C   UNL     1      52.219  13.575  21.216  0.00  0.00    +0.052 C 
ATOM     20  C   UNL     1      50.640  13.199  19.328  0.00  0.00    +0.078 C 
ATOM     21  C   UNL     1      50.546  12.849  17.867  0.00  0.00    +0.029 A 
ENDROOT
BRANCH   6   5
ATOM      1  C   UNL     1      50.655  18.216  16.830  0.00  0.00    +0.091 C 
ATOM      2  C   UNL     1      49.477  17.454  17.379  0.00  0.00    -0.025 A 
ATOM      3  C   UNL     1      49.458  16.094  17.292  0.00  0.00    -0.031 A 
ATOM      4  C   UNL     1      48.369  15.374  17.804  0.00  0.00    +0.044 A 
ATOM      5  C   UNL     1      48.327  13.960  17.732  0.00  0.00    -0.072 A 
ATOM     22  C   UNL     1      47.237  13.282  18.247  0.00  0.00    +0.083 A 
ATOM     23  C   UNL     1      46.183  13.973  18.834  0.00  0.00    -0.108 A 
ATOM     24  C   UNL     1      46.198  15.347  18.917  0.00  0.00    +0.172 A 
ATOM     27  C   UNL     1      47.292  16.070  18.403  0.00  0.00    -0.099 A 
ATOM     28  C   UNL     1      47.334  17.477  18.474  0.00  0.00    +0.170 A 
ATOM     31  C   UNL     1      48.421  18.149  17.959  0.00  0.00    -0.109 A 
BRANCH  24  25
ATOM     25  O   UNL     1      45.159  16.005  19.493  0.00  0.00    -0.291 OA
ATOM     26  C   UNL     1      44.881  15.707  20.863  0.00  0.00    +0.238 C 
ENDBRANCH  24  25
BRANCH  28  29
ATOM     29  O   UNL     1      46.311  18.164  19.045  0.00  0.00    -0.290 OA
ATOM     30  C   UNL     1      45.665  19.152  18.241  0.00  0.00    +0.237 C 
ENDBRANCH  28  29
ENDBRANCH   6   5
BRANCH   7   8
ATOM      8  O   UNL     1      48.310  13.216  15.005  0.00  0.00    -0.298 OA
ATOM      9  C   UNL     1      47.558  12.156  14.412  0.00  0.00    +0.242 C 
ENDBRANCH   7   8
BRANCH  11  12
ATOM     12  O   UNL     1      52.560  11.123  15.341  0.00  0.00    -0.299 OA
ATOM     13  C   UNL     1      52.234  10.277  14.237  0.00  0.00    +0.241 C 
ENDBRANCH  11  12
TORSDOF 5
ENDMDL
