MODEL 1
REMARK VINA RESULT:      -5.6      0.000      0.000
REMARK  Name = ZINC14759061
REMARK  6 active torsions:
REMARK  status: ('A' for Active; 'I' for Inactive)
REMARK    1  A    between atoms: C1_1  and  O1_2
REMARK    2  A    between atoms: O1_2  and  C2_3
REMARK    3  A    between atoms: C3_4  and  O6_22
REMARK    4  A    between atoms: C5_6  and  C8_10
REMARK    5  A    between atoms: C7_8  and  O2_9
REMARK    6  A    between atoms: C12_15  and  O5_21
REMARK                            x       y       z     vdW  Elec       q    Type
REMARK                         _______ _______ _______ _____ _____    ______ ____
ROOT
ATOM      9  C   UNL     1      46.503  19.135  19.177  0.00  0.00    -0.249 A 
ATOM     10  C   UNL     1      45.565  19.777  18.435  0.00  0.00    +0.349 A 
ATOM     11  O   UNL     1      44.274  19.805  18.777  0.00  0.00    -0.217 OA
ATOM     12  C   UNL     1      43.789  19.210  19.884  0.00  0.00    +0.163 A 
ATOM     13  C   UNL     1      42.434  19.275  20.185  0.00  0.00    -0.019 A 
ATOM     14  C   UNL     1      41.953  18.656  21.327  0.00  0.00    +0.176 A 
ATOM     17  C   UNL     1      42.814  17.968  22.178  0.00  0.00    -0.027 A 
ATOM     18  C   UNL     1      44.149  17.894  21.896  0.00  0.00    +0.137 A 
ATOM     19  C   UNL     1      44.650  18.513  20.749  0.00  0.00    -0.230 A 
ATOM     20  C   UNL     1      46.083  18.454  20.414  0.00  0.00    +0.429 A 
ATOM     21  O   UNL     1      46.882  17.866  21.122  0.00  0.00    -0.447 OA
ENDROOT
BRANCH   9   8
ATOM      3  C   UNL     1      50.587  19.109  17.963  0.00  0.00    +0.048 A 
ATOM      4  C   UNL     1      50.066  20.215  18.627  0.00  0.00    +0.107 A 
ATOM      7  C   UNL     1      48.740  20.226  19.022  0.00  0.00    +0.006 A 
ATOM      8  C   UNL     1      47.925  19.126  18.754  0.00  0.00    +0.003 A 
ATOM     22  C   UNL     1      48.449  18.017  18.095  0.00  0.00    +0.029 A 
ATOM     23  C   UNL     1      49.777  18.012  17.696  0.00  0.00    +0.109 A 
BRANCH   3   2
ATOM      1  C   UNL     1      52.184  19.602  16.270  0.00  0.00    +0.221 C 
ATOM      2  O   UNL     1      51.891  19.101  17.576  0.00  0.00    -0.317 OA
ENDBRANCH   3   2
BRANCH   4   5
ATOM      5  O   UNL     1      50.862  21.288  18.888  0.00  0.00    -0.481 OA
ATOM      6  H   UNL     1      51.351  21.610  18.119  0.00  0.00    +0.389 HD
ENDBRANCH   4   5
BRANCH  23  24
ATOM     24  O   UNL     1      50.287  16.931  17.048  0.00  0.00    -0.480 OA
ATOM     25  H   UNL     1      50.950  17.150  16.380  0.00  0.00    +0.389 HD
ENDBRANCH  23  24
ENDBRANCH   9   8
BRANCH  14  15
ATOM     15  O   UNL     1      40.629  18.722  21.619  0.00  0.00    -0.491 OA
ATOM     16  H   UNL     1      40.265  19.617  21.599  0.00  0.00    +0.403 HD
ENDBRANCH  14  15
TORSDOF 5
ENDMDL
MODEL 2
REMARK VINA RESULT:      -5.6      3.454      5.221
REMARK  Name = ZINC14759061
REMARK  6 active torsions:
REMARK  status: ('A' for Active; 'I' for Inactive)
REMARK    1  A    between atoms: C1_1  and  O1_2
REMARK    2  A    between atoms: O1_2  and  C2_3
REMARK    3  A    between atoms: C3_4  and  O6_22
REMARK    4  A    between atoms: C5_6  and  C8_10
REMARK    5  A    between atoms: C7_8  and  O2_9
REMARK    6  A    between atoms: C12_15  and  O5_21
REMARK                            x       y       z     vdW  Elec       q    Type
REMARK                         _______ _______ _______ _____ _____    ______ ____
ROOT
ATOM      9  C   UNL     1      45.523  18.641  19.239  0.00  0.00    -0.249 A 
ATOM     10  C   UNL     1      44.449  19.306  18.743  0.00  0.00    +0.349 A 
ATOM     11  O   UNL     1      44.198  20.586  19.034  0.00  0.00    -0.217 OA
ATOM     12  C   UNL     1      44.986  21.330  19.834  0.00  0.00    +0.163 A 
ATOM     13  C   UNL     1      44.671  22.657  20.098  0.00  0.00    -0.019 A 
ATOM     14  C   UNL     1      45.492  23.408  20.925  0.00  0.00    +0.176 A 
ATOM     17  C   UNL     1      46.632  22.844  21.494  0.00  0.00    -0.027 A 
ATOM     18  C   UNL     1      46.955  21.541  21.244  0.00  0.00    +0.137 A 
ATOM     19  C   UNL     1      46.138  20.772  20.413  0.00  0.00    -0.230 A 
ATOM     20  C   UNL     1      46.456  19.362  20.122  0.00  0.00    +0.429 A 
ATOM     21  O   UNL     1      47.440  18.819  20.593  0.00  0.00    -0.447 OA
ENDROOT
BRANCH   9   8
ATOM      3  C   UNL     1      46.196  14.554  18.245  0.00  0.00    +0.048 A 
ATOM      4  C   UNL     1      45.565  14.884  19.440  0.00  0.00    +0.107 A 
ATOM      7  C   UNL     1      45.345  16.211  19.764  0.00  0.00    +0.006 A 
ATOM      8  C   UNL     1      45.757  17.218  18.893  0.00  0.00    +0.003 A 
ATOM     22  C   UNL     1      46.385  16.886  17.694  0.00  0.00    +0.029 A 
ATOM     23  C   UNL     1      46.608  15.556  17.375  0.00  0.00    +0.109 A 
BRANCH   3   2
ATOM      1  C   UNL     1      45.354  12.562  17.253  0.00  0.00    +0.221 C 
ATOM      2  O   UNL     1      46.411  13.248  17.929  0.00  0.00    -0.317 OA
ENDBRANCH   3   2
BRANCH   4   5
ATOM      5  O   UNL     1      45.162  13.901  20.290  0.00  0.00    -0.481 OA
ATOM      6  H   UNL     1      45.161  14.162  21.221  0.00  0.00    +0.389 HD
ENDBRANCH   4   5
BRANCH  23  24
ATOM     24  O   UNL     1      47.224  15.232  16.207  0.00  0.00    -0.480 OA
ATOM     25  H   UNL     1      46.618  15.099  15.466  0.00  0.00    +0.389 HD
ENDBRANCH  23  24
ENDBRANCH   9   8
BRANCH  14  15
ATOM     15  O   UNL     1      45.182  24.704  21.181  0.00  0.00    -0.491 OA
ATOM     16  H   UNL     1      44.848  25.189  20.415  0.00  0.00    +0.403 HD
ENDBRANCH  14  15
TORSDOF 5
ENDMDL
MODEL 3
REMARK VINA RESULT:      -5.5      2.748      3.609
REMARK  Name = ZINC14759061
REMARK  6 active torsions:
REMARK  status: ('A' for Active; 'I' for Inactive)
REMARK    1  A    between atoms: C1_1  and  O1_2
REMARK    2  A    between atoms: O1_2  and  C2_3
REMARK    3  A    between atoms: C3_4  and  O6_22
REMARK    4  A    between atoms: C5_6  and  C8_10
REMARK    5  A    between atoms: C7_8  and  O2_9
REMARK    6  A    between atoms: C12_15  and  O5_21
REMARK                            x       y       z     vdW  Elec       q    Type
REMARK                         _______ _______ _______ _____ _____    ______ ____
ROOT
ATOM      9  C   UNL     1      45.292  21.091  19.634  0.00  0.00    -0.249 A 
ATOM     10  C   UNL     1      44.859  22.371  19.770  0.00  0.00    +0.349 A 
ATOM     11  O   UNL     1      43.597  22.734  19.522  0.00  0.00    -0.217 OA
ATOM     12  C   UNL     1      42.644  21.869  19.123  0.00  0.00    +0.163 A 
ATOM     13  C   UNL     1      41.349  22.308  18.881  0.00  0.00    -0.019 A 
ATOM     14  C   UNL     1      40.382  21.406  18.470  0.00  0.00    +0.176 A 
ATOM     17  C   UNL     1      40.695  20.059  18.298  0.00  0.00    -0.027 A 
ATOM     18  C   UNL     1      41.964  19.611  18.532  0.00  0.00    +0.137 A 
ATOM     19  C   UNL     1      42.950  20.508  18.946  0.00  0.00    -0.230 A 
ATOM     20  C   UNL     1      44.329  20.060  19.208  0.00  0.00    +0.429 A 
ATOM     21  O   UNL     1      44.659  18.895  19.073  0.00  0.00    -0.447 OA
ENDROOT
BRANCH   9   8
ATOM      3  C   UNL     1      49.348  20.072  20.442  0.00  0.00    +0.048 A 
ATOM      4  C   UNL     1      49.020  20.737  19.265  0.00  0.00    +0.107 A 
ATOM      7  C   UNL     1      47.702  21.069  19.001  0.00  0.00    +0.006 A 
ATOM      8  C   UNL     1      46.704  20.736  19.916  0.00  0.00    +0.003 A 
ATOM     22  C   UNL     1      47.035  20.075  21.096  0.00  0.00    +0.029 A 
ATOM     23  C   UNL     1      48.354  19.740  21.355  0.00  0.00    +0.109 A 
BRANCH   3   2
ATOM      1  C   UNL     1      51.424  20.707  21.418  0.00  0.00    +0.221 C 
ATOM      2  O   UNL     1      50.645  19.747  20.699  0.00  0.00    -0.317 OA
ENDBRANCH   3   2
BRANCH   4   5
ATOM      5  O   UNL     1      49.995  21.062  18.374  0.00  0.00    -0.481 OA
ATOM      6  H   UNL     1      49.888  21.937  17.976  0.00  0.00    +0.389 HD
ENDBRANCH   4   5
BRANCH  23  24
ATOM     24  O   UNL     1      48.677  19.090  22.505  0.00  0.00    -0.480 OA
ATOM     25  H   UNL     1      48.793  19.674  23.267  0.00  0.00    +0.389 HD
ENDBRANCH  23  24
ENDBRANCH   9   8
BRANCH  14  15
ATOM     15  O   UNL     1      39.117  21.838  18.234  0.00  0.00    -0.491 OA
ATOM     16  H   UNL     1      38.888  21.891  17.296  0.00  0.00    +0.403 HD
ENDBRANCH  14  15
TORSDOF 5
ENDMDL
MODEL 4
REMARK VINA RESULT:      -5.4      3.706      5.014
REMARK  Name = ZINC14759061
REMARK  6 active torsions:
REMARK  status: ('A' for Active; 'I' for Inactive)
REMARK    1  A    between atoms: C1_1  and  O1_2
REMARK    2  A    between atoms: O1_2  and  C2_3
REMARK    3  A    between atoms: C3_4  and  O6_22
REMARK    4  A    between atoms: C5_6  and  C8_10
REMARK    5  A    between atoms: C7_8  and  O2_9
REMARK    6  A    between atoms: C12_15  and  O5_21
REMARK                            x       y       z     vdW  Elec       q    Type
REMARK                         _______ _______ _______ _____ _____    ______ ____
ROOT
ATOM      9  C   UNL     1      46.624  15.685  17.938  0.00  0.00    -0.249 A 
ATOM     10  C   UNL     1      45.969  15.204  19.026  0.00  0.00    +0.349 A 
ATOM     11  O   UNL     1      45.187  15.971  19.792  0.00  0.00    -0.217 OA
ATOM     12  C   UNL     1      44.973  17.279  19.554  0.00  0.00    +0.163 A 
ATOM     13  C   UNL     1      44.149  18.023  20.388  0.00  0.00    -0.019 A 
ATOM     14  C   UNL     1      43.941  19.368  20.129  0.00  0.00    +0.176 A 
ATOM     17  C   UNL     1      44.551  19.983  19.038  0.00  0.00    -0.027 A 
ATOM     18  C   UNL     1      45.365  19.266  18.208  0.00  0.00    +0.137 A 
ATOM     19  C   UNL     1      45.584  17.910  18.456  0.00  0.00    -0.230 A 
ATOM     20  C   UNL     1      46.456  17.105  17.582  0.00  0.00    +0.429 A 
ATOM     21  O   UNL     1      47.015  17.591  16.614  0.00  0.00    -0.447 OA
ENDROOT
BRANCH   9   8
ATOM      3  C   UNL     1      49.101  13.136  15.590  0.00  0.00    +0.048 A 
ATOM      4  C   UNL     1      49.675  14.016  16.502  0.00  0.00    +0.107 A 
ATOM      7  C   UNL     1      48.872  14.844  17.266  0.00  0.00    +0.006 A 
ATOM      8  C   UNL     1      47.486  14.798  17.121  0.00  0.00    +0.003 A 
ATOM     22  C   UNL     1      46.912  13.913  16.211  0.00  0.00    +0.029 A 
ATOM     23  C   UNL     1      47.720  13.088  15.444  0.00  0.00    +0.109 A 
BRANCH   3   2
ATOM      1  C   UNL     1      50.289  12.806  13.555  0.00  0.00    +0.221 C 
ATOM      2  O   UNL     1      49.893  12.322  14.840  0.00  0.00    -0.317 OA
ENDBRANCH   3   2
BRANCH   4   5
ATOM      5  O   UNL     1      51.028  14.060  16.644  0.00  0.00    -0.481 OA
ATOM      6  H   UNL     1      51.455  13.194  16.611  0.00  0.00    +0.389 HD
ENDBRANCH   4   5
BRANCH  23  24
ATOM     24  O   UNL     1      47.159  12.227  14.553  0.00  0.00    -0.480 OA
ATOM     25  H   UNL     1      46.203  12.328  14.457  0.00  0.00    +0.389 HD
ENDBRANCH  23  24
ENDBRANCH   9   8
BRANCH  14  15
ATOM     15  O   UNL     1      43.135  20.093  20.946  0.00  0.00    -0.491 OA
ATOM     16  H   UNL     1      43.583  20.453  21.723  0.00  0.00    +0.403 HD
ENDBRANCH  14  15
TORSDOF 5
ENDMDL
MODEL 5
REMARK VINA RESULT:      -5.4      3.541      6.369
REMARK  Name = ZINC14759061
REMARK  6 active torsions:
REMARK  status: ('A' for Active; 'I' for Inactive)
REMARK    1  A    between atoms: C1_1  and  O1_2
REMARK    2  A    between atoms: O1_2  and  C2_3
REMARK    3  A    between atoms: C3_4  and  O6_22
REMARK    4  A    between atoms: C5_6  and  C8_10
REMARK    5  A    between atoms: C7_8  and  O2_9
REMARK    6  A    between atoms: C12_15  and  O5_21
REMARK                            x       y       z     vdW  Elec       q    Type
REMARK                         _______ _______ _______ _____ _____    ______ ____
ROOT
ATOM      9  C   UNL     1      45.233  17.678  19.369  0.00  0.00    -0.249 A 
ATOM     10  C   UNL     1      44.817  16.749  20.266  0.00  0.00    +0.349 A 
ATOM     11  O   UNL     1      45.048  15.442  20.108  0.00  0.00    -0.217 OA
ATOM     12  C   UNL     1      45.715  14.932  19.055  0.00  0.00    +0.163 A 
ATOM     13  C   UNL     1      45.924  13.563  18.947  0.00  0.00    -0.019 A 
ATOM     14  C   UNL     1      46.611  13.055  17.857  0.00  0.00    +0.176 A 
ATOM     17  C   UNL     1      47.098  13.905  16.866  0.00  0.00    -0.027 A 
ATOM     18  C   UNL     1      46.901  15.253  16.957  0.00  0.00    +0.137 A 
ATOM     19  C   UNL     1      46.210  15.780  18.049  0.00  0.00    -0.230 A 
ATOM     20  C   UNL     1      45.979  17.230  18.180  0.00  0.00    +0.429 A 
ATOM     21  O   UNL     1      46.382  18.019  17.343  0.00  0.00    -0.447 OA
ENDROOT
BRANCH   9   8
ATOM      3  C   UNL     1      44.415  21.813  19.986  0.00  0.00    +0.048 A 
ATOM      4  C   UNL     1      43.503  21.019  19.298  0.00  0.00    +0.107 A 
ATOM      7  C   UNL     1      43.767  19.676  19.097  0.00  0.00    +0.006 A 
ATOM      8  C   UNL     1      44.949  19.118  19.584  0.00  0.00    +0.003 A 
ATOM     22  C   UNL     1      45.859  19.913  20.277  0.00  0.00    +0.029 A 
ATOM     23  C   UNL     1      45.593  21.259  20.473  0.00  0.00    +0.109 A 
BRANCH   3   2
ATOM      1  C   UNL     1      44.597  24.042  19.173  0.00  0.00    +0.221 C 
ATOM      2  O   UNL     1      44.153  23.134  20.183  0.00  0.00    -0.317 OA
ENDBRANCH   3   2
BRANCH   4   5
ATOM      5  O   UNL     1      42.350  21.564  18.824  0.00  0.00    -0.481 OA
ATOM      6  H   UNL     1      42.420  22.504  18.608  0.00  0.00    +0.389 HD
ENDBRANCH   4   5
BRANCH  23  24
ATOM     24  O   UNL     1      46.483  22.035  21.146  0.00  0.00    -0.480 OA
ATOM     25  H   UNL     1      47.396  21.941  20.842  0.00  0.00    +0.389 HD
ENDBRANCH  23  24
ENDBRANCH   9   8
BRANCH  14  15
ATOM     15  O   UNL     1      46.813  11.717  17.754  0.00  0.00    -0.491 OA
ATOM     16  H   UNL     1      46.002  11.192  17.789  0.00  0.00    +0.403 HD
ENDBRANCH  14  15
TORSDOF 5
ENDMDL
MODEL 6
REMARK VINA RESULT:      -5.4      1.064      2.580
REMARK  Name = ZINC14759061
REMARK  6 active torsions:
REMARK  status: ('A' for Active; 'I' for Inactive)
REMARK    1  A    between atoms: C1_1  and  O1_2
REMARK    2  A    between atoms: O1_2  and  C2_3
REMARK    3  A    between atoms: C3_4  and  O6_22
REMARK    4  A    between atoms: C5_6  and  C8_10
REMARK    5  A    between atoms: C7_8  and  O2_9
REMARK    6  A    between atoms: C12_15  and  O5_21
REMARK                            x       y       z     vdW  Elec       q    Type
REMARK                         _______ _______ _______ _____ _____    ______ ____
ROOT
ATOM      9  C   UNL     1      47.509  19.229  19.883  0.00  0.00    -0.249 A 
ATOM     10  C   UNL     1      47.528  19.155  21.238  0.00  0.00    +0.349 A 
ATOM     11  O   UNL     1      46.412  19.139  21.973  0.00  0.00    -0.217 OA
ATOM     12  C   UNL     1      45.176  19.187  21.441  0.00  0.00    +0.163 A 
ATOM     13  C   UNL     1      44.053  19.167  22.259  0.00  0.00    -0.019 A 
ATOM     14  C   UNL     1      42.790  19.219  21.694  0.00  0.00    +0.176 A 
ATOM     17  C   UNL     1      42.632  19.290  20.312  0.00  0.00    -0.027 A 
ATOM     18  C   UNL     1      43.725  19.311  19.494  0.00  0.00    +0.137 A 
ATOM     19  C   UNL     1      45.006  19.259  20.047  0.00  0.00    -0.230 A 
ATOM     20  C   UNL     1      46.208  19.280  19.195  0.00  0.00    +0.429 A 
ATOM     21  O   UNL     1      46.129  19.342  17.980  0.00  0.00    -0.447 OA
ENDROOT
BRANCH   9   8
ATOM      3  C   UNL     1      51.143  19.289  17.660  0.00  0.00    +0.048 A 
ATOM      4  C   UNL     1      50.376  18.129  17.707  0.00  0.00    +0.107 A 
ATOM      7  C   UNL     1      49.195  18.108  18.428  0.00  0.00    +0.006 A 
ATOM      8  C   UNL     1      48.775  19.250  19.109  0.00  0.00    +0.003 A 
ATOM     22  C   UNL     1      49.541  20.412  19.057  0.00  0.00    +0.029 A 
ATOM     23  C   UNL     1      50.725  20.428  18.338  0.00  0.00    +0.109 A 
BRANCH   3   2
ATOM      1  C   UNL     1      52.222  19.715  15.583  0.00  0.00    +0.221 C 
ATOM      2  O   UNL     1      52.304  19.307  16.950  0.00  0.00    -0.317 OA
ENDBRANCH   3   2
BRANCH   4   5
ATOM      5  O   UNL     1      50.787  17.015  17.042  0.00  0.00    -0.481 OA
ATOM      6  H   UNL     1      50.443  16.945  16.142  0.00  0.00    +0.389 HD
ENDBRANCH   4   5
BRANCH  23  24
ATOM     24  O   UNL     1      51.476  21.561  18.291  0.00  0.00    -0.480 OA
ATOM     25  H   UNL     1      52.426  21.407  18.382  0.00  0.00    +0.389 HD
ENDBRANCH  23  24
ENDBRANCH   9   8
BRANCH  14  15
ATOM     15  O   UNL     1      41.695  19.199  22.496  0.00  0.00    -0.491 OA
ATOM     16  H   UNL     1      41.833  18.749  23.341  0.00  0.00    +0.403 HD
ENDBRANCH  14  15
TORSDOF 5
ENDMDL
MODEL 7
REMARK VINA RESULT:      -5.3      0.918      1.847
REMARK  Name = ZINC14759061
REMARK  6 active torsions:
REMARK  status: ('A' for Active; 'I' for Inactive)
REMARK    1  A    between atoms: C1_1  and  O1_2
REMARK    2  A    between atoms: O1_2  and  C2_3
REMARK    3  A    between atoms: C3_4  and  O6_22
REMARK    4  A    between atoms: C5_6  and  C8_10
REMARK    5  A    between atoms: C7_8  and  O2_9
REMARK    6  A    between atoms: C12_15  and  O5_21
REMARK                            x       y       z     vdW  Elec       q    Type
REMARK                         _______ _______ _______ _____ _____    ______ ____
ROOT
ATOM      9  C   UNL     1      46.307  18.887  19.958  0.00  0.00    -0.249 A 
ATOM     10  C   UNL     1      46.163  18.568  21.270  0.00  0.00    +0.349 A 
ATOM     11  O   UNL     1      44.977  18.579  21.886  0.00  0.00    -0.217 OA
ATOM     12  C   UNL     1      43.825  18.899  21.266  0.00  0.00    +0.163 A 
ATOM     13  C   UNL     1      42.623  18.892  21.962  0.00  0.00    -0.019 A 
ATOM     14  C   UNL     1      41.447  19.226  21.309  0.00  0.00    +0.176 A 
ATOM     17  C   UNL     1      41.458  19.568  19.959  0.00  0.00    -0.027 A 
ATOM     18  C   UNL     1      42.632  19.579  19.260  0.00  0.00    +0.137 A 
ATOM     19  C   UNL     1      43.824  19.246  19.904  0.00  0.00    -0.230 A 
ATOM     20  C   UNL     1      45.109  19.248  19.181  0.00  0.00    +0.429 A 
ATOM     21  O   UNL     1      45.177  19.539  18.000  0.00  0.00    -0.447 OA
ENDROOT
BRANCH   9   8
ATOM      3  C   UNL     1      50.150  18.828  18.119  0.00  0.00    +0.048 A 
ATOM      4  C   UNL     1      49.664  20.006  18.677  0.00  0.00    +0.107 A 
ATOM      7  C   UNL     1      48.416  20.027  19.275  0.00  0.00    +0.006 A 
ATOM      8  C   UNL     1      47.645  18.866  19.318  0.00  0.00    +0.003 A 
ATOM     22  C   UNL     1      48.135  17.686  18.764  0.00  0.00    +0.029 A 
ATOM     23  C   UNL     1      49.383  17.670  18.162  0.00  0.00    +0.109 A 
BRANCH   3   2
ATOM      1  C   UNL     1      51.429  19.067  16.127  0.00  0.00    +0.221 C 
ATOM      2  O   UNL     1      51.377  18.810  17.532  0.00  0.00    -0.317 OA
ENDBRANCH   3   2
BRANCH   4   5
ATOM      5  O   UNL     1      50.417  21.139  18.635  0.00  0.00    -0.481 OA
ATOM      6  H   UNL     1      51.032  21.175  17.890  0.00  0.00    +0.389 HD
ENDBRANCH   4   5
BRANCH  23  24
ATOM     24  O   UNL     1      49.859  16.518  17.617  0.00  0.00    -0.480 OA
ATOM     25  H   UNL     1      50.015  16.569  16.664  0.00  0.00    +0.389 HD
ENDBRANCH  23  24
ENDBRANCH   9   8
BRANCH  14  15
ATOM     15  O   UNL     1      40.274  19.218  21.992  0.00  0.00    -0.491 OA
ATOM     16  H   UNL     1      39.589  18.667  21.591  0.00  0.00    +0.403 HD
ENDBRANCH  14  15
TORSDOF 5
ENDMDL
MODEL 8
REMARK VINA RESULT:      -5.3      3.139      4.083
REMARK  Name = ZINC14759061
REMARK  6 active torsions:
REMARK  status: ('A' for Active; 'I' for Inactive)
REMARK    1  A    between atoms: C1_1  and  O1_2
REMARK    2  A    between atoms: O1_2  and  C2_3
REMARK    3  A    between atoms: C3_4  and  O6_22
REMARK    4  A    between atoms: C5_6  and  C8_10
REMARK    5  A    between atoms: C7_8  and  O2_9
REMARK    6  A    between atoms: C12_15  and  O5_21
REMARK                            x       y       z     vdW  Elec       q    Type
REMARK                         _______ _______ _______ _____ _____    ______ ____
ROOT
ATOM      9  C   UNL     1      46.199  16.312  18.566  0.00  0.00    -0.249 A 
ATOM     10  C   UNL     1      45.818  17.542  18.138  0.00  0.00    +0.349 A 
ATOM     11  O   UNL     1      44.962  18.308  18.820  0.00  0.00    -0.217 OA
ATOM     12  C   UNL     1      44.407  17.936  19.990  0.00  0.00    +0.163 A 
ATOM     13  C   UNL     1      43.523  18.777  20.652  0.00  0.00    -0.019 A 
ATOM     14  C   UNL     1      42.961  18.378  21.853  0.00  0.00    +0.176 A 
ATOM     17  C   UNL     1      43.274  17.137  22.406  0.00  0.00    -0.027 A 
ATOM     18  C   UNL     1      44.142  16.298  21.767  0.00  0.00    +0.137 A 
ATOM     19  C   UNL     1      44.717  16.687  20.556  0.00  0.00    -0.230 A 
ATOM     20  C   UNL     1      45.656  15.806  19.839  0.00  0.00    +0.429 A 
ATOM     21  O   UNL     1      45.966  14.712  20.276  0.00  0.00    -0.447 OA
ENDROOT
BRANCH   9   8
ATOM      3  C   UNL     1      48.925  13.966  16.283  0.00  0.00    +0.048 A 
ATOM      4  C   UNL     1      49.405  14.952  17.140  0.00  0.00    +0.107 A 
ATOM      7  C   UNL     1      48.520  15.715  17.882  0.00  0.00    +0.006 A 
ATOM      8  C   UNL     1      47.148  15.495  17.771  0.00  0.00    +0.003 A 
ATOM     22  C   UNL     1      46.670  14.504  16.918  0.00  0.00    +0.029 A 
ATOM     23  C   UNL     1      47.558  13.745  16.172  0.00  0.00    +0.109 A 
BRANCH   3   2
ATOM      1  C   UNL     1      50.262  12.002  16.147  0.00  0.00    +0.221 C 
ATOM      2  O   UNL     1      49.797  13.217  15.555  0.00  0.00    -0.317 OA
ENDBRANCH   3   2
BRANCH   4   5
ATOM      5  O   UNL     1      50.744  15.166  17.247  0.00  0.00    -0.481 OA
ATOM      6  H   UNL     1      51.241  14.397  17.558  0.00  0.00    +0.389 HD
ENDBRANCH   4   5
BRANCH  23  24
ATOM     24  O   UNL     1      47.091  12.780  15.336  0.00  0.00    -0.480 OA
ATOM     25  H   UNL     1      47.183  11.882  15.680  0.00  0.00    +0.389 HD
ENDBRANCH  23  24
ENDBRANCH   9   8
BRANCH  14  15
ATOM     15  O   UNL     1      42.097  19.202  22.498  0.00  0.00    -0.491 OA
ATOM     16  H   UNL     1      41.482  18.745  23.089  0.00  0.00    +0.403 HD
ENDBRANCH  14  15
TORSDOF 5
ENDMDL
MODEL 9
REMARK VINA RESULT:      -5.3      3.123      4.328
REMARK  Name = ZINC14759061
REMARK  6 active torsions:
REMARK  status: ('A' for Active; 'I' for Inactive)
REMARK    1  A    between atoms: C1_1  and  O1_2
REMARK    2  A    between atoms: O1_2  and  C2_3
REMARK    3  A    between atoms: C3_4  and  O6_22
REMARK    4  A    between atoms: C5_6  and  C8_10
REMARK    5  A    between atoms: C7_8  and  O2_9
REMARK    6  A    between atoms: C12_15  and  O5_21
REMARK                            x       y       z     vdW  Elec       q    Type
REMARK                         _______ _______ _______ _____ _____    ______ ____
ROOT
ATOM      9  C   UNL     1      46.182  16.338  18.578  0.00  0.00    -0.249 A 
ATOM     10  C   UNL     1      45.820  17.578  18.160  0.00  0.00    +0.349 A 
ATOM     11  O   UNL     1      44.965  18.345  18.842  0.00  0.00    -0.217 OA
ATOM     12  C   UNL     1      44.393  17.965  20.001  0.00  0.00    +0.163 A 
ATOM     13  C   UNL     1      43.511  18.809  20.664  0.00  0.00    -0.019 A 
ATOM     14  C   UNL     1      42.931  18.401  21.854  0.00  0.00    +0.176 A 
ATOM     17  C   UNL     1      43.225  17.151  22.395  0.00  0.00    -0.027 A 
ATOM     18  C   UNL     1      44.090  16.309  21.755  0.00  0.00    +0.137 A 
ATOM     19  C   UNL     1      44.682  16.706  20.555  0.00  0.00    -0.230 A 
ATOM     20  C   UNL     1      45.620  15.824  19.838  0.00  0.00    +0.429 A 
ATOM     21  O   UNL     1      45.912  14.720  20.265  0.00  0.00    -0.447 OA
ENDROOT
BRANCH   9   8
ATOM      3  C   UNL     1      48.907  13.988  16.297  0.00  0.00    +0.048 A 
ATOM      4  C   UNL     1      47.537  13.768  16.187  0.00  0.00    +0.107 A 
ATOM      7  C   UNL     1      46.651  14.530  16.927  0.00  0.00    +0.006 A 
ATOM      8  C   UNL     1      47.131  15.520  17.783  0.00  0.00    +0.003 A 
ATOM     22  C   UNL     1      48.502  15.744  17.888  0.00  0.00    +0.029 A 
ATOM     23  C   UNL     1      49.387  14.975  17.149  0.00  0.00    +0.109 A 
BRANCH   3   2
ATOM      1  C   UNL     1      50.248  12.027  16.165  0.00  0.00    +0.221 C 
ATOM      2  O   UNL     1      49.776  13.237  15.567  0.00  0.00    -0.317 OA
ENDBRANCH   3   2
BRANCH   4   5
ATOM      5  O   UNL     1      47.070  12.802  15.350  0.00  0.00    -0.481 OA
ATOM      6  H   UNL     1      46.382  13.107  14.743  0.00  0.00    +0.389 HD
ENDBRANCH   4   5
BRANCH  23  24
ATOM     24  O   UNL     1      50.725  15.190  17.255  0.00  0.00    -0.480 OA
ATOM     25  H   UNL     1      51.267  14.437  16.985  0.00  0.00    +0.389 HD
ENDBRANCH  23  24
ENDBRANCH   9   8
BRANCH  14  15
ATOM     15  O   UNL     1      42.070  19.228  22.500  0.00  0.00    -0.491 OA
ATOM     16  H   UNL     1      41.141  19.088  22.268  0.00  0.00    +0.403 HD
ENDBRANCH  14  15
TORSDOF 5
ENDMDL
