MODEL 1
REMARK VINA RESULT:      -5.9      0.000      0.000
REMARK  Name = ZINC95486302
REMARK  8 active torsions:
REMARK  status: ('A' for Active; 'I' for Inactive)
REMARK    1  A    between atoms: C1_1  and  O1_2
REMARK    2  A    between atoms: O1_2  and  C2_3
REMARK    3  A    between atoms: C6_7  and  O6_24
REMARK    4  A    between atoms: C9_10  and  C10_11
REMARK    5  A    between atoms: C19_25  and  O8_29
REMARK    6  A    between atoms: C20_26  and  O7_27
REMARK    7  A    between atoms: O7_27  and  C21_28
REMARK    8  A    between atoms: O8_29  and  C22_30
REMARK                            x       y       z     vdW  Elec       q    Type
REMARK                         _______ _______ _______ _____ _____    ______ ____
ROOT
ATOM      3  C   UNL     1      46.960  14.643  17.576  0.00  0.00    +0.142 A 
ATOM      4  C   UNL     1      46.733  15.888  18.118  0.00  0.00    -0.047 A 
ATOM      5  C   UNL     1      47.765  16.837  18.142  0.00  0.00    +0.011 A 
ATOM      6  C   UNL     1      49.035  16.506  17.607  0.00  0.00    -0.089 A 
ATOM      7  C   UNL     1      49.244  15.228  17.059  0.00  0.00    +0.135 A 
ATOM     10  C   UNL     1      50.075  17.462  17.630  0.00  0.00    +0.179 A 
ATOM     13  C   UNL     1      49.860  18.693  18.163  0.00  0.00    -0.157 A 
ATOM     14  C   UNL     1      48.607  19.046  18.700  0.00  0.00    -0.156 A 
ATOM     15  C   UNL     1      48.707  20.430  19.188  0.00  0.00    +0.522 C 
ATOM     16  O   UNL     1      49.943  20.909  18.969  0.00  0.00    -0.312 OA
ATOM     17  O   UNL     1      47.803  21.050  19.713  0.00  0.00    -0.433 OA
ATOM     18  C   UNL     1      50.741  19.907  18.334  0.00  0.00    +0.336 C 
ATOM     19  C   UNL     1      47.555  18.123  18.693  0.00  0.00    +0.051 A 
ATOM     29  C   UNL     1      48.214  14.309  17.051  0.00  0.00    +0.074 A 
ENDROOT
BRANCH  19  20
ATOM     20  C   UNL     1      46.238  18.488  19.255  0.00  0.00    -0.054 A 
ATOM     21  C   UNL     1      45.938  18.194  20.586  0.00  0.00    +0.052 A 
ATOM     22  C   UNL     1      44.709  18.537  21.108  0.00  0.00    +0.041 A 
ATOM     23  C   UNL     1      43.766  19.175  20.313  0.00  0.00    +0.045 A 
ATOM     24  C   UNL     1      44.060  19.472  18.983  0.00  0.00    +0.038 A 
ATOM     25  O   UNL     1      42.978  20.092  18.426  0.00  0.00    -0.306 OA
ATOM     26  C   UNL     1      41.876  19.806  19.307  0.00  0.00    +0.436 C 
ATOM     27  O   UNL     1      42.502  19.610  20.588  0.00  0.00    -0.307 OA
ATOM     28  C   UNL     1      45.292  19.135  18.455  0.00  0.00    +0.075 A 
ENDBRANCH  19  20
BRANCH   3   2
ATOM      1  C   UNL     1      45.448  13.290  18.818  0.00  0.00    +0.251 C 
ATOM      2  O   UNL     1      45.956  13.726  17.555  0.00  0.00    -0.297 OA
ENDBRANCH   3   2
BRANCH   7   8
ATOM      8  O   UNL     1      50.457  14.896  16.543  0.00  0.00    -0.317 OA
ATOM      9  C   UNL     1      51.247  13.965  17.286  0.00  0.00    +0.247 C 
ENDBRANCH   7   8
BRANCH  10  11
ATOM     11  O   UNL     1      51.294  17.148  17.119  0.00  0.00    -0.478 OA
ATOM     12  H   UNL     1      51.549  16.224  17.248  0.00  0.00    +0.400 HD
ENDBRANCH  10  11
BRANCH  29  30
ATOM     30  O   UNL     1      48.417  13.071  16.526  0.00  0.00    -0.318 OA
ATOM     31  C   UNL     1      48.138  12.903  15.135  0.00  0.00    +0.236 C 
ENDBRANCH  29  30
TORSDOF 5
ENDMDL
MODEL 2
REMARK VINA RESULT:      -5.8      1.919      3.405
REMARK  Name = ZINC95486302
REMARK  8 active torsions:
REMARK  status: ('A' for Active; 'I' for Inactive)
REMARK    1  A    between atoms: C1_1  and  O1_2
REMARK    2  A    between atoms: O1_2  and  C2_3
REMARK    3  A    between atoms: C6_7  and  O6_24
REMARK    4  A    between atoms: C9_10  and  C10_11
REMARK    5  A    between atoms: C19_25  and  O8_29
REMARK    6  A    between atoms: C20_26  and  O7_27
REMARK    7  A    between atoms: O7_27  and  C21_28
REMARK    8  A    between atoms: O8_29  and  C22_30
REMARK                            x       y       z     vdW  Elec       q    Type
REMARK                         _______ _______ _______ _____ _____    ______ ____
ROOT
ATOM      3  C   UNL     1      47.507  17.556  17.587  0.00  0.00    +0.142 A 
ATOM      4  C   UNL     1      46.650  18.299  18.367  0.00  0.00    -0.047 A 
ATOM      5  C   UNL     1      47.164  19.258  19.250  0.00  0.00    +0.011 A 
ATOM      6  C   UNL     1      48.565  19.456  19.333  0.00  0.00    -0.089 A 
ATOM      7  C   UNL     1      49.422  18.685  18.527  0.00  0.00    +0.135 A 
ATOM     10  C   UNL     1      49.085  20.423  20.222  0.00  0.00    +0.179 A 
ATOM     13  C   UNL     1      48.246  21.160  20.995  0.00  0.00    -0.157 A 
ATOM     14  C   UNL     1      46.850  20.984  20.931  0.00  0.00    -0.156 A 
ATOM     15  C   UNL     1      46.240  21.925  21.882  0.00  0.00    +0.522 C 
ATOM     16  O   UNL     1      47.193  22.642  22.499  0.00  0.00    -0.312 OA
ATOM     17  O   UNL     1      45.045  22.037  22.080  0.00  0.00    -0.433 OA
ATOM     18  C   UNL     1      48.480  22.245  22.019  0.00  0.00    +0.336 C 
ATOM     19  C   UNL     1      46.303  20.034  20.061  0.00  0.00    +0.051 A 
ATOM     29  C   UNL     1      48.891  17.743  17.669  0.00  0.00    +0.074 A 
ENDROOT
BRANCH  19  20
ATOM     20  C   UNL     1      44.839  19.845  19.989  0.00  0.00    -0.054 A 
ATOM     21  C   UNL     1      44.220  18.865  20.767  0.00  0.00    +0.052 A 
ATOM     22  C   UNL     1      42.855  18.691  20.699  0.00  0.00    +0.041 A 
ATOM     23  C   UNL     1      42.090  19.488  19.858  0.00  0.00    +0.045 A 
ATOM     24  C   UNL     1      42.702  20.469  19.078  0.00  0.00    +0.038 A 
ATOM     25  O   UNL     1      41.741  21.108  18.348  0.00  0.00    -0.306 OA
ATOM     26  C   UNL     1      40.593  20.239  18.381  0.00  0.00    +0.436 C 
ATOM     27  O   UNL     1      40.747  19.514  19.615  0.00  0.00    -0.307 OA
ATOM     28  C   UNL     1      44.070  20.652  19.146  0.00  0.00    +0.075 A 
ENDBRANCH  19  20
BRANCH   3   2
ATOM      1  C   UNL     1      46.575  15.386  17.299  0.00  0.00    +0.251 C 
ATOM      2  O   UNL     1      47.003  16.626  16.732  0.00  0.00    -0.297 OA
ENDBRANCH   3   2
BRANCH   7   8
ATOM      8  O   UNL     1      50.768  18.863  18.596  0.00  0.00    -0.317 OA
ATOM      9  C   UNL     1      51.398  19.490  17.478  0.00  0.00    +0.247 C 
ENDBRANCH   7   8
BRANCH  10  11
ATOM     11  O   UNL     1      50.428  20.614  20.305  0.00  0.00    -0.478 OA
ATOM     12  H   UNL     1      50.872  20.018  20.923  0.00  0.00    +0.400 HD
ENDBRANCH  10  11
BRANCH  29  30
ATOM     30  O   UNL     1      49.720  16.993  16.893  0.00  0.00    -0.318 OA
ATOM     31  C   UNL     1      50.233  15.789  17.467  0.00  0.00    +0.236 C 
ENDBRANCH  29  30
TORSDOF 5
ENDMDL
MODEL 3
REMARK VINA RESULT:      -5.6      2.126      4.766
REMARK  Name = ZINC95486302
REMARK  8 active torsions:
REMARK  status: ('A' for Active; 'I' for Inactive)
REMARK    1  A    between atoms: C1_1  and  O1_2
REMARK    2  A    between atoms: O1_2  and  C2_3
REMARK    3  A    between atoms: C6_7  and  O6_24
REMARK    4  A    between atoms: C9_10  and  C10_11
REMARK    5  A    between atoms: C19_25  and  O8_29
REMARK    6  A    between atoms: C20_26  and  O7_27
REMARK    7  A    between atoms: O7_27  and  C21_28
REMARK    8  A    between atoms: O8_29  and  C22_30
REMARK                            x       y       z     vdW  Elec       q    Type
REMARK                         _______ _______ _______ _____ _____    ______ ____
ROOT
ATOM      3  C   UNL     1      50.465  20.035  18.210  0.00  0.00    +0.142 A 
ATOM      4  C   UNL     1      49.214  19.912  18.773  0.00  0.00    -0.047 A 
ATOM      5  C   UNL     1      48.543  18.682  18.718  0.00  0.00    +0.011 A 
ATOM      6  C   UNL     1      49.157  17.575  18.083  0.00  0.00    -0.089 A 
ATOM      7  C   UNL     1      50.435  17.724  17.514  0.00  0.00    +0.135 A 
ATOM     10  C   UNL     1      48.482  16.335  18.028  0.00  0.00    +0.179 A 
ATOM     13  C   UNL     1      47.248  16.205  18.581  0.00  0.00    -0.157 A 
ATOM     14  C   UNL     1      46.616  17.290  19.219  0.00  0.00    -0.156 A 
ATOM     15  C   UNL     1      45.310  16.820  19.703  0.00  0.00    +0.522 C 
ATOM     16  O   UNL     1      45.138  15.526  19.389  0.00  0.00    -0.312 OA
ATOM     17  O   UNL     1      44.503  17.505  20.302  0.00  0.00    -0.433 OA
ATOM     18  C   UNL     1      46.287  15.045  18.688  0.00  0.00    +0.336 C 
ATOM     19  C   UNL     1      47.258  18.532  19.290  0.00  0.00    +0.051 A 
ATOM     29  C   UNL     1      51.073  18.946  17.576  0.00  0.00    +0.074 A 
ENDROOT
BRANCH  19  20
ATOM     20  C   UNL     1      46.600  19.673  19.959  0.00  0.00    -0.054 A 
ATOM     21  C   UNL     1      46.665  19.804  21.347  0.00  0.00    +0.052 A 
ATOM     22  C   UNL     1      46.051  20.871  21.968  0.00  0.00    +0.041 A 
ATOM     23  C   UNL     1      45.368  21.818  21.218  0.00  0.00    +0.045 A 
ATOM     24  C   UNL     1      45.299  21.693  19.831  0.00  0.00    +0.038 A 
ATOM     25  O   UNL     1      44.578  22.741  19.334  0.00  0.00    -0.306 OA
ATOM     26  C   UNL     1      43.862  23.282  20.460  0.00  0.00    +0.436 C 
ATOM     27  O   UNL     1      44.690  22.943  21.588  0.00  0.00    -0.307 OA
ATOM     28  C   UNL     1      45.917  20.628  19.202  0.00  0.00    +0.075 A 
ENDBRANCH  19  20
BRANCH   3   2
ATOM      1  C   UNL     1      51.899  21.489  19.430  0.00  0.00    +0.251 C 
ATOM      2  O   UNL     1      51.112  21.230  18.265  0.00  0.00    -0.297 OA
ENDBRANCH   3   2
BRANCH   7   8
ATOM      8  O   UNL     1      51.037  16.671  16.900  0.00  0.00    -0.317 OA
ATOM      9  C   UNL     1      52.109  16.037  17.601  0.00  0.00    +0.247 C 
ENDBRANCH   7   8
BRANCH  10  11
ATOM     11  O   UNL     1      49.068  15.271  17.419  0.00  0.00    -0.478 OA
ATOM     12  H   UNL     1      48.559  14.452  17.484  0.00  0.00    +0.400 HD
ENDBRANCH  10  11
BRANCH  29  30
ATOM     30  O   UNL     1      52.307  19.093  17.021  0.00  0.00    -0.318 OA
ATOM     31  C   UNL     1      52.362  19.620  15.695  0.00  0.00    +0.236 C 
ENDBRANCH  29  30
TORSDOF 5
ENDMDL
MODEL 4
REMARK VINA RESULT:      -5.6      1.236      1.410
REMARK  Name = ZINC95486302
REMARK  8 active torsions:
REMARK  status: ('A' for Active; 'I' for Inactive)
REMARK    1  A    between atoms: C1_1  and  O1_2
REMARK    2  A    between atoms: O1_2  and  C2_3
REMARK    3  A    between atoms: C6_7  and  O6_24
REMARK    4  A    between atoms: C9_10  and  C10_11
REMARK    5  A    between atoms: C19_25  and  O8_29
REMARK    6  A    between atoms: C20_26  and  O7_27
REMARK    7  A    between atoms: O7_27  and  C21_28
REMARK    8  A    between atoms: O8_29  and  C22_30
REMARK                            x       y       z     vdW  Elec       q    Type
REMARK                         _______ _______ _______ _____ _____    ______ ____
ROOT
ATOM      3  C   UNL     1      47.431  14.894  17.751  0.00  0.00    +0.142 A 
ATOM      4  C   UNL     1      47.521  16.178  18.238  0.00  0.00    -0.047 A 
ATOM      5  C   UNL     1      48.698  16.916  18.048  0.00  0.00    +0.011 A 
ATOM      6  C   UNL     1      49.787  16.333  17.354  0.00  0.00    -0.089 A 
ATOM      7  C   UNL     1      49.673  15.019  16.865  0.00  0.00    +0.135 A 
ATOM     10  C   UNL     1      50.973  17.075  17.161  0.00  0.00    +0.179 A 
ATOM     13  C   UNL     1      51.070  18.343  17.639  0.00  0.00    -0.157 A 
ATOM     14  C   UNL     1      50.002  18.945  18.331  0.00  0.00    -0.156 A 
ATOM     15  C   UNL     1      50.427  20.302  18.708  0.00  0.00    +0.522 C 
ATOM     16  O   UNL     1      51.678  20.531  18.278  0.00  0.00    -0.312 OA
ATOM     17  O   UNL     1      49.743  21.100  19.320  0.00  0.00    -0.433 OA
ATOM     18  C   UNL     1      52.172  19.375  17.598  0.00  0.00    +0.336 C 
ATOM     19  C   UNL     1      48.813  18.237  18.540  0.00  0.00    +0.051 A 
ATOM     29  C   UNL     1      48.506  14.311  17.070  0.00  0.00    +0.074 A 
ENDROOT
BRANCH  19  20
ATOM     20  C   UNL     1      47.689  18.864  19.265  0.00  0.00    -0.054 A 
ATOM     21  C   UNL     1      47.593  18.739  20.652  0.00  0.00    +0.052 A 
ATOM     22  C   UNL     1      46.544  19.326  21.326  0.00  0.00    +0.041 A 
ATOM     23  C   UNL     1      45.580  20.043  20.630  0.00  0.00    +0.045 A 
ATOM     24  C   UNL     1      45.670  20.172  19.245  0.00  0.00    +0.038 A 
ATOM     25  O   UNL     1      44.612  20.915  18.807  0.00  0.00    -0.306 OA
ATOM     26  C   UNL     1      43.656  20.894  19.883  0.00  0.00    +0.436 C 
ATOM     27  O   UNL     1      44.466  20.706  21.058  0.00  0.00    -0.307 OA
ATOM     28  C   UNL     1      46.723  19.590  18.564  0.00  0.00    +0.075 A 
ENDBRANCH  19  20
BRANCH   3   2
ATOM      1  C   UNL     1      45.660  14.286  19.218  0.00  0.00    +0.251 C 
ATOM      2  O   UNL     1      46.287  14.182  17.938  0.00  0.00    -0.297 OA
ENDBRANCH   3   2
BRANCH   7   8
ATOM      8  O   UNL     1      50.710  14.446  16.198  0.00  0.00    -0.317 OA
ATOM      9  C   UNL     1      51.394  13.377  16.856  0.00  0.00    +0.247 C 
ENDBRANCH   7   8
BRANCH  10  11
ATOM     11  O   UNL     1      52.020  16.519  16.496  0.00  0.00    -0.478 OA
ATOM     12  H   UNL     1      51.765  15.826  15.871  0.00  0.00    +0.400 HD
ENDBRANCH  10  11
BRANCH  29  30
ATOM     30  O   UNL     1      48.397  13.038  16.602  0.00  0.00    -0.318 OA
ATOM     31  C   UNL     1      47.896  12.877  15.273  0.00  0.00    +0.236 C 
ENDBRANCH  29  30
TORSDOF 5
ENDMDL
MODEL 5
REMARK VINA RESULT:      -5.4      2.720      7.421
REMARK  Name = ZINC95486302
REMARK  8 active torsions:
REMARK  status: ('A' for Active; 'I' for Inactive)
REMARK    1  A    between atoms: C1_1  and  O1_2
REMARK    2  A    between atoms: O1_2  and  C2_3
REMARK    3  A    between atoms: C6_7  and  O6_24
REMARK    4  A    between atoms: C9_10  and  C10_11
REMARK    5  A    between atoms: C19_25  and  O8_29
REMARK    6  A    between atoms: C20_26  and  O7_27
REMARK    7  A    between atoms: O7_27  and  C21_28
REMARK    8  A    between atoms: O8_29  and  C22_30
REMARK                            x       y       z     vdW  Elec       q    Type
REMARK                         _______ _______ _______ _____ _____    ______ ____
ROOT
ATOM      3  C   UNL     1      44.992  21.593  19.757  0.00  0.00    +0.142 A 
ATOM      4  C   UNL     1      46.224  20.979  19.770  0.00  0.00    -0.047 A 
ATOM      5  C   UNL     1      46.309  19.585  19.895  0.00  0.00    +0.011 A 
ATOM      6  C   UNL     1      45.123  18.818  20.007  0.00  0.00    -0.089 A 
ATOM      7  C   UNL     1      43.875  19.466  19.992  0.00  0.00    +0.135 A 
ATOM     10  C   UNL     1      45.206  17.414  20.131  0.00  0.00    +0.179 A 
ATOM     13  C   UNL     1      46.419  16.800  20.145  0.00  0.00    -0.157 A 
ATOM     14  C   UNL     1      47.612  17.540  20.035  0.00  0.00    -0.156 A 
ATOM     15  C   UNL     1      48.731  16.587  20.082  0.00  0.00    +0.522 C 
ATOM     16  O   UNL     1      48.266  15.334  20.213  0.00  0.00    -0.312 OA
ATOM     17  O   UNL     1      49.906  16.891  20.013  0.00  0.00    -0.433 OA
ATOM     18  C   UNL     1      46.837  15.354  20.262  0.00  0.00    +0.336 C 
ATOM     19  C   UNL     1      47.564  18.933  19.910  0.00  0.00    +0.051 A 
ATOM     29  C   UNL     1      43.818  20.840  19.873  0.00  0.00    +0.074 A 
ENDROOT
BRANCH  19  20
ATOM     20  C   UNL     1      48.812  19.714  19.793  0.00  0.00    -0.054 A 
ATOM     21  C   UNL     1      49.343  20.003  18.535  0.00  0.00    +0.052 A 
ATOM     22  C   UNL     1      50.507  20.733  18.428  0.00  0.00    +0.041 A 
ATOM     23  C   UNL     1      51.156  21.184  19.570  0.00  0.00    +0.045 A 
ATOM     24  C   UNL     1      50.632  20.899  20.830  0.00  0.00    +0.038 A 
ATOM     25  O   UNL     1      51.449  21.449  21.776  0.00  0.00    -0.306 OA
ATOM     26  C   UNL     1      52.691  21.719  21.101  0.00  0.00    +0.436 C 
ATOM     27  O   UNL     1      52.300  21.911  19.728  0.00  0.00    -0.307 OA
ATOM     28  C   UNL     1      49.462  20.172  20.943  0.00  0.00    +0.075 A 
ENDBRANCH  19  20
BRANCH   3   2
ATOM      1  C   UNL     1      45.311  23.722  20.768  0.00  0.00    +0.251 C 
ATOM      2  O   UNL     1      44.915  22.945  19.636  0.00  0.00    -0.297 OA
ENDBRANCH   3   2
BRANCH   7   8
ATOM      8  O   UNL     1      42.728  18.743  20.099  0.00  0.00    -0.317 OA
ATOM      9  C   UNL     1      42.049  18.785  21.355  0.00  0.00    +0.247 C 
ENDBRANCH   7   8
BRANCH  10  11
ATOM     11  O   UNL     1      44.071  16.674  20.240  0.00  0.00    -0.478 OA
ATOM     12  H   UNL     1      43.265  17.202  20.319  0.00  0.00    +0.400 HD
ENDBRANCH  10  11
BRANCH  29  30
ATOM     30  O   UNL     1      42.611  21.468  19.864  0.00  0.00    -0.318 OA
ATOM     31  C   UNL     1      41.871  21.432  18.642  0.00  0.00    +0.236 C 
ENDBRANCH  29  30
TORSDOF 5
ENDMDL
MODEL 6
REMARK VINA RESULT:      -5.3      2.426      7.106
REMARK  Name = ZINC95486302
REMARK  8 active torsions:
REMARK  status: ('A' for Active; 'I' for Inactive)
REMARK    1  A    between atoms: C1_1  and  O1_2
REMARK    2  A    between atoms: O1_2  and  C2_3
REMARK    3  A    between atoms: C6_7  and  O6_24
REMARK    4  A    between atoms: C9_10  and  C10_11
REMARK    5  A    between atoms: C19_25  and  O8_29
REMARK    6  A    between atoms: C20_26  and  O7_27
REMARK    7  A    between atoms: O7_27  and  C21_28
REMARK    8  A    between atoms: O8_29  and  C22_30
REMARK                            x       y       z     vdW  Elec       q    Type
REMARK                         _______ _______ _______ _____ _____    ______ ____
ROOT
ATOM      3  C   UNL     1      45.513  20.361  19.258  0.00  0.00    +0.142 A 
ATOM      4  C   UNL     1      46.703  19.676  19.175  0.00  0.00    -0.047 A 
ATOM      5  C   UNL     1      46.776  18.346  19.613  0.00  0.00    +0.011 A 
ATOM      6  C   UNL     1      45.620  17.717  20.140  0.00  0.00    -0.089 A 
ATOM      7  C   UNL     1      44.414  18.436  20.216  0.00  0.00    +0.135 A 
ATOM     10  C   UNL     1      45.692  16.377  20.581  0.00  0.00    +0.179 A 
ATOM     13  C   UNL     1      46.863  15.693  20.502  0.00  0.00    -0.157 A 
ATOM     14  C   UNL     1      48.025  16.296  19.983  0.00  0.00    -0.156 A 
ATOM     15  C   UNL     1      49.104  15.298  20.036  0.00  0.00    +0.522 C 
ATOM     16  O   UNL     1      48.644  14.147  20.556  0.00  0.00    -0.312 OA
ATOM     17  O   UNL     1      50.246  15.487  19.664  0.00  0.00    -0.433 OA
ATOM     18  C   UNL     1      47.259  14.286  20.880  0.00  0.00    +0.336 C 
ATOM     19  C   UNL     1      47.989  17.622  19.537  0.00  0.00    +0.051 A 
ATOM     29  C   UNL     1      44.370  19.746  19.783  0.00  0.00    +0.074 A 
ENDROOT
BRANCH  19  20
ATOM     20  C   UNL     1      49.205  18.258  18.990  0.00  0.00    -0.054 A 
ATOM     21  C   UNL     1      49.999  19.067  19.804  0.00  0.00    +0.052 A 
ATOM     22  C   UNL     1      51.134  19.659  19.292  0.00  0.00    +0.041 A 
ATOM     23  C   UNL     1      51.491  19.454  17.966  0.00  0.00    +0.045 A 
ATOM     24  C   UNL     1      50.702  18.647  17.147  0.00  0.00    +0.038 A 
ATOM     25  O   UNL     1      51.263  18.607  15.903  0.00  0.00    -0.306 OA
ATOM     26  C   UNL     1      52.174  19.721  15.857  0.00  0.00    +0.436 C 
ATOM     27  O   UNL     1      52.545  19.918  17.235  0.00  0.00    -0.307 OA
ATOM     28  C   UNL     1      49.566  18.047  17.657  0.00  0.00    +0.075 A 
ENDBRANCH  19  20
BRANCH   3   2
ATOM      1  C   UNL     1      45.438  22.667  19.836  0.00  0.00    +0.251 C 
ATOM      2  O   UNL     1      45.447  21.650  18.832  0.00  0.00    -0.297 OA
ENDBRANCH   3   2
BRANCH   7   8
ATOM      8  O   UNL     1      43.298  17.847  20.720  0.00  0.00    -0.317 OA
ATOM      9  C   UNL     1      42.844  18.299  21.997  0.00  0.00    +0.247 C 
ENDBRANCH   7   8
BRANCH  10  11
ATOM     11  O   UNL     1      44.586  15.771  21.088  0.00  0.00    -0.478 OA
ATOM     12  H   UNL     1      44.548  14.819  20.920  0.00  0.00    +0.400 HD
ENDBRANCH  10  11
BRANCH  29  30
ATOM     30  O   UNL     1      43.205  20.444  19.861  0.00  0.00    -0.318 OA
ATOM     31  C   UNL     1      42.327  20.368  18.737  0.00  0.00    +0.236 C 
ENDBRANCH  29  30
TORSDOF 5
ENDMDL
MODEL 7
REMARK VINA RESULT:      -5.3      3.135      5.877
REMARK  Name = ZINC95486302
REMARK  8 active torsions:
REMARK  status: ('A' for Active; 'I' for Inactive)
REMARK    1  A    between atoms: C1_1  and  O1_2
REMARK    2  A    between atoms: O1_2  and  C2_3
REMARK    3  A    between atoms: C6_7  and  O6_24
REMARK    4  A    between atoms: C9_10  and  C10_11
REMARK    5  A    between atoms: C19_25  and  O8_29
REMARK    6  A    between atoms: C20_26  and  O7_27
REMARK    7  A    between atoms: O7_27  and  C21_28
REMARK    8  A    between atoms: O8_29  and  C22_30
REMARK                            x       y       z     vdW  Elec       q    Type
REMARK                         _______ _______ _______ _____ _____    ______ ____
ROOT
ATOM      3  C   UNL     1      47.693  14.944  16.964  0.00  0.00    +0.142 A 
ATOM      4  C   UNL     1      48.830  15.625  17.332  0.00  0.00    -0.047 A 
ATOM      5  C   UNL     1      49.941  14.920  17.817  0.00  0.00    +0.011 A 
ATOM      6  C   UNL     1      49.883  13.508  17.922  0.00  0.00    -0.089 A 
ATOM      7  C   UNL     1      48.710  12.832  17.541  0.00  0.00    +0.135 A 
ATOM     10  C   UNL     1      51.002  12.796  18.409  0.00  0.00    +0.179 A 
ATOM     13  C   UNL     1      52.129  13.461  18.775  0.00  0.00    -0.157 A 
ATOM     14  C   UNL     1      52.211  14.864  18.679  0.00  0.00    -0.156 A 
ATOM     15  C   UNL     1      53.547  15.262  19.147  0.00  0.00    +0.522 C 
ATOM     16  O   UNL     1      54.252  14.179  19.512  0.00  0.00    -0.312 OA
ATOM     17  O   UNL     1      53.953  16.407  19.197  0.00  0.00    -0.433 OA
ATOM     18  C   UNL     1      53.461  13.004  19.319  0.00  0.00    +0.336 C 
ATOM     19  C   UNL     1      51.121  15.599  18.201  0.00  0.00    +0.051 A 
ATOM     29  C   UNL     1      47.629  13.549  17.072  0.00  0.00    +0.074 A 
ENDROOT
BRANCH  19  20
ATOM     20  C   UNL     1      51.202  17.071  18.096  0.00  0.00    -0.054 A 
ATOM     21  C   UNL     1      50.797  17.872  19.165  0.00  0.00    +0.052 A 
ATOM     22  C   UNL     1      50.875  19.245  19.066  0.00  0.00    +0.041 A 
ATOM     23  C   UNL     1      51.356  19.836  17.905  0.00  0.00    +0.045 A 
ATOM     24  C   UNL     1      51.762  19.041  16.834  0.00  0.00    +0.038 A 
ATOM     25  O   UNL     1      52.189  19.855  15.824  0.00  0.00    -0.306 OA
ATOM     26  C   UNL     1      51.658  21.157  16.132  0.00  0.00    +0.436 C 
ATOM     27  O   UNL     1      51.528  21.146  17.566  0.00  0.00    -0.307 OA
ATOM     28  C   UNL     1      51.691  17.663  16.929  0.00  0.00    +0.075 A 
ENDBRANCH  19  20
BRANCH   3   2
ATOM      1  C   UNL     1      46.213  16.786  17.235  0.00  0.00    +0.251 C 
ATOM      2  O   UNL     1      46.618  15.632  16.495  0.00  0.00    -0.297 OA
ENDBRANCH   3   2
BRANCH   7   8
ATOM      8  O   UNL     1      48.640  11.478  17.637  0.00  0.00    -0.317 OA
ATOM      9  C   UNL     1      48.644  10.738  16.415  0.00  0.00    +0.247 C 
ENDBRANCH   7   8
BRANCH  10  11
ATOM     11  O   UNL     1      50.950  11.442  18.513  0.00  0.00    -0.478 OA
ATOM     12  H   UNL     1      50.818  10.988  17.670  0.00  0.00    +0.400 HD
ENDBRANCH  10  11
BRANCH  29  30
ATOM     30  O   UNL     1      46.492  12.897  16.707  0.00  0.00    -0.318 OA
ATOM     31  C   UNL     1      45.507  12.694  17.722  0.00  0.00    +0.236 C 
ENDBRANCH  29  30
TORSDOF 5
ENDMDL
MODEL 8
REMARK VINA RESULT:      -5.2      2.253      5.612
REMARK  Name = ZINC95486302
REMARK  8 active torsions:
REMARK  status: ('A' for Active; 'I' for Inactive)
REMARK    1  A    between atoms: C1_1  and  O1_2
REMARK    2  A    between atoms: O1_2  and  C2_3
REMARK    3  A    between atoms: C6_7  and  O6_24
REMARK    4  A    between atoms: C9_10  and  C10_11
REMARK    5  A    between atoms: C19_25  and  O8_29
REMARK    6  A    between atoms: C20_26  and  O7_27
REMARK    7  A    between atoms: O7_27  and  C21_28
REMARK    8  A    between atoms: O8_29  and  C22_30
REMARK                            x       y       z     vdW  Elec       q    Type
REMARK                         _______ _______ _______ _____ _____    ______ ____
ROOT
ATOM      3  C   UNL     1      49.653  13.043  16.766  0.00  0.00    +0.142 A 
ATOM      4  C   UNL     1      49.620  14.334  17.242  0.00  0.00    -0.047 A 
ATOM      5  C   UNL     1      48.462  14.819  17.865  0.00  0.00    +0.011 A 
ATOM      6  C   UNL     1      47.332  13.975  18.001  0.00  0.00    -0.089 A 
ATOM      7  C   UNL     1      47.388  12.659  17.507  0.00  0.00    +0.135 A 
ATOM     10  C   UNL     1      46.165  14.462  18.630  0.00  0.00    +0.179 A 
ATOM     13  C   UNL     1      46.125  15.736  19.103  0.00  0.00    -0.157 A 
ATOM     14  C   UNL     1      47.234  16.594  18.981  0.00  0.00    -0.156 A 
ATOM     15  C   UNL     1      46.867  17.883  19.586  0.00  0.00    +0.522 C 
ATOM     16  O   UNL     1      45.609  17.831  20.056  0.00  0.00    -0.312 OA
ATOM     17  O   UNL     1      47.596  18.854  19.652  0.00  0.00    -0.433 OA
ATOM     18  C   UNL     1      45.056  16.537  19.806  0.00  0.00    +0.336 C 
ATOM     19  C   UNL     1      48.406  16.143  18.363  0.00  0.00    +0.051 A 
ATOM     29  C   UNL     1      48.537  12.207  16.892  0.00  0.00    +0.074 A 
ENDROOT
BRANCH  19  20
ATOM     20  C   UNL     1      49.573  17.039  18.233  0.00  0.00    -0.054 A 
ATOM     21  C   UNL     1      50.485  17.159  19.283  0.00  0.00    +0.052 A 
ATOM     22  C   UNL     1      51.574  17.995  19.160  0.00  0.00    +0.041 A 
ATOM     23  C   UNL     1      51.769  18.720  17.991  0.00  0.00    +0.045 A 
ATOM     24  C   UNL     1      50.863  18.604  16.938  0.00  0.00    +0.038 A 
ATOM     25  O   UNL     1      51.276  19.411  15.917  0.00  0.00    -0.306 OA
ATOM     26  C   UNL     1      52.215  20.328  16.508  0.00  0.00    +0.436 C 
ATOM     27  O   UNL     1      52.749  19.597  17.629  0.00  0.00    -0.307 OA
ATOM     28  C   UNL     1      49.772  17.764  17.055  0.00  0.00    +0.075 A 
ENDBRANCH  19  20
BRANCH   3   2
ATOM      1  C   UNL     1      51.297  13.345  15.074  0.00  0.00    +0.251 C 
ATOM      2  O   UNL     1      50.778  12.577  16.162  0.00  0.00    -0.297 OA
ENDBRANCH   3   2
BRANCH   7   8
ATOM      8  O   UNL     1      46.311  11.838  17.629  0.00  0.00    -0.317 OA
ATOM      9  C   UNL     1      45.504  11.648  16.466  0.00  0.00    +0.247 C 
ENDBRANCH   7   8
BRANCH  10  11
ATOM     11  O   UNL     1      45.079  13.656  18.761  0.00  0.00    -0.478 OA
ATOM     12  H   UNL     1      45.296  12.735  18.965  0.00  0.00    +0.400 HD
ENDBRANCH  10  11
BRANCH  29  30
ATOM     30  O   UNL     1      48.590  10.936  16.409  0.00  0.00    -0.318 OA
ATOM     31  C   UNL     1      48.499  10.777  14.993  0.00  0.00    +0.236 C 
ENDBRANCH  29  30
TORSDOF 5
ENDMDL
MODEL 9
REMARK VINA RESULT:      -5.1      2.090      6.645
REMARK  Name = ZINC95486302
REMARK  8 active torsions:
REMARK  status: ('A' for Active; 'I' for Inactive)
REMARK    1  A    between atoms: C1_1  and  O1_2
REMARK    2  A    between atoms: O1_2  and  C2_3
REMARK    3  A    between atoms: C6_7  and  O6_24
REMARK    4  A    between atoms: C9_10  and  C10_11
REMARK    5  A    between atoms: C19_25  and  O8_29
REMARK    6  A    between atoms: C20_26  and  O7_27
REMARK    7  A    between atoms: O7_27  and  C21_28
REMARK    8  A    between atoms: O8_29  and  C22_30
REMARK                            x       y       z     vdW  Elec       q    Type
REMARK                         _______ _______ _______ _____ _____    ______ ____
ROOT
ATOM      3  C   UNL     1      43.633  20.244  18.947  0.00  0.00    +0.142 A 
ATOM      4  C   UNL     1      44.666  19.342  18.827  0.00  0.00    -0.047 A 
ATOM      5  C   UNL     1      45.925  19.647  19.364  0.00  0.00    +0.011 A 
ATOM      6  C   UNL     1      46.124  20.884  20.027  0.00  0.00    -0.089 A 
ATOM      7  C   UNL     1      45.054  21.790  20.138  0.00  0.00    +0.135 A 
ATOM     10  C   UNL     1      47.391  21.192  20.569  0.00  0.00    +0.179 A 
ATOM     13  C   UNL     1      48.416  20.308  20.455  0.00  0.00    -0.157 A 
ATOM     14  C   UNL     1      48.244  19.072  19.801  0.00  0.00    -0.156 A 
ATOM     15  C   UNL     1      49.530  18.361  19.852  0.00  0.00    +0.522 C 
ATOM     16  O   UNL     1      50.445  19.104  20.497  0.00  0.00    -0.312 OA
ATOM     17  O   UNL     1      49.735  17.259  19.380  0.00  0.00    -0.433 OA
ATOM     18  C   UNL     1      49.855  20.337  20.914  0.00  0.00    +0.336 C 
ATOM     19  C   UNL     1      47.001  18.736  19.253  0.00  0.00    +0.051 A 
ATOM     29  C   UNL     1      43.826  21.469  19.596  0.00  0.00    +0.074 A 
ENDROOT
BRANCH  19  20
ATOM     20  C   UNL     1      46.815  17.441  18.567  0.00  0.00    -0.054 A 
ATOM     21  C   UNL     1      46.980  17.350  17.184  0.00  0.00    +0.052 A 
ATOM     22  C   UNL     1      46.807  16.141  16.546  0.00  0.00    +0.041 A 
ATOM     23  C   UNL     1      46.468  15.009  17.275  0.00  0.00    +0.045 A 
ATOM     24  C   UNL     1      46.301  15.092  18.657  0.00  0.00    +0.038 A 
ATOM     25  O   UNL     1      45.973  13.855  19.132  0.00  0.00    -0.306 OA
ATOM     26  C   UNL     1      45.541  13.105  17.982  0.00  0.00    +0.436 C 
ATOM     27  O   UNL     1      46.245  13.720  16.886  0.00  0.00    -0.307 OA
ATOM     28  C   UNL     1      46.479  16.301  19.303  0.00  0.00    +0.075 A 
ENDBRANCH  19  20
BRANCH   3   2
ATOM      1  C   UNL     1      41.436  19.412  19.322  0.00  0.00    +0.251 C 
ATOM      2  O   UNL     1      42.414  19.943  18.425  0.00  0.00    -0.297 OA
ENDBRANCH   3   2
BRANCH   7   8
ATOM      8  O   UNL     1      45.230  22.981  20.770  0.00  0.00    -0.317 OA
ATOM      9  C   UNL     1      44.622  23.129  22.055  0.00  0.00    +0.247 C 
ENDBRANCH   7   8
BRANCH  10  11
ATOM     11  O   UNL     1      47.586  22.377  21.205  0.00  0.00    -0.478 OA
ATOM     12  H   UNL     1      48.348  22.383  21.800  0.00  0.00    +0.400 HD
ENDBRANCH  10  11
BRANCH  29  30
ATOM     30  O   UNL     1      42.792  22.347  19.698  0.00  0.00    -0.318 OA
ATOM     31  C   UNL     1      42.795  23.458  18.800  0.00  0.00    +0.236 C 
ENDBRANCH  29  30
TORSDOF 5
ENDMDL
