MODEL 1
REMARK VINA RESULT:      -6.9      0.000      0.000
REMARK  Name = ZINC03941105
REMARK  9 active torsions:
REMARK  status: ('A' for Active; 'I' for Inactive)
REMARK    1  A    between atoms: C1_1  and  C2_2
REMARK    2  A    between atoms: C5_6  and  C30_37
REMARK    3  A    between atoms: C8_9  and  C29_36
REMARK    4  A    between atoms: C13_15  and  C25_30
REMARK    5  A    between atoms: C17_20  and  C24_29
REMARK    6  A    between atoms: C20_23  and  O1_28
REMARK    7  A    between atoms: C21_25  and  C22_26
REMARK    8  A    between atoms: C21_25  and  C23_27
REMARK    9  A    between atoms: C27_33  and  C28_35
REMARK                            x       y       z     vdW  Elec       q    Type
REMARK                         _______ _______ _______ _____ _____    ______ ____
ROOT
ATOM      1  C   UNL     1      52.138  19.917  16.476  0.00  0.00    +0.005 C 
ATOM      2  C   UNL     1      52.198  19.983  18.000  0.00  0.00    -0.030 C 
ATOM      3  C   UNL     1      52.706  18.666  18.573  0.00  0.00    +0.012 C 
ATOM      4  C   UNL     1      51.713  17.531  18.361  0.00  0.00    +0.007 C 
ATOM      5  C   UNL     1      50.346  17.874  18.960  0.00  0.00    -0.088 C 
ATOM      9  C   UNL     1      49.351  16.778  18.537  0.00  0.00    -0.006 C 
ATOM     10  C   UNL     1      47.995  17.033  19.190  0.00  0.00    +0.032 C 
ATOM     11  C   UNL     1      47.423  18.387  18.799  0.00  0.00    +0.015 C 
ATOM     12  C   UNL     1      46.996  18.279  17.326  0.00  0.00    -0.003 C 
ATOM     13  C   UNL     1      48.442  19.497  18.850  0.00  0.00    -0.022 C 
ATOM     14  C   UNL     1      48.112  20.716  19.169  0.00  0.00    -0.111 C 
ATOM     15  C   UNL     1      46.764  21.140  19.687  0.00  0.00    +0.052 C 
ATOM     16  C   UNL     1      45.707  20.121  19.271  0.00  0.00    -0.001 C 
ATOM     17  C   UNL     1      44.326  20.501  19.808  0.00  0.00    -0.034 C 
ATOM     18  C   UNL     1      44.365  20.770  21.308  0.00  0.00    +0.026 C 
ATOM     19  C   UNL     1      43.891  21.799  19.105  0.00  0.00    +0.016 C 
ATOM     20  C   UNL     1      42.472  22.162  19.532  0.00  0.00    -0.020 C 
ATOM     21  C   UNL     1      41.495  21.075  19.102  0.00  0.00    +0.165 C 
ATOM     24  C   UNL     1      41.883  19.702  19.650  0.00  0.00    -0.037 C 
ATOM     25  C   UNL     1      41.457  19.583  21.112  0.00  0.00    +0.033 C 
ATOM     26  C   UNL     1      41.054  18.665  18.850  0.00  0.00    +0.014 C 
ATOM     27  C   UNL     1      43.346  19.396  19.436  0.00  0.00    -0.002 C 
ATOM     28  C   UNL     1      43.787  18.087  20.093  0.00  0.00    +0.013 C 
ATOM     29  C   UNL     1      45.106  17.665  19.427  0.00  0.00    +0.007 C 
ATOM     30  C   UNL     1      46.184  18.724  19.635  0.00  0.00    -0.024 C 
ATOM     31  C   UNL     1      46.619  18.681  21.110  0.00  0.00    +0.039 C 
ATOM     32  C   UNL     1      49.853  19.198  18.400  0.00  0.00    +0.036 C 
ATOM     33  C   UNL     1      50.824  20.343  18.576  0.00  0.00    -0.014 C 
ATOM     34  C   UNL     1      51.003  20.819  20.014  0.00  0.00    +0.022 C 
ENDROOT
BRANCH   5   6
ATOM      6  C   UNL     1      50.440  17.851  20.458  0.00  0.00    +0.482 C 
ATOM      7  O   UNL     1      51.087  16.849  21.076  0.00  0.00    -0.738 OA
ATOM      8  O   UNL     1      49.933  18.734  21.109  0.00  0.00    -0.650 OA
ENDBRANCH   5   6
BRANCH  21  22
ATOM     22  O   UNL     1      40.182  21.411  19.569  0.00  0.00    -0.566 OA
ATOM     23  H   UNL     1      39.847  22.252  19.230  0.00  0.00    +0.371 HD
ENDBRANCH  21  22
TORSDOF 2
ENDMDL
MODEL 2
REMARK VINA RESULT:      -6.7      3.669      8.028
REMARK  Name = ZINC03941105
REMARK  9 active torsions:
REMARK  status: ('A' for Active; 'I' for Inactive)
REMARK    1  A    between atoms: C1_1  and  C2_2
REMARK    2  A    between atoms: C5_6  and  C30_37
REMARK    3  A    between atoms: C8_9  and  C29_36
REMARK    4  A    between atoms: C13_15  and  C25_30
REMARK    5  A    between atoms: C17_20  and  C24_29
REMARK    6  A    between atoms: C20_23  and  O1_28
REMARK    7  A    between atoms: C21_25  and  C22_26
REMARK    8  A    between atoms: C21_25  and  C23_27
REMARK    9  A    between atoms: C27_33  and  C28_35
REMARK                            x       y       z     vdW  Elec       q    Type
REMARK                         _______ _______ _______ _____ _____    ______ ____
ROOT
ATOM      1  C   UNL     1      42.692  19.471  19.874  0.00  0.00    +0.005 C 
ATOM      2  C   UNL     1      43.387  18.795  21.053  0.00  0.00    -0.030 C 
ATOM      3  C   UNL     1      44.370  19.752  21.715  0.00  0.00    +0.012 C 
ATOM      4  C   UNL     1      45.553  20.070  20.812  0.00  0.00    +0.007 C 
ATOM      5  C   UNL     1      46.276  18.792  20.376  0.00  0.00    -0.088 C 
ATOM      9  C   UNL     1      47.325  19.174  19.317  0.00  0.00    -0.006 C 
ATOM     10  C   UNL     1      48.132  17.940  18.921  0.00  0.00    +0.032 C 
ATOM     11  C   UNL     1      47.247  16.841  18.355  0.00  0.00    +0.015 C 
ATOM     12  C   UNL     1      46.785  17.315  16.967  0.00  0.00    -0.003 C 
ATOM     13  C   UNL     1      45.986  16.625  19.154  0.00  0.00    -0.022 C 
ATOM     14  C   UNL     1      45.440  15.448  19.266  0.00  0.00    -0.111 C 
ATOM     15  C   UNL     1      46.053  14.160  18.789  0.00  0.00    +0.052 C 
ATOM     16  C   UNL     1      47.082  14.450  17.699  0.00  0.00    -0.001 C 
ATOM     17  C   UNL     1      47.753  13.165  17.212  0.00  0.00    -0.034 C 
ATOM     18  C   UNL     1      48.301  12.346  18.374  0.00  0.00    +0.026 C 
ATOM     19  C   UNL     1      46.682  12.319  16.499  0.00  0.00    +0.016 C 
ATOM     20  C   UNL     1      47.328  11.072  15.903  0.00  0.00    -0.020 C 
ATOM     21  C   UNL     1      48.360  11.461  14.851  0.00  0.00    +0.165 C 
ATOM     24  C   UNL     1      49.428  12.401  15.411  0.00  0.00    -0.037 C 
ATOM     25  C   UNL     1      50.460  11.603  16.207  0.00  0.00    +0.033 C 
ATOM     26  C   UNL     1      50.164  13.000  14.186  0.00  0.00    +0.014 C 
ATOM     27  C   UNL     1      48.828  13.540  16.200  0.00  0.00    -0.002 C 
ATOM     28  C   UNL     1      49.879  14.417  16.881  0.00  0.00    +0.013 C 
ATOM     29  C   UNL     1      49.203  15.752  17.229  0.00  0.00    +0.007 C 
ATOM     30  C   UNL     1      48.031  15.537  18.180  0.00  0.00    -0.024 C 
ATOM     31  C   UNL     1      48.597  15.171  19.563  0.00  0.00    +0.039 C 
ATOM     32  C   UNL     1      45.287  17.833  19.734  0.00  0.00    +0.036 C 
ATOM     33  C   UNL     1      44.089  17.510  20.596  0.00  0.00    -0.014 C 
ATOM     34  C   UNL     1      44.391  16.653  21.822  0.00  0.00    +0.022 C 
ENDROOT
BRANCH   5   6
ATOM      6  C   UNL     1      47.005  18.208  21.551  0.00  0.00    +0.482 C 
ATOM      7  O   UNL     1      47.767  18.995  22.328  0.00  0.00    -0.738 OA
ATOM      8  O   UNL     1      46.906  17.029  21.798  0.00  0.00    -0.650 OA
ENDBRANCH   5   6
BRANCH  21  22
ATOM     22  O   UNL     1      48.993  10.277  14.353  0.00  0.00    -0.566 OA
ATOM     23  H   UNL     1      48.816  10.098  13.419  0.00  0.00    +0.371 HD
ENDBRANCH  21  22
TORSDOF 2
ENDMDL
MODEL 3
REMARK VINA RESULT:      -6.2      3.265      7.358
REMARK  Name = ZINC03941105
REMARK  9 active torsions:
REMARK  status: ('A' for Active; 'I' for Inactive)
REMARK    1  A    between atoms: C1_1  and  C2_2
REMARK    2  A    between atoms: C5_6  and  C30_37
REMARK    3  A    between atoms: C8_9  and  C29_36
REMARK    4  A    between atoms: C13_15  and  C25_30
REMARK    5  A    between atoms: C17_20  and  C24_29
REMARK    6  A    between atoms: C20_23  and  O1_28
REMARK    7  A    between atoms: C21_25  and  C22_26
REMARK    8  A    between atoms: C21_25  and  C23_27
REMARK    9  A    between atoms: C27_33  and  C28_35
REMARK                            x       y       z     vdW  Elec       q    Type
REMARK                         _______ _______ _______ _____ _____    ______ ____
ROOT
ATOM      1  C   UNL     1      43.344  21.285  19.342  0.00  0.00    +0.005 C 
ATOM      2  C   UNL     1      43.854  20.694  20.653  0.00  0.00    -0.030 C 
ATOM      3  C   UNL     1      44.983  21.545  21.221  0.00  0.00    +0.012 C 
ATOM      4  C   UNL     1      46.235  21.481  20.357  0.00  0.00    +0.007 C 
ATOM      5  C   UNL     1      46.707  20.036  20.172  0.00  0.00    -0.088 C 
ATOM      9  C   UNL     1      47.845  20.035  19.136  0.00  0.00    -0.006 C 
ATOM     10  C   UNL     1      48.407  18.623  18.990  0.00  0.00    +0.032 C 
ATOM     11  C   UNL     1      47.343  17.632  18.546  0.00  0.00    +0.015 C 
ATOM     12  C   UNL     1      47.029  17.949  17.074  0.00  0.00    -0.003 C 
ATOM     13  C   UNL     1      46.039  17.791  19.286  0.00  0.00    -0.022 C 
ATOM     14  C   UNL     1      45.269  16.773  19.544  0.00  0.00    -0.111 C 
ATOM     15  C   UNL     1      45.634  15.332  19.313  0.00  0.00    +0.052 C 
ATOM     16  C   UNL     1      46.734  15.240  18.260  0.00  0.00    -0.001 C 
ATOM     17  C   UNL     1      47.156  13.789  18.022  0.00  0.00    -0.034 C 
ATOM     18  C   UNL     1      47.495  13.084  19.330  0.00  0.00    +0.026 C 
ATOM     19  C   UNL     1      45.965  13.054  17.382  0.00  0.00    +0.016 C 
ATOM     20  C   UNL     1      46.373  11.627  17.030  0.00  0.00    -0.020 C 
ATOM     21  C   UNL     1      47.495  11.636  15.998  0.00  0.00    +0.165 C 
ATOM     24  C   UNL     1      48.708  12.437  16.473  0.00  0.00    -0.037 C 
ATOM     25  C   UNL     1      49.536  11.602  17.447  0.00  0.00    +0.033 C 
ATOM     26  C   UNL     1      49.587  12.677  15.220  0.00  0.00    +0.014 C 
ATOM     27  C   UNL     1      48.316  13.783  17.035  0.00  0.00    -0.002 C 
ATOM     28  C   UNL     1      49.496  14.547  17.638  0.00  0.00    +0.013 C 
ATOM     29  C   UNL     1      49.084  16.024  17.730  0.00  0.00    +0.007 C 
ATOM     30  C   UNL     1      47.861  16.192  18.626  0.00  0.00    -0.024 C 
ATOM     31  C   UNL     1      48.299  15.960  20.082  0.00  0.00    +0.039 C 
ATOM     32  C   UNL     1      45.571  19.188  19.624  0.00  0.00    +0.036 C 
ATOM     33  C   UNL     1      44.306  19.243  20.448  0.00  0.00    -0.014 C 
ATOM     34  C   UNL     1      44.393  18.558  21.809  0.00  0.00    +0.022 C 
ENDROOT
BRANCH   5   6
ATOM      6  C   UNL     1      47.268  19.527  21.468  0.00  0.00    +0.482 C 
ATOM      7  O   UNL     1      46.945  18.298  21.904  0.00  0.00    -0.738 OA
ATOM      8  O   UNL     1      48.010  20.224  22.121  0.00  0.00    -0.650 OA
ENDBRANCH   5   6
BRANCH  21  22
ATOM     22  O   UNL     1      47.900  10.288  15.732  0.00  0.00    -0.566 OA
ATOM     23  H   UNL     1      47.704   9.669  16.448  0.00  0.00    +0.371 HD
ENDBRANCH  21  22
TORSDOF 2
ENDMDL
MODEL 4
REMARK VINA RESULT:      -6.2      2.681      3.965
REMARK  Name = ZINC03941105
REMARK  9 active torsions:
REMARK  status: ('A' for Active; 'I' for Inactive)
REMARK    1  A    between atoms: C1_1  and  C2_2
REMARK    2  A    between atoms: C5_6  and  C30_37
REMARK    3  A    between atoms: C8_9  and  C29_36
REMARK    4  A    between atoms: C13_15  and  C25_30
REMARK    5  A    between atoms: C17_20  and  C24_29
REMARK    6  A    between atoms: C20_23  and  O1_28
REMARK    7  A    between atoms: C21_25  and  C22_26
REMARK    8  A    between atoms: C21_25  and  C23_27
REMARK    9  A    between atoms: C27_33  and  C28_35
REMARK                            x       y       z     vdW  Elec       q    Type
REMARK                         _______ _______ _______ _____ _____    ______ ____
ROOT
ATOM      1  C   UNL     1      50.637  13.274  14.931  0.00  0.00    +0.005 C 
ATOM      2  C   UNL     1      51.376  13.679  16.204  0.00  0.00    -0.030 C 
ATOM      3  C   UNL     1      51.497  12.495  17.154  0.00  0.00    +0.012 C 
ATOM      4  C   UNL     1      50.145  12.073  17.714  0.00  0.00    +0.007 C 
ATOM      5  C   UNL     1      49.449  13.242  18.416  0.00  0.00    -0.088 C 
ATOM      9  C   UNL     1      48.020  12.800  18.777  0.00  0.00    -0.006 C 
ATOM     10  C   UNL     1      47.319  13.906  19.562  0.00  0.00    +0.032 C 
ATOM     11  C   UNL     1      47.243  15.201  18.769  0.00  0.00    +0.015 C 
ATOM     12  C   UNL     1      46.214  14.975  17.649  0.00  0.00    -0.003 C 
ATOM     13  C   UNL     1      48.535  15.549  18.074  0.00  0.00    -0.022 C 
ATOM     14  C   UNL     1      48.905  16.784  17.894  0.00  0.00    -0.111 C 
ATOM     15  C   UNL     1      48.223  17.987  18.486  0.00  0.00    +0.052 C 
ATOM     16  C   UNL     1      46.777  17.642  18.834  0.00  0.00    -0.001 C 
ATOM     17  C   UNL     1      46.058  18.833  19.470  0.00  0.00    -0.034 C 
ATOM     18  C   UNL     1      46.853  19.407  20.637  0.00  0.00    +0.026 C 
ATOM     19  C   UNL     1      45.932  19.930  18.398  0.00  0.00    +0.016 C 
ATOM     20  C   UNL     1      45.128  21.100  18.956  0.00  0.00    -0.020 C 
ATOM     21  C   UNL     1      43.713  20.653  19.303  0.00  0.00    +0.165 C 
ATOM     24  C   UNL     1      43.703  19.482  20.285  0.00  0.00    -0.037 C 
ATOM     25  C   UNL     1      43.950  19.989  21.705  0.00  0.00    +0.033 C 
ATOM     26  C   UNL     1      42.267  18.902  20.255  0.00  0.00    +0.014 C 
ATOM     27  C   UNL     1      44.660  18.387  19.876  0.00  0.00    -0.002 C 
ATOM     28  C   UNL     1      44.766  17.267  20.911  0.00  0.00    +0.013 C 
ATOM     29  C   UNL     1      45.363  16.043  20.198  0.00  0.00    +0.007 C 
ATOM     30  C   UNL     1      46.749  16.357  19.647  0.00  0.00    -0.024 C 
ATOM     31  C   UNL     1      47.724  16.459  20.833  0.00  0.00    +0.039 C 
ATOM     32  C   UNL     1      49.349  14.428  17.471  0.00  0.00    +0.036 C 
ATOM     33  C   UNL     1      50.671  14.861  16.880  0.00  0.00    -0.014 C 
ATOM     34  C   UNL     1      51.636  15.509  17.869  0.00  0.00    +0.022 C 
ENDROOT
BRANCH   5   6
ATOM      6  C   UNL     1      50.168  13.553  19.697  0.00  0.00    +0.482 C 
ATOM      7  O   UNL     1      50.548  12.555  20.513  0.00  0.00    -0.738 OA
ATOM      8  O   UNL     1      50.405  14.700  19.995  0.00  0.00    -0.650 OA
ENDBRANCH   5   6
BRANCH  21  22
ATOM     22  O   UNL     1      43.000  21.754  19.880  0.00  0.00    -0.566 OA
ATOM     23  H   UNL     1      43.518  22.271  20.512  0.00  0.00    +0.371 HD
ENDBRANCH  21  22
TORSDOF 2
ENDMDL
MODEL 5
REMARK VINA RESULT:      -6.0      2.984      7.354
REMARK  Name = ZINC03941105
REMARK  9 active torsions:
REMARK  status: ('A' for Active; 'I' for Inactive)
REMARK    1  A    between atoms: C1_1  and  C2_2
REMARK    2  A    between atoms: C5_6  and  C30_37
REMARK    3  A    between atoms: C8_9  and  C29_36
REMARK    4  A    between atoms: C13_15  and  C25_30
REMARK    5  A    between atoms: C17_20  and  C24_29
REMARK    6  A    between atoms: C20_23  and  O1_28
REMARK    7  A    between atoms: C21_25  and  C22_26
REMARK    8  A    between atoms: C21_25  and  C23_27
REMARK    9  A    between atoms: C27_33  and  C28_35
REMARK                            x       y       z     vdW  Elec       q    Type
REMARK                         _______ _______ _______ _____ _____    ______ ____
ROOT
ATOM      1  C   UNL     1      47.310  22.578  22.105  0.00  0.00    +0.005 C 
ATOM      2  C   UNL     1      46.269  22.400  21.004  0.00  0.00    -0.030 C 
ATOM      3  C   UNL     1      44.875  22.262  21.602  0.00  0.00    +0.012 C 
ATOM      4  C   UNL     1      44.714  20.963  22.380  0.00  0.00    +0.007 C 
ATOM      5  C   UNL     1      45.032  19.750  21.503  0.00  0.00    -0.088 C 
ATOM      9  C   UNL     1      45.042  18.500  22.401  0.00  0.00    -0.006 C 
ATOM     10  C   UNL     1      45.266  17.254  21.549  0.00  0.00    +0.032 C 
ATOM     11  C   UNL     1      46.580  17.316  20.787  0.00  0.00    +0.015 C 
ATOM     12  C   UNL     1      47.702  17.137  21.823  0.00  0.00    -0.003 C 
ATOM     13  C   UNL     1      46.828  18.656  20.142  0.00  0.00    -0.022 C 
ATOM     14  C   UNL     1      47.475  18.766  19.017  0.00  0.00    -0.111 C 
ATOM     15  C   UNL     1      47.891  17.614  18.143  0.00  0.00    +0.052 C 
ATOM     16  C   UNL     1      47.967  16.336  18.973  0.00  0.00    -0.001 C 
ATOM     17  C   UNL     1      48.357  15.134  18.110  0.00  0.00    -0.034 C 
ATOM     18  C   UNL     1      47.464  15.018  16.881  0.00  0.00    +0.026 C 
ATOM     19  C   UNL     1      49.802  15.353  17.628  0.00  0.00    +0.016 C 
ATOM     20  C   UNL     1      50.271  14.129  16.848  0.00  0.00    -0.020 C 
ATOM     21  C   UNL     1      50.285  12.899  17.748  0.00  0.00    +0.165 C 
ATOM     24  C   UNL     1      48.920  12.636  18.384  0.00  0.00    -0.037 C 
ATOM     25  C   UNL     1      47.996  11.955  17.376  0.00  0.00    +0.033 C 
ATOM     26  C   UNL     1      49.164  11.624  19.532  0.00  0.00    +0.014 C 
ATOM     27  C   UNL     1      48.319  13.886  18.982  0.00  0.00    -0.002 C 
ATOM     28  C   UNL     1      46.898  13.677  19.506  0.00  0.00    +0.013 C 
ATOM     29  C   UNL     1      46.596  14.829  20.478  0.00  0.00    +0.007 C 
ATOM     30  C   UNL     1      46.682  16.176  19.769  0.00  0.00    -0.024 C 
ATOM     31  C   UNL     1      45.463  16.304  18.837  0.00  0.00    +0.039 C 
ATOM     32  C   UNL     1      46.416  19.901  20.893  0.00  0.00    +0.036 C 
ATOM     33  C   UNL     1      46.617  21.189  20.129  0.00  0.00    -0.014 C 
ATOM     34  C   UNL     1      45.839  21.289  18.820  0.00  0.00    +0.022 C 
ENDROOT
BRANCH   5   6
ATOM      6  C   UNL     1      43.942  19.572  20.486  0.00  0.00    +0.482 C 
ATOM      7  O   UNL     1      42.655  19.609  20.868  0.00  0.00    -0.738 OA
ATOM      8  O   UNL     1      44.222  19.395  19.324  0.00  0.00    -0.650 OA
ENDBRANCH   5   6
BRANCH  21  22
ATOM     22  O   UNL     1      50.670  11.755  16.976  0.00  0.00    -0.566 OA
ATOM     23  H   UNL     1      50.541  10.912  17.431  0.00  0.00    +0.371 HD
ENDBRANCH  21  22
TORSDOF 2
ENDMDL
MODEL 6
REMARK VINA RESULT:      -6.0      3.567      7.786
REMARK  Name = ZINC03941105
REMARK  9 active torsions:
REMARK  status: ('A' for Active; 'I' for Inactive)
REMARK    1  A    between atoms: C1_1  and  C2_2
REMARK    2  A    between atoms: C5_6  and  C30_37
REMARK    3  A    between atoms: C8_9  and  C29_36
REMARK    4  A    between atoms: C13_15  and  C25_30
REMARK    5  A    between atoms: C17_20  and  C24_29
REMARK    6  A    between atoms: C20_23  and  O1_28
REMARK    7  A    between atoms: C21_25  and  C22_26
REMARK    8  A    between atoms: C21_25  and  C23_27
REMARK    9  A    between atoms: C27_33  and  C28_35
REMARK                            x       y       z     vdW  Elec       q    Type
REMARK                         _______ _______ _______ _____ _____    ______ ____
ROOT
ATOM      1  C   UNL     1      45.841  21.333  18.754  0.00  0.00    +0.005 C 
ATOM      2  C   UNL     1      45.789  20.389  19.952  0.00  0.00    -0.030 C 
ATOM      3  C   UNL     1      46.762  20.840  21.032  0.00  0.00    +0.012 C 
ATOM      4  C   UNL     1      48.212  20.688  20.594  0.00  0.00    +0.007 C 
ATOM      5  C   UNL     1      48.517  19.245  20.181  0.00  0.00    -0.088 C 
ATOM      9  C   UNL     1      49.927  19.212  19.567  0.00  0.00    -0.006 C 
ATOM     10  C   UNL     1      50.307  17.773  19.224  0.00  0.00    +0.032 C 
ATOM     11  C   UNL     1      49.332  17.149  18.239  0.00  0.00    +0.015 C 
ATOM     12  C   UNL     1      49.583  17.823  16.880  0.00  0.00    -0.003 C 
ATOM     13  C   UNL     1      47.889  17.429  18.574  0.00  0.00    -0.022 C 
ATOM     14  C   UNL     1      46.945  16.570  18.312  0.00  0.00    -0.111 C 
ATOM     15  C   UNL     1      47.166  15.164  17.827  0.00  0.00    +0.052 C 
ATOM     16  C   UNL     1      48.536  15.056  17.162  0.00  0.00    -0.001 C 
ATOM     17  C   UNL     1      48.810  13.629  16.683  0.00  0.00    -0.034 C 
ATOM     18  C   UNL     1      48.584  12.613  17.797  0.00  0.00    +0.026 C 
ATOM     19  C   UNL     1      47.819  13.316  15.549  0.00  0.00    +0.016 C 
ATOM     20  C   UNL     1      48.123  11.939  14.968  0.00  0.00    -0.020 C 
ATOM     21  C   UNL     1      49.519  11.918  14.356  0.00  0.00    +0.165 C 
ATOM     24  C   UNL     1      50.595  12.324  15.363  0.00  0.00    -0.037 C 
ATOM     25  C   UNL     1      50.921  11.147  16.281  0.00  0.00    +0.033 C 
ATOM     26  C   UNL     1      51.872  12.621  14.537  0.00  0.00    +0.014 C 
ATOM     27  C   UNL     1      50.225  13.577  16.120  0.00  0.00    -0.002 C 
ATOM     28  C   UNL     1      51.222  13.927  17.225  0.00  0.00    +0.013 C 
ATOM     29  C   UNL     1      51.009  15.407  17.580  0.00  0.00    +0.007 C 
ATOM     30  C   UNL     1      49.590  15.646  18.084  0.00  0.00    -0.024 C 
ATOM     31  C   UNL     1      49.471  15.030  19.489  0.00  0.00    +0.039 C 
ATOM     32  C   UNL     1      47.530  18.793  19.117  0.00  0.00    +0.036 C 
ATOM     33  C   UNL     1      46.080  18.949  19.512  0.00  0.00    -0.014 C 
ATOM     34  C   UNL     1      45.605  17.996  20.605  0.00  0.00    +0.022 C 
ENDROOT
BRANCH   5   6
ATOM      6  C   UNL     1      48.528  18.371  21.401  0.00  0.00    +0.482 C 
ATOM      7  O   UNL     1      49.182  18.768  22.505  0.00  0.00    -0.738 OA
ATOM      8  O   UNL     1      47.951  17.309  21.390  0.00  0.00    -0.650 OA
ENDBRANCH   5   6
BRANCH  21  22
ATOM     22  O   UNL     1      49.802  10.599  13.874  0.00  0.00    -0.566 OA
ATOM     23  H   UNL     1      50.281  10.581  13.035  0.00  0.00    +0.371 HD
ENDBRANCH  21  22
TORSDOF 2
ENDMDL
MODEL 7
REMARK VINA RESULT:      -6.0      4.343      6.676
REMARK  Name = ZINC03941105
REMARK  9 active torsions:
REMARK  status: ('A' for Active; 'I' for Inactive)
REMARK    1  A    between atoms: C1_1  and  C2_2
REMARK    2  A    between atoms: C5_6  and  C30_37
REMARK    3  A    between atoms: C8_9  and  C29_36
REMARK    4  A    between atoms: C13_15  and  C25_30
REMARK    5  A    between atoms: C17_20  and  C24_29
REMARK    6  A    between atoms: C20_23  and  O1_28
REMARK    7  A    between atoms: C21_25  and  C22_26
REMARK    8  A    between atoms: C21_25  and  C23_27
REMARK    9  A    between atoms: C27_33  and  C28_35
REMARK                            x       y       z     vdW  Elec       q    Type
REMARK                         _______ _______ _______ _____ _____    ______ ____
ROOT
ATOM      1  C   UNL     1      51.561  21.527  16.552  0.00  0.00    +0.005 C 
ATOM      2  C   UNL     1      50.953  21.376  17.944  0.00  0.00    -0.030 C 
ATOM      3  C   UNL     1      52.045  21.367  19.006  0.00  0.00    +0.012 C 
ATOM      4  C   UNL     1      52.912  20.118  18.921  0.00  0.00    +0.007 C 
ATOM      5  C   UNL     1      52.064  18.847  19.026  0.00  0.00    -0.088 C 
ATOM      9  C   UNL     1      52.974  17.641  18.734  0.00  0.00    -0.006 C 
ATOM     10  C   UNL     1      52.188  16.345  18.918  0.00  0.00    +0.032 C 
ATOM     11  C   UNL     1      50.981  16.279  17.996  0.00  0.00    +0.015 C 
ATOM     12  C   UNL     1      51.521  16.064  16.573  0.00  0.00    -0.003 C 
ATOM     13  C   UNL     1      50.200  17.569  17.947  0.00  0.00    -0.022 C 
ATOM     14  C   UNL     1      48.909  17.582  17.778  0.00  0.00    -0.111 C 
ATOM     15  C   UNL     1      48.022  16.367  17.788  0.00  0.00    +0.052 C 
ATOM     16  C   UNL     1      48.846  15.123  17.463  0.00  0.00    -0.001 C 
ATOM     17  C   UNL     1      47.984  13.860  17.496  0.00  0.00    -0.034 C 
ATOM     18  C   UNL     1      47.197  13.755  18.797  0.00  0.00    +0.026 C 
ATOM     19  C   UNL     1      46.974  13.952  16.338  0.00  0.00    +0.016 C 
ATOM     20  C   UNL     1      46.159  12.665  16.266  0.00  0.00    -0.020 C 
ATOM     21  C   UNL     1      47.068  11.478  15.970  0.00  0.00    +0.165 C 
ATOM     24  C   UNL     1      48.192  11.342  16.997  0.00  0.00    -0.037 C 
ATOM     25  C   UNL     1      47.660  10.687  18.270  0.00  0.00    +0.033 C 
ATOM     26  C   UNL     1      49.226  10.366  16.382  0.00  0.00    +0.014 C 
ATOM     27  C   UNL     1      48.887  12.657  17.258  0.00  0.00    -0.002 C 
ATOM     28  C   UNL     1      49.925  12.575  18.378  0.00  0.00    +0.013 C 
ATOM     29  C   UNL     1      50.858  13.786  18.225  0.00  0.00    +0.007 C 
ATOM     30  C   UNL     1      50.080  15.091  18.351  0.00  0.00    -0.024 C 
ATOM     31  C   UNL     1      49.676  15.267  19.825  0.00  0.00    +0.039 C 
ATOM     32  C   UNL     1      50.965  18.871  17.977  0.00  0.00    +0.036 C 
ATOM     33  C   UNL     1      50.096  20.107  18.020  0.00  0.00    -0.014 C 
ATOM     34  C   UNL     1      49.178  20.206  19.235  0.00  0.00    +0.022 C 
ENDROOT
BRANCH   5   6
ATOM      6  C   UNL     1      51.553  18.705  20.430  0.00  0.00    +0.482 C 
ATOM      7  O   UNL     1      50.288  18.311  20.648  0.00  0.00    -0.738 OA
ATOM      8  O   UNL     1      52.280  18.946  21.366  0.00  0.00    -0.650 OA
ENDBRANCH   5   6
BRANCH  21  22
ATOM     22  O   UNL     1      46.287  10.277  15.969  0.00  0.00    -0.566 OA
ATOM     23  H   UNL     1      46.436   9.711  15.199  0.00  0.00    +0.371 HD
ENDBRANCH  21  22
TORSDOF 2
ENDMDL
MODEL 8
REMARK VINA RESULT:      -5.9      3.352      5.187
REMARK  Name = ZINC03941105
REMARK  9 active torsions:
REMARK  status: ('A' for Active; 'I' for Inactive)
REMARK    1  A    between atoms: C1_1  and  C2_2
REMARK    2  A    between atoms: C5_6  and  C30_37
REMARK    3  A    between atoms: C8_9  and  C29_36
REMARK    4  A    between atoms: C13_15  and  C25_30
REMARK    5  A    between atoms: C17_20  and  C24_29
REMARK    6  A    between atoms: C20_23  and  O1_28
REMARK    7  A    between atoms: C21_25  and  C22_26
REMARK    8  A    between atoms: C21_25  and  C23_27
REMARK    9  A    between atoms: C27_33  and  C28_35
REMARK                            x       y       z     vdW  Elec       q    Type
REMARK                         _______ _______ _______ _____ _____    ______ ____
ROOT
ATOM      1  C   UNL     1      51.543  12.754  17.611  0.00  0.00    +0.005 C 
ATOM      2  C   UNL     1      50.375  12.186  18.413  0.00  0.00    -0.030 C 
ATOM      3  C   UNL     1      49.411  11.439  17.499  0.00  0.00    +0.012 C 
ATOM      4  C   UNL     1      48.690  12.378  16.542  0.00  0.00    +0.007 C 
ATOM      5  C   UNL     1      47.947  13.480  17.303  0.00  0.00    -0.088 C 
ATOM      9  C   UNL     1      47.414  14.494  16.275  0.00  0.00    -0.006 C 
ATOM     10  C   UNL     1      46.587  15.563  16.986  0.00  0.00    +0.032 C 
ATOM     11  C   UNL     1      47.403  16.309  18.030  0.00  0.00    +0.015 C 
ATOM     12  C   UNL     1      48.392  17.203  17.263  0.00  0.00    -0.003 C 
ATOM     13  C   UNL     1      48.249  15.399  18.883  0.00  0.00    -0.022 C 
ATOM     14  C   UNL     1      48.504  15.672  20.131  0.00  0.00    -0.111 C 
ATOM     15  C   UNL     1      47.873  16.787  20.919  0.00  0.00    +0.052 C 
ATOM     16  C   UNL     1      47.354  17.863  19.969  0.00  0.00    -0.001 C 
ATOM     17  C   UNL     1      46.676  19.000  20.734  0.00  0.00    -0.034 C 
ATOM     18  C   UNL     1      45.622  18.472  21.701  0.00  0.00    +0.026 C 
ATOM     19  C   UNL     1      47.757  19.721  21.558  0.00  0.00    +0.016 C 
ATOM     20  C   UNL     1      47.145  20.931  22.258  0.00  0.00    -0.020 C 
ATOM     21  C   UNL     1      46.628  21.932  21.233  0.00  0.00    +0.165 C 
ATOM     24  C   UNL     1      45.618  21.303  20.272  0.00  0.00    -0.037 C 
ATOM     25  C   UNL     1      44.250  21.202  20.945  0.00  0.00    +0.033 C 
ATOM     26  C   UNL     1      45.470  22.292  19.089  0.00  0.00    +0.014 C 
ATOM     27  C   UNL     1      46.102  19.983  19.721  0.00  0.00    -0.002 C 
ATOM     28  C   UNL     1      45.054  19.271  18.864  0.00  0.00    +0.013 C 
ATOM     29  C   UNL     1      45.795  18.232  18.007  0.00  0.00    +0.007 C 
ATOM     30  C   UNL     1      46.508  17.211  18.887  0.00  0.00    -0.024 C 
ATOM     31  C   UNL     1      45.443  16.301  19.524  0.00  0.00    +0.039 C 
ATOM     32  C   UNL     1      48.908  14.209  18.228  0.00  0.00    +0.036 C 
ATOM     33  C   UNL     1      49.657  13.303  19.179  0.00  0.00    -0.014 C 
ATOM     34  C   UNL     1      48.802  12.676  20.276  0.00  0.00    +0.022 C 
ENDROOT
BRANCH   5   6
ATOM      6  C   UNL     1      46.765  12.884  18.011  0.00  0.00    +0.482 C 
ATOM      7  O   UNL     1      45.961  12.022  17.368  0.00  0.00    -0.738 OA
ATOM      8  O   UNL     1      46.536  13.181  19.161  0.00  0.00    -0.650 OA
ENDBRANCH   5   6
BRANCH  21  22
ATOM     22  O   UNL     1      46.005  23.026  21.916  0.00  0.00    -0.566 OA
ATOM     23  H   UNL     1      46.499  23.856  21.862  0.00  0.00    +0.371 HD
ENDBRANCH  21  22
TORSDOF 2
ENDMDL
MODEL 9
REMARK VINA RESULT:      -5.7      3.311      5.189
REMARK  Name = ZINC03941105
REMARK  9 active torsions:
REMARK  status: ('A' for Active; 'I' for Inactive)
REMARK    1  A    between atoms: C1_1  and  C2_2
REMARK    2  A    between atoms: C5_6  and  C30_37
REMARK    3  A    between atoms: C8_9  and  C29_36
REMARK    4  A    between atoms: C13_15  and  C25_30
REMARK    5  A    between atoms: C17_20  and  C24_29
REMARK    6  A    between atoms: C20_23  and  O1_28
REMARK    7  A    between atoms: C21_25  and  C22_26
REMARK    8  A    between atoms: C21_25  and  C23_27
REMARK    9  A    between atoms: C27_33  and  C28_35
REMARK                            x       y       z     vdW  Elec       q    Type
REMARK                         _______ _______ _______ _____ _____    ______ ____
ROOT
ATOM      1  C   UNL     1      52.597  12.662  20.350  0.00  0.00    +0.005 C 
ATOM      2  C   UNL     1      51.291  11.911  20.107  0.00  0.00    -0.030 C 
ATOM      3  C   UNL     1      51.252  11.348  18.692  0.00  0.00    +0.012 C 
ATOM      4  C   UNL     1      51.164  12.448  17.643  0.00  0.00    +0.007 C 
ATOM      5  C   UNL     1      49.948  13.348  17.886  0.00  0.00    -0.088 C 
ATOM      9  C   UNL     1      50.037  14.541  16.918  0.00  0.00    -0.006 C 
ATOM     10  C   UNL     1      48.795  15.416  17.063  0.00  0.00    +0.032 C 
ATOM     11  C   UNL     1      48.639  15.948  18.479  0.00  0.00    +0.015 C 
ATOM     12  C   UNL     1      49.737  17.006  18.678  0.00  0.00    -0.003 C 
ATOM     13  C   UNL     1      48.883  14.901  19.536  0.00  0.00    -0.022 C 
ATOM     14  C   UNL     1      48.246  14.913  20.672  0.00  0.00    -0.111 C 
ATOM     15  C   UNL     1      47.096  15.823  21.010  0.00  0.00    +0.052 C 
ATOM     16  C   UNL     1      47.137  17.060  20.117  0.00  0.00    -0.001 C 
ATOM     17  C   UNL     1      45.962  17.996  20.409  0.00  0.00    -0.034 C 
ATOM     18  C   UNL     1      44.633  17.251  20.371  0.00  0.00    +0.026 C 
ATOM     19  C   UNL     1      46.151  18.555  21.830  0.00  0.00    +0.016 C 
ATOM     20  C   UNL     1      45.057  19.576  22.128  0.00  0.00    -0.020 C 
ATOM     21  C   UNL     1      45.158  20.756  21.169  0.00  0.00    +0.165 C 
ATOM     24  C   UNL     1      45.095  20.317  19.706  0.00  0.00    -0.037 C 
ATOM     25  C   UNL     1      43.646  20.044  19.305  0.00  0.00    +0.033 C 
ATOM     26  C   UNL     1      45.577  21.528  18.869  0.00  0.00    +0.014 C 
ATOM     27  C   UNL     1      46.014  19.153  19.421  0.00  0.00    -0.002 C 
ATOM     28  C   UNL     1      45.871  18.611  17.998  0.00  0.00    +0.013 C 
ATOM     29  C   UNL     1      47.135  17.793  17.692  0.00  0.00    +0.007 C 
ATOM     30  C   UNL     1      47.279  16.629  18.666  0.00  0.00    -0.024 C 
ATOM     31  C   UNL     1      46.208  15.579  18.319  0.00  0.00    +0.039 C 
ATOM     32  C   UNL     1      49.982  13.891  19.305  0.00  0.00    +0.036 C 
ATOM     33  C   UNL     1      50.089  12.825  20.372  0.00  0.00    -0.014 C 
ATOM     34  C   UNL     1      48.843  11.962  20.546  0.00  0.00    +0.022 C 
ENDROOT
BRANCH   5   6
ATOM      6  C   UNL     1      48.695  12.588  17.561  0.00  0.00    +0.482 C 
ATOM      7  O   UNL     1      48.608  11.895  16.414  0.00  0.00    -0.738 OA
ATOM      8  O   UNL     1      47.764  12.600  18.331  0.00  0.00    -0.650 OA
ENDBRANCH   5   6
BRANCH  21  22
ATOM     22  O   UNL     1      44.084  21.668  21.431  0.00  0.00    -0.566 OA
ATOM     23  H   UNL     1      44.122  22.480  20.909  0.00  0.00    +0.371 HD
ENDBRANCH  21  22
TORSDOF 2
ENDMDL
