MODEL 1
REMARK VINA RESULT:      -6.8      0.000      0.000
REMARK  Name = ZINC13378640
REMARK  13 active torsions:
REMARK  status: ('A' for Active; 'I' for Inactive)
REMARK    1  A    between atoms: C1_1  and  C2_2
REMARK    2  A    between atoms: C2_2  and  C25_33
REMARK    3  A    between atoms: C3_3  and  C4_4
REMARK    4  A    between atoms: C4_4  and  C5_5
REMARK    5  A    between atoms: C5_5  and  C6_6
REMARK    6  A    between atoms: C6_6  and  C24_32
REMARK    7  A    between atoms: C7_7  and  C8_8
REMARK    8  A    between atoms: C8_8  and  C9_9
REMARK    9  A    between atoms: C10_10  and  O6_31
REMARK   10  A    between atoms: C14_14  and  O1_15
REMARK   11  A    between atoms: C16_18  and  O5_30
REMARK   12  A    between atoms: C17_20  and  C18_23
REMARK   13  A    between atoms: C21_26  and  O4_29
REMARK                            x       y       z     vdW  Elec       q    Type
REMARK                         _______ _______ _______ _____ _____    ______ ____
ROOT
ATOM     11  C   UNL     1      48.089  16.947  19.096  0.00  0.00    -0.171 A 
ATOM     12  C   UNL     1      47.623  17.239  17.819  0.00  0.00    +0.200 A 
ATOM     15  C   UNL     1      46.456  17.972  17.641  0.00  0.00    -0.044 A 
ATOM     16  C   UNL     1      45.743  18.421  18.738  0.00  0.00    +0.203 A 
ATOM     17  C   UNL     1      46.215  18.132  20.032  0.00  0.00    -0.289 A 
ATOM     18  C   UNL     1      45.461  18.622  21.191  0.00  0.00    +0.371 C 
ATOM     19  C   UNL     1      44.068  19.161  20.918  0.00  0.00    +0.148 C 
ATOM     22  C   UNL     1      44.143  19.970  19.614  0.00  0.00    +0.252 C 
ATOM     31  O   UNL     1      45.927  18.597  22.312  0.00  0.00    -0.420 OA
ATOM     32  O   UNL     1      44.599  19.123  18.559  0.00  0.00    -0.289 OA
ATOM     33  C   UNL     1      47.389  17.382  20.206  0.00  0.00    +0.227 A 
ENDROOT
BRANCH  22  23
ATOM     23  C   UNL     1      42.775  20.504  19.274  0.00  0.00    -0.096 A 
ATOM     24  C   UNL     1      41.697  19.643  19.197  0.00  0.00    +0.055 A 
ATOM     25  C   UNL     1      40.442  20.131  18.892  0.00  0.00    -0.015 A 
ATOM     26  C   UNL     1      40.265  21.486  18.652  0.00  0.00    +0.118 A 
ATOM     29  C   UNL     1      41.350  22.348  18.726  0.00  0.00    -0.012 A 
ATOM     30  C   UNL     1      42.602  21.855  19.036  0.00  0.00    +0.064 A 
BRANCH  26  27
ATOM     27  O   UNL     1      39.032  21.968  18.346  0.00  0.00    -0.499 OA
ATOM     28  H   UNL     1      38.492  21.363  17.821  0.00  0.00    +0.394 HD
ENDBRANCH  26  27
ENDBRANCH  22  23
BRANCH  12  13
ATOM     13  O   UNL     1      48.316  16.806  16.736  0.00  0.00    -0.485 OA
ATOM     14  H   UNL     1      48.905  16.061  16.918  0.00  0.00    +0.402 HD
ENDBRANCH  12  13
BRANCH  19  20
ATOM     20  O   UNL     1      43.655  20.008  21.992  0.00  0.00    -0.534 OA
ATOM     21  H   UNL     1      43.678  20.951  21.782  0.00  0.00    +0.396 HD
ENDBRANCH  19  20
BRANCH  33  34
ATOM     34  O   UNL     1      47.835  17.092  21.452  0.00  0.00    -0.475 OA
ATOM     35  H   UNL     1      48.759  16.806  21.483  0.00  0.00    +0.402 HD
ENDBRANCH  33  34
BRANCH  11  10
ATOM     10  C   UNL     1      49.356  16.148  19.270  0.00  0.00    +0.129 C 
BRANCH  10   9
ATOM      7  C   UNL     1      51.609  16.878  18.680  0.00  0.00    -0.123 C 
ATOM      8  C   UNL     1      51.632  15.781  17.646  0.00  0.00    +0.075 C 
ATOM      9  C   UNL     1      50.529  17.086  19.390  0.00  0.00    -0.048 C 
BRANCH   7   6
ATOM      6  C   UNL     1      52.831  17.733  18.896  0.00  0.00    +0.059 C 
BRANCH   6   5
ATOM      5  C   UNL     1      52.401  19.175  19.177  0.00  0.00    +0.053 C 
BRANCH   5   4
ATOM      1  C   UNL     1      50.203  20.762  18.402  0.00  0.00    +0.071 C 
ATOM      2  C   UNL     1      51.418  20.669  17.515  0.00  0.00    -0.131 C 
ATOM      3  C   UNL     1      51.436  21.378  16.185  0.00  0.00    +0.072 C 
ATOM      4  C   UNL     1      52.460  19.974  17.900  0.00  0.00    -0.062 C 
ENDBRANCH   5   4
ENDBRANCH   6   5
ENDBRANCH   7   6
ENDBRANCH  10   9
ENDBRANCH  11  10
TORSDOF 10
ENDMDL
MODEL 2
REMARK VINA RESULT:      -5.8      3.172      7.618
REMARK  Name = ZINC13378640
REMARK  13 active torsions:
REMARK  status: ('A' for Active; 'I' for Inactive)
REMARK    1  A    between atoms: C1_1  and  C2_2
REMARK    2  A    between atoms: C2_2  and  C25_33
REMARK    3  A    between atoms: C3_3  and  C4_4
REMARK    4  A    between atoms: C4_4  and  C5_5
REMARK    5  A    between atoms: C5_5  and  C6_6
REMARK    6  A    between atoms: C6_6  and  C24_32
REMARK    7  A    between atoms: C7_7  and  C8_8
REMARK    8  A    between atoms: C8_8  and  C9_9
REMARK    9  A    between atoms: C10_10  and  O6_31
REMARK   10  A    between atoms: C14_14  and  O1_15
REMARK   11  A    between atoms: C16_18  and  O5_30
REMARK   12  A    between atoms: C17_20  and  C18_23
REMARK   13  A    between atoms: C21_26  and  O4_29
REMARK                            x       y       z     vdW  Elec       q    Type
REMARK                         _______ _______ _______ _____ _____    ______ ____
ROOT
ATOM     11  C   UNL     1      45.008  18.238  19.484  0.00  0.00    -0.171 A 
ATOM     12  C   UNL     1      45.679  18.777  18.393  0.00  0.00    +0.200 A 
ATOM     15  C   UNL     1      46.435  17.969  17.555  0.00  0.00    -0.044 A 
ATOM     16  C   UNL     1      46.530  16.610  17.798  0.00  0.00    +0.203 A 
ATOM     17  C   UNL     1      45.847  16.059  18.898  0.00  0.00    -0.289 A 
ATOM     18  C   UNL     1      45.940  14.616  19.144  0.00  0.00    +0.371 C 
ATOM     19  C   UNL     1      46.999  13.859  18.361  0.00  0.00    +0.148 C 
ATOM     22  C   UNL     1      47.002  14.429  16.934  0.00  0.00    +0.252 C 
ATOM     31  O   UNL     1      45.208  14.054  19.932  0.00  0.00    -0.420 OA
ATOM     32  O   UNL     1      47.279  15.828  16.985  0.00  0.00    -0.289 OA
ATOM     33  C   UNL     1      45.093  16.883  19.749  0.00  0.00    +0.227 A 
ENDROOT
BRANCH  22  23
ATOM     23  C   UNL     1      48.061  13.735  16.117  0.00  0.00    -0.096 A 
ATOM     24  C   UNL     1      47.701  12.989  15.011  0.00  0.00    +0.055 A 
ATOM     25  C   UNL     1      48.670  12.357  14.257  0.00  0.00    -0.015 A 
ATOM     26  C   UNL     1      50.005  12.462  14.618  0.00  0.00    +0.118 A 
ATOM     29  C   UNL     1      50.364  13.208  15.732  0.00  0.00    -0.012 A 
ATOM     30  C   UNL     1      49.391  13.842  16.479  0.00  0.00    +0.064 A 
BRANCH  26  27
ATOM     27  O   UNL     1      50.961  11.836  13.881  0.00  0.00    -0.499 OA
ATOM     28  H   UNL     1      51.864  12.018  14.173  0.00  0.00    +0.394 HD
ENDBRANCH  26  27
ENDBRANCH  22  23
BRANCH  12  13
ATOM     13  O   UNL     1      45.592  20.108  18.143  0.00  0.00    -0.485 OA
ATOM     14  H   UNL     1      46.378  20.609  18.403  0.00  0.00    +0.402 HD
ENDBRANCH  12  13
BRANCH  19  20
ATOM     20  O   UNL     1      46.679  12.467  18.329  0.00  0.00    -0.534 OA
ATOM     21  H   UNL     1      45.993  12.236  17.688  0.00  0.00    +0.396 HD
ENDBRANCH  19  20
BRANCH  33  34
ATOM     34  O   UNL     1      44.448  16.354  20.816  0.00  0.00    -0.475 OA
ATOM     35  H   UNL     1      43.483  16.376  20.745  0.00  0.00    +0.402 HD
ENDBRANCH  33  34
BRANCH  11  10
ATOM     10  C   UNL     1      44.195  19.131  20.385  0.00  0.00    +0.129 C 
BRANCH  10   9
ATOM      7  C   UNL     1      45.243  21.014  21.531  0.00  0.00    -0.123 C 
ATOM      8  C   UNL     1      44.432  21.929  20.649  0.00  0.00    +0.075 C 
ATOM      9  C   UNL     1      45.086  19.717  21.450  0.00  0.00    -0.048 C 
BRANCH   7   6
ATOM      6  C   UNL     1      46.235  21.595  22.505  0.00  0.00    +0.059 C 
BRANCH   6   5
ATOM      5  C   UNL     1      47.600  20.936  22.297  0.00  0.00    +0.053 C 
BRANCH   5   4
ATOM      1  C   UNL     1      48.588  18.939  20.569  0.00  0.00    +0.071 C 
ATOM      2  C   UNL     1      48.643  20.388  20.158  0.00  0.00    -0.131 C 
ATOM      3  C   UNL     1      49.280  20.776  18.848  0.00  0.00    +0.072 C 
ATOM      4  C   UNL     1      48.136  21.310  20.938  0.00  0.00    -0.062 C 
ENDBRANCH   5   4
ENDBRANCH   6   5
ENDBRANCH   7   6
ENDBRANCH  10   9
ENDBRANCH  11  10
TORSDOF 10
ENDMDL
MODEL 3
REMARK VINA RESULT:      -5.8      5.167     10.603
REMARK  Name = ZINC13378640
REMARK  13 active torsions:
REMARK  status: ('A' for Active; 'I' for Inactive)
REMARK    1  A    between atoms: C1_1  and  C2_2
REMARK    2  A    between atoms: C2_2  and  C25_33
REMARK    3  A    between atoms: C3_3  and  C4_4
REMARK    4  A    between atoms: C4_4  and  C5_5
REMARK    5  A    between atoms: C5_5  and  C6_6
REMARK    6  A    between atoms: C6_6  and  C24_32
REMARK    7  A    between atoms: C7_7  and  C8_8
REMARK    8  A    between atoms: C8_8  and  C9_9
REMARK    9  A    between atoms: C10_10  and  O6_31
REMARK   10  A    between atoms: C14_14  and  O1_15
REMARK   11  A    between atoms: C16_18  and  O5_30
REMARK   12  A    between atoms: C17_20  and  C18_23
REMARK   13  A    between atoms: C21_26  and  O4_29
REMARK                            x       y       z     vdW  Elec       q    Type
REMARK                         _______ _______ _______ _____ _____    ______ ____
ROOT
ATOM     11  C   UNL     1      47.850  13.806  17.438  0.00  0.00    -0.171 A 
ATOM     12  C   UNL     1      47.021  13.120  16.558  0.00  0.00    +0.200 A 
ATOM     15  C   UNL     1      47.510  12.645  15.348  0.00  0.00    -0.044 A 
ATOM     16  C   UNL     1      48.834  12.851  15.004  0.00  0.00    +0.203 A 
ATOM     17  C   UNL     1      49.678  13.540  15.895  0.00  0.00    -0.289 A 
ATOM     18  C   UNL     1      51.084  13.743  15.531  0.00  0.00    +0.371 C 
ATOM     19  C   UNL     1      51.463  13.448  14.091  0.00  0.00    +0.148 C 
ATOM     22  C   UNL     1      50.706  12.178  13.674  0.00  0.00    +0.252 C 
ATOM     31  O   UNL     1      51.904  14.128  16.340  0.00  0.00    -0.420 OA
ATOM     32  O   UNL     1      49.302  12.397  13.817  0.00  0.00    -0.289 OA
ATOM     33  C   UNL     1      49.175  14.027  17.113  0.00  0.00    +0.227 A 
ENDROOT
BRANCH  22  23
ATOM     23  C   UNL     1      51.020  11.855  12.236  0.00  0.00    -0.096 A 
ATOM     24  C   UNL     1      51.481  10.596  11.897  0.00  0.00    +0.055 A 
ATOM     25  C   UNL     1      51.764  10.295  10.579  0.00  0.00    -0.015 A 
ATOM     26  C   UNL     1      51.596  11.260   9.597  0.00  0.00    +0.118 A 
ATOM     29  C   UNL     1      51.137  12.524   9.940  0.00  0.00    -0.012 A 
ATOM     30  C   UNL     1      50.851  12.818  11.259  0.00  0.00    +0.064 A 
BRANCH  26  27
ATOM     27  O   UNL     1      51.879  10.968   8.300  0.00  0.00    -0.499 OA
ATOM     28  H   UNL     1      52.140  10.049   8.151  0.00  0.00    +0.394 HD
ENDBRANCH  26  27
ENDBRANCH  22  23
BRANCH  12  13
ATOM     13  O   UNL     1      45.721  12.910  16.885  0.00  0.00    -0.485 OA
ATOM     14  H   UNL     1      45.336  12.122  16.479  0.00  0.00    +0.402 HD
ENDBRANCH  12  13
BRANCH  19  20
ATOM     20  O   UNL     1      52.872  13.228  13.994  0.00  0.00    -0.534 OA
ATOM     21  H   UNL     1      53.405  13.870  14.482  0.00  0.00    +0.396 HD
ENDBRANCH  19  20
BRANCH  33  34
ATOM     34  O   UNL     1      49.984  14.703  17.964  0.00  0.00    -0.475 OA
ATOM     35  H   UNL     1      50.924  14.655  17.737  0.00  0.00    +0.402 HD
ENDBRANCH  33  34
BRANCH  11  10
ATOM     10  C   UNL     1      47.300  14.317  18.746  0.00  0.00    +0.129 C 
BRANCH  10   9
ATOM      7  C   UNL     1      45.782  16.173  19.203  0.00  0.00    -0.123 C 
ATOM      8  C   UNL     1      45.080  15.279  20.194  0.00  0.00    +0.075 C 
ATOM      9  C   UNL     1      46.850  15.745  18.578  0.00  0.00    -0.048 C 
BRANCH   7   6
ATOM      6  C   UNL     1      45.253  17.558  18.934  0.00  0.00    +0.059 C 
BRANCH   6   5
ATOM      5  C   UNL     1      44.964  18.261  20.261  0.00  0.00    +0.053 C 
BRANCH   5   4
ATOM      1  C   UNL     1      43.023  17.510  22.164  0.00  0.00    +0.071 C 
ATOM      2  C   UNL     1      42.670  18.483  21.068  0.00  0.00    -0.131 C 
ATOM      3  C   UNL     1      41.262  19.009  20.954  0.00  0.00    +0.072 C 
ATOM      4  C   UNL     1      43.586  18.871  20.217  0.00  0.00    -0.062 C 
ENDBRANCH   5   4
ENDBRANCH   6   5
ENDBRANCH   7   6
ENDBRANCH  10   9
ENDBRANCH  11  10
TORSDOF 10
ENDMDL
MODEL 4
REMARK VINA RESULT:      -5.7      2.064      3.879
REMARK  Name = ZINC13378640
REMARK  13 active torsions:
REMARK  status: ('A' for Active; 'I' for Inactive)
REMARK    1  A    between atoms: C1_1  and  C2_2
REMARK    2  A    between atoms: C2_2  and  C25_33
REMARK    3  A    between atoms: C3_3  and  C4_4
REMARK    4  A    between atoms: C4_4  and  C5_5
REMARK    5  A    between atoms: C5_5  and  C6_6
REMARK    6  A    between atoms: C6_6  and  C24_32
REMARK    7  A    between atoms: C7_7  and  C8_8
REMARK    8  A    between atoms: C8_8  and  C9_9
REMARK    9  A    between atoms: C10_10  and  O6_31
REMARK   10  A    between atoms: C14_14  and  O1_15
REMARK   11  A    between atoms: C16_18  and  O5_30
REMARK   12  A    between atoms: C17_20  and  C18_23
REMARK   13  A    between atoms: C21_26  and  O4_29
REMARK                            x       y       z     vdW  Elec       q    Type
REMARK                         _______ _______ _______ _____ _____    ______ ____
ROOT
ATOM     11  C   UNL     1      48.288  17.173  19.136  0.00  0.00    -0.171 A 
ATOM     12  C   UNL     1      47.832  17.403  17.843  0.00  0.00    +0.200 A 
ATOM     15  C   UNL     1      46.632  18.067  17.623  0.00  0.00    -0.044 A 
ATOM     16  C   UNL     1      45.875  18.509  18.692  0.00  0.00    +0.203 A 
ATOM     17  C   UNL     1      46.336  18.284  20.002  0.00  0.00    -0.289 A 
ATOM     18  C   UNL     1      45.535  18.766  21.132  0.00  0.00    +0.371 C 
ATOM     19  C   UNL     1      44.122  19.223  20.818  0.00  0.00    +0.148 C 
ATOM     22  C   UNL     1      44.179  19.996  19.492  0.00  0.00    +0.252 C 
ATOM     31  O   UNL     1      45.980  18.800  22.262  0.00  0.00    -0.420 OA
ATOM     32  O   UNL     1      44.699  19.144  18.471  0.00  0.00    -0.289 OA
ATOM     33  C   UNL     1      47.545  17.603  20.220  0.00  0.00    +0.227 A 
ENDROOT
BRANCH  22  23
ATOM     23  C   UNL     1      42.792  20.447  19.112  0.00  0.00    -0.096 A 
ATOM     24  C   UNL     1      41.808  19.511  18.856  0.00  0.00    +0.055 A 
ATOM     25  C   UNL     1      40.535  19.921  18.513  0.00  0.00    -0.015 A 
ATOM     26  C   UNL     1      40.247  21.275  18.416  0.00  0.00    +0.118 A 
ATOM     29  C   UNL     1      41.238  22.213  18.669  0.00  0.00    -0.012 A 
ATOM     30  C   UNL     1      42.508  21.797  19.016  0.00  0.00    +0.064 A 
BRANCH  26  27
ATOM     27  O   UNL     1      38.996  21.682  18.074  0.00  0.00    -0.499 OA
ATOM     28  H   UNL     1      38.946  22.606  17.792  0.00  0.00    +0.394 HD
ENDBRANCH  26  27
ENDBRANCH  22  23
BRANCH  12  13
ATOM     13  O   UNL     1      48.568  16.976  16.786  0.00  0.00    -0.485 OA
ATOM     14  H   UNL     1      49.500  16.824  16.992  0.00  0.00    +0.402 HD
ENDBRANCH  12  13
BRANCH  19  20
ATOM     20  O   UNL     1      43.644  20.078  21.859  0.00  0.00    -0.534 OA
ATOM     21  H   UNL     1      42.730  19.906  22.121  0.00  0.00    +0.396 HD
ENDBRANCH  19  20
BRANCH  33  34
ATOM     34  O   UNL     1      47.981  17.373  21.482  0.00  0.00    -0.475 OA
ATOM     35  H   UNL     1      48.368  16.496  21.612  0.00  0.00    +0.402 HD
ENDBRANCH  33  34
BRANCH  11  10
ATOM     10  C   UNL     1      49.591  16.448  19.357  0.00  0.00    +0.129 C 
BRANCH  10   9
ATOM      7  C   UNL     1      50.008  14.103  18.826  0.00  0.00    -0.123 C 
ATOM      8  C   UNL     1      51.151  14.561  17.957  0.00  0.00    +0.075 C 
ATOM      9  C   UNL     1      49.325  14.975  19.524  0.00  0.00    -0.048 C 
BRANCH   7   6
ATOM      6  C   UNL     1      49.653  12.639  18.890  0.00  0.00    +0.059 C 
BRANCH   6   5
ATOM      5  C   UNL     1      48.644  12.310  17.788  0.00  0.00    +0.053 C 
BRANCH   5   4
ATOM      1  C   UNL     1      46.623  14.081  16.934  0.00  0.00    +0.071 C 
ATOM      2  C   UNL     1      46.339  13.080  18.024  0.00  0.00    -0.131 C 
ATOM      3  C   UNL     1      44.991  13.064  18.699  0.00  0.00    +0.072 C 
ATOM      4  C   UNL     1      47.262  12.222  18.383  0.00  0.00    -0.062 C 
ENDBRANCH   5   4
ENDBRANCH   6   5
ENDBRANCH   7   6
ENDBRANCH  10   9
ENDBRANCH  11  10
TORSDOF 10
ENDMDL
MODEL 5
REMARK VINA RESULT:      -5.7      3.831      9.075
REMARK  Name = ZINC13378640
REMARK  13 active torsions:
REMARK  status: ('A' for Active; 'I' for Inactive)
REMARK    1  A    between atoms: C1_1  and  C2_2
REMARK    2  A    between atoms: C2_2  and  C25_33
REMARK    3  A    between atoms: C3_3  and  C4_4
REMARK    4  A    between atoms: C4_4  and  C5_5
REMARK    5  A    between atoms: C5_5  and  C6_6
REMARK    6  A    between atoms: C6_6  and  C24_32
REMARK    7  A    between atoms: C7_7  and  C8_8
REMARK    8  A    between atoms: C8_8  and  C9_9
REMARK    9  A    between atoms: C10_10  and  O6_31
REMARK   10  A    between atoms: C14_14  and  O1_15
REMARK   11  A    between atoms: C16_18  and  O5_30
REMARK   12  A    between atoms: C17_20  and  C18_23
REMARK   13  A    between atoms: C21_26  and  O4_29
REMARK                            x       y       z     vdW  Elec       q    Type
REMARK                         _______ _______ _______ _____ _____    ______ ____
ROOT
ATOM     11  C   UNL     1      46.347  16.132  19.694  0.00  0.00    -0.171 A 
ATOM     12  C   UNL     1      47.571  16.673  19.318  0.00  0.00    +0.200 A 
ATOM     15  C   UNL     1      48.372  16.031  18.382  0.00  0.00    -0.044 A 
ATOM     16  C   UNL     1      47.957  14.841  17.811  0.00  0.00    +0.203 A 
ATOM     17  C   UNL     1      46.716  14.294  18.185  0.00  0.00    -0.289 A 
ATOM     18  C   UNL     1      46.276  13.039  17.566  0.00  0.00    +0.371 C 
ATOM     19  C   UNL     1      47.319  12.267  16.777  0.00  0.00    +0.148 C 
ATOM     22  C   UNL     1      48.148  13.296  15.995  0.00  0.00    +0.252 C 
ATOM     31  O   UNL     1      45.135  12.638  17.678  0.00  0.00    -0.420 OA
ATOM     32  O   UNL     1      48.748  14.213  16.909  0.00  0.00    -0.289 OA
ATOM     33  C   UNL     1      45.915  14.942  19.139  0.00  0.00    +0.227 A 
ENDROOT
BRANCH  22  23
ATOM     23  C   UNL     1      49.225  12.585  15.216  0.00  0.00    -0.096 A 
ATOM     24  C   UNL     1      50.026  11.648  15.842  0.00  0.00    +0.055 A 
ATOM     25  C   UNL     1      51.009  10.991  15.129  0.00  0.00    -0.015 A 
ATOM     26  C   UNL     1      51.201  11.281  13.786  0.00  0.00    +0.118 A 
ATOM     29  C   UNL     1      50.400  12.226  13.161  0.00  0.00    -0.012 A 
ATOM     30  C   UNL     1      49.414  12.876  13.877  0.00  0.00    +0.064 A 
BRANCH  26  27
ATOM     27  O   UNL     1      52.172  10.640  13.083  0.00  0.00    -0.499 OA
ATOM     28  H   UNL     1      51.913  10.400  12.183  0.00  0.00    +0.394 HD
ENDBRANCH  26  27
ENDBRANCH  22  23
BRANCH  12  13
ATOM     13  O   UNL     1      47.987  17.841  19.870  0.00  0.00    -0.485 OA
ATOM     14  H   UNL     1      47.842  18.615  19.308  0.00  0.00    +0.402 HD
ENDBRANCH  12  13
BRANCH  19  20
ATOM     20  O   UNL     1      46.677  11.368  15.871  0.00  0.00    -0.534 OA
ATOM     21  H   UNL     1      45.910  10.913  16.245  0.00  0.00    +0.396 HD
ENDBRANCH  19  20
BRANCH  33  34
ATOM     34  O   UNL     1      44.726  14.407  19.509  0.00  0.00    -0.475 OA
ATOM     35  H   UNL     1      44.231  14.005  18.782  0.00  0.00    +0.402 HD
ENDBRANCH  33  34
BRANCH  11  10
ATOM     10  C   UNL     1      45.492  16.841  20.714  0.00  0.00    +0.129 C 
BRANCH  10   9
ATOM      7  C   UNL     1      43.522  18.280  20.622  0.00  0.00    -0.123 C 
ATOM      8  C   UNL     1      43.265  17.922  22.064  0.00  0.00    +0.075 C 
ATOM      9  C   UNL     1      44.591  17.826  20.015  0.00  0.00    -0.048 C 
BRANCH   7   6
ATOM      6  C   UNL     1      42.549  19.158  19.880  0.00  0.00    +0.059 C 
BRANCH   6   5
ATOM      5  C   UNL     1      43.312  20.046  18.894  0.00  0.00    +0.053 C 
BRANCH   5   4
ATOM      1  C   UNL     1      45.901  21.162  18.848  0.00  0.00    +0.071 C 
ATOM      2  C   UNL     1      44.778  21.886  19.547  0.00  0.00    -0.131 C 
ATOM      3  C   UNL     1      45.051  23.178  20.274  0.00  0.00    +0.072 C 
ATOM      4  C   UNL     1      43.565  21.392  19.523  0.00  0.00    -0.062 C 
ENDBRANCH   5   4
ENDBRANCH   6   5
ENDBRANCH   7   6
ENDBRANCH  10   9
ENDBRANCH  11  10
TORSDOF 10
ENDMDL
MODEL 6
REMARK VINA RESULT:      -5.6      3.463      4.892
REMARK  Name = ZINC13378640
REMARK  13 active torsions:
REMARK  status: ('A' for Active; 'I' for Inactive)
REMARK    1  A    between atoms: C1_1  and  C2_2
REMARK    2  A    between atoms: C2_2  and  C25_33
REMARK    3  A    between atoms: C3_3  and  C4_4
REMARK    4  A    between atoms: C4_4  and  C5_5
REMARK    5  A    between atoms: C5_5  and  C6_6
REMARK    6  A    between atoms: C6_6  and  C24_32
REMARK    7  A    between atoms: C7_7  and  C8_8
REMARK    8  A    between atoms: C8_8  and  C9_9
REMARK    9  A    between atoms: C10_10  and  O6_31
REMARK   10  A    between atoms: C14_14  and  O1_15
REMARK   11  A    between atoms: C16_18  and  O5_30
REMARK   12  A    between atoms: C17_20  and  C18_23
REMARK   13  A    between atoms: C21_26  and  O4_29
REMARK                            x       y       z     vdW  Elec       q    Type
REMARK                         _______ _______ _______ _____ _____    ______ ____
ROOT
ATOM     11  C   UNL     1      46.214  13.839  17.873  0.00  0.00    -0.171 A 
ATOM     12  C   UNL     1      46.588  14.795  16.936  0.00  0.00    +0.200 A 
ATOM     15  C   UNL     1      46.416  16.148  17.196  0.00  0.00    -0.044 A 
ATOM     16  C   UNL     1      45.868  16.562  18.397  0.00  0.00    +0.203 A 
ATOM     17  C   UNL     1      45.494  15.598  19.351  0.00  0.00    -0.289 A 
ATOM     18  C   UNL     1      44.925  16.043  20.628  0.00  0.00    +0.371 C 
ATOM     19  C   UNL     1      44.514  17.501  20.718  0.00  0.00    +0.148 C 
ATOM     22  C   UNL     1      45.592  18.322  19.994  0.00  0.00    +0.252 C 
ATOM     31  O   UNL     1      44.791  15.283  21.566  0.00  0.00    -0.420 OA
ATOM     32  O   UNL     1      45.691  17.882  18.640  0.00  0.00    -0.289 OA
ATOM     33  C   UNL     1      45.660  14.230  19.079  0.00  0.00    +0.227 A 
ENDROOT
BRANCH  22  23
ATOM     23  C   UNL     1      45.217  19.782  20.023  0.00  0.00    -0.096 A 
ATOM     24  C   UNL     1      46.074  20.703  20.597  0.00  0.00    +0.055 A 
ATOM     25  C   UNL     1      45.736  22.042  20.619  0.00  0.00    -0.015 A 
ATOM     26  C   UNL     1      44.530  22.460  20.076  0.00  0.00    +0.118 A 
ATOM     29  C   UNL     1      43.670  21.533  19.505  0.00  0.00    -0.012 A 
ATOM     30  C   UNL     1      44.015  20.196  19.481  0.00  0.00    +0.064 A 
BRANCH  26  27
ATOM     27  O   UNL     1      44.192  23.776  20.102  0.00  0.00    -0.499 OA
ATOM     28  H   UNL     1      43.801  24.099  19.279  0.00  0.00    +0.394 HD
ENDBRANCH  26  27
ENDBRANCH  22  23
BRANCH  12  13
ATOM     13  O   UNL     1      47.129  14.402  15.755  0.00  0.00    -0.485 OA
ATOM     14  H   UNL     1      47.063  15.063  15.053  0.00  0.00    +0.402 HD
ENDBRANCH  12  13
BRANCH  19  20
ATOM     20  O   UNL     1      44.436  17.901  22.087  0.00  0.00    -0.534 OA
ATOM     21  H   UNL     1      43.660  18.439  22.297  0.00  0.00    +0.396 HD
ENDBRANCH  19  20
BRANCH  33  34
ATOM     34  O   UNL     1      45.286  13.302  19.992  0.00  0.00    -0.475 OA
ATOM     35  H   UNL     1      44.861  13.671  20.778  0.00  0.00    +0.402 HD
ENDBRANCH  33  34
BRANCH  11  10
ATOM     10  C   UNL     1      46.406  12.375  17.573  0.00  0.00    +0.129 C 
BRANCH  10   9
ATOM      7  C   UNL     1      48.533  11.249  17.163  0.00  0.00    -0.123 C 
ATOM      8  C   UNL     1      48.050  10.969  15.763  0.00  0.00    +0.075 C 
ATOM      9  C   UNL     1      47.794  11.955  17.982  0.00  0.00    -0.048 C 
BRANCH   7   6
ATOM      6  C   UNL     1      49.866  10.715  17.620  0.00  0.00    +0.059 C 
BRANCH   6   5
ATOM      5  C   UNL     1      50.864  11.870  17.740  0.00  0.00    +0.053 C 
BRANCH   5   4
ATOM      1  C   UNL     1      50.559  14.386  16.505  0.00  0.00    +0.071 C 
ATOM      2  C   UNL     1      51.306  13.284  15.799  0.00  0.00    -0.131 C 
ATOM      3  C   UNL     1      51.838  13.507  14.406  0.00  0.00    +0.072 C 
ATOM      4  C   UNL     1      51.492  12.132  16.395  0.00  0.00    -0.062 C 
ENDBRANCH   5   4
ENDBRANCH   6   5
ENDBRANCH   7   6
ENDBRANCH  10   9
ENDBRANCH  11  10
TORSDOF 10
ENDMDL
MODEL 7
REMARK VINA RESULT:      -5.3      2.931      5.063
REMARK  Name = ZINC13378640
REMARK  13 active torsions:
REMARK  status: ('A' for Active; 'I' for Inactive)
REMARK    1  A    between atoms: C1_1  and  C2_2
REMARK    2  A    between atoms: C2_2  and  C25_33
REMARK    3  A    between atoms: C3_3  and  C4_4
REMARK    4  A    between atoms: C4_4  and  C5_5
REMARK    5  A    between atoms: C5_5  and  C6_6
REMARK    6  A    between atoms: C6_6  and  C24_32
REMARK    7  A    between atoms: C7_7  and  C8_8
REMARK    8  A    between atoms: C8_8  and  C9_9
REMARK    9  A    between atoms: C10_10  and  O6_31
REMARK   10  A    between atoms: C14_14  and  O1_15
REMARK   11  A    between atoms: C16_18  and  O5_30
REMARK   12  A    between atoms: C17_20  and  C18_23
REMARK   13  A    between atoms: C21_26  and  O4_29
REMARK                            x       y       z     vdW  Elec       q    Type
REMARK                         _______ _______ _______ _____ _____    ______ ____
ROOT
ATOM     11  C   UNL     1      50.415  16.758  17.311  0.00  0.00    -0.171 A 
ATOM     12  C   UNL     1      51.010  17.804  18.007  0.00  0.00    +0.200 A 
ATOM     15  C   UNL     1      50.238  18.712  18.719  0.00  0.00    -0.044 A 
ATOM     16  C   UNL     1      48.860  18.585  18.744  0.00  0.00    +0.203 A 
ATOM     17  C   UNL     1      48.254  17.524  18.046  0.00  0.00    -0.289 A 
ATOM     18  C   UNL     1      46.794  17.387  18.087  0.00  0.00    +0.371 C 
ATOM     19  C   UNL     1      46.016  18.565  18.643  0.00  0.00    +0.148 C 
ATOM     22  C   UNL     1      46.802  19.099  19.850  0.00  0.00    +0.252 C 
ATOM     31  O   UNL     1      46.237  16.382  17.695  0.00  0.00    -0.420 OA
ATOM     32  O   UNL     1      48.111  19.481  19.429  0.00  0.00    -0.289 OA
ATOM     33  C   UNL     1      49.039  16.615  17.318  0.00  0.00    +0.227 A 
ENDROOT
BRANCH  22  23
ATOM     23  C   UNL     1      46.089  20.296  20.426  0.00  0.00    -0.096 A 
ATOM     24  C   UNL     1      45.628  20.263  21.728  0.00  0.00    +0.055 A 
ATOM     25  C   UNL     1      44.979  21.361  22.260  0.00  0.00    -0.015 A 
ATOM     26  C   UNL     1      44.782  22.492  21.482  0.00  0.00    +0.118 A 
ATOM     29  C   UNL     1      45.242  22.521  20.173  0.00  0.00    -0.012 A 
ATOM     30  C   UNL     1      45.894  21.422  19.648  0.00  0.00    +0.064 A 
BRANCH  26  27
ATOM     27  O   UNL     1      44.139  23.572  22.001  0.00  0.00    -0.499 OA
ATOM     28  H   UNL     1      43.216  23.650  21.726  0.00  0.00    +0.394 HD
ENDBRANCH  26  27
ENDBRANCH  22  23
BRANCH  12  13
ATOM     13  O   UNL     1      52.360  17.937  17.991  0.00  0.00    -0.485 OA
ATOM     14  H   UNL     1      52.810  17.465  18.705  0.00  0.00    +0.402 HD
ENDBRANCH  12  13
BRANCH  19  20
ATOM     20  O   UNL     1      44.717  18.138  19.059  0.00  0.00    -0.534 OA
ATOM     21  H   UNL     1      44.561  17.190  18.950  0.00  0.00    +0.396 HD
ENDBRANCH  19  20
BRANCH  33  34
ATOM     34  O   UNL     1      48.454  15.602  16.634  0.00  0.00    -0.475 OA
ATOM     35  H   UNL     1      49.039  14.850  16.467  0.00  0.00    +0.402 HD
ENDBRANCH  33  34
BRANCH  11  10
ATOM     10  C   UNL     1      51.269  15.784  16.540  0.00  0.00    +0.129 C 
BRANCH  10   9
ATOM      7  C   UNL     1      51.238  13.366  16.878  0.00  0.00    -0.123 C 
ATOM      8  C   UNL     1      50.834  13.227  15.433  0.00  0.00    +0.075 C 
ATOM      9  C   UNL     1      51.499  14.550  17.374  0.00  0.00    -0.048 C 
BRANCH   7   6
ATOM      6  C   UNL     1      51.339  12.143  17.752  0.00  0.00    +0.059 C 
BRANCH   6   5
ATOM      5  C   UNL     1      50.394  12.290  18.947  0.00  0.00    +0.053 C 
BRANCH   5   4
ATOM      1  C   UNL     1      48.473  14.113  19.914  0.00  0.00    +0.071 C 
ATOM      2  C   UNL     1      48.064  13.019  18.961  0.00  0.00    -0.131 C 
ATOM      3  C   UNL     1      46.617  12.862  18.570  0.00  0.00    +0.072 C 
ATOM      4  C   UNL     1      48.966  12.205  18.471  0.00  0.00    -0.062 C 
ENDBRANCH   5   4
ENDBRANCH   6   5
ENDBRANCH   7   6
ENDBRANCH  10   9
ENDBRANCH  11  10
TORSDOF 10
ENDMDL
MODEL 8
REMARK VINA RESULT:      -5.3      3.579      9.302
REMARK  Name = ZINC13378640
REMARK  13 active torsions:
REMARK  status: ('A' for Active; 'I' for Inactive)
REMARK    1  A    between atoms: C1_1  and  C2_2
REMARK    2  A    between atoms: C2_2  and  C25_33
REMARK    3  A    between atoms: C3_3  and  C4_4
REMARK    4  A    between atoms: C4_4  and  C5_5
REMARK    5  A    between atoms: C5_5  and  C6_6
REMARK    6  A    between atoms: C6_6  and  C24_32
REMARK    7  A    between atoms: C7_7  and  C8_8
REMARK    8  A    between atoms: C8_8  and  C9_9
REMARK    9  A    between atoms: C10_10  and  O6_31
REMARK   10  A    between atoms: C14_14  and  O1_15
REMARK   11  A    between atoms: C16_18  and  O5_30
REMARK   12  A    between atoms: C17_20  and  C18_23
REMARK   13  A    between atoms: C21_26  and  O4_29
REMARK                            x       y       z     vdW  Elec       q    Type
REMARK                         _______ _______ _______ _____ _____    ______ ____
ROOT
ATOM     11  C   UNL     1      46.355  16.557  19.774  0.00  0.00    -0.171 A 
ATOM     12  C   UNL     1      47.549  17.095  19.310  0.00  0.00    +0.200 A 
ATOM     15  C   UNL     1      48.328  16.402  18.391  0.00  0.00    -0.044 A 
ATOM     16  C   UNL     1      47.921  15.165  17.926  0.00  0.00    +0.203 A 
ATOM     17  C   UNL     1      46.710  14.620  18.390  0.00  0.00    -0.289 A 
ATOM     18  C   UNL     1      46.277  13.313  17.883  0.00  0.00    +0.371 C 
ATOM     19  C   UNL     1      47.306  12.508  17.111  0.00  0.00    +0.148 C 
ATOM     22  C   UNL     1      48.079  13.493  16.222  0.00  0.00    +0.252 C 
ATOM     31  O   UNL     1      45.152  12.897  18.071  0.00  0.00    -0.420 OA
ATOM     32  O   UNL     1      48.692  14.489  17.041  0.00  0.00    -0.289 OA
ATOM     33  C   UNL     1      45.931  15.319  19.326  0.00  0.00    +0.227 A 
ENDROOT
BRANCH  22  23
ATOM     23  C   UNL     1      49.142  12.750  15.453  0.00  0.00    -0.096 A 
ATOM     24  C   UNL     1      49.182  12.834  14.074  0.00  0.00    +0.055 A 
ATOM     25  C   UNL     1      50.158  12.159  13.368  0.00  0.00    -0.015 A 
ATOM     26  C   UNL     1      51.093  11.388  14.043  0.00  0.00    +0.118 A 
ATOM     29  C   UNL     1      51.048  11.302  15.428  0.00  0.00    -0.012 A 
ATOM     30  C   UNL     1      50.073  11.983  16.129  0.00  0.00    +0.064 A 
BRANCH  26  27
ATOM     27  O   UNL     1      52.051  10.718  13.351  0.00  0.00    -0.499 OA
ATOM     28  H   UNL     1      51.726  10.279  12.553  0.00  0.00    +0.394 HD
ENDBRANCH  26  27
ENDBRANCH  22  23
BRANCH  12  13
ATOM     13  O   UNL     1      47.958  18.308  19.757  0.00  0.00    -0.485 OA
ATOM     14  H   UNL     1      47.237  18.880  20.056  0.00  0.00    +0.402 HD
ENDBRANCH  12  13
BRANCH  19  20
ATOM     20  O   UNL     1      46.652  11.530  16.300  0.00  0.00    -0.534 OA
ATOM     21  H   UNL     1      47.251  10.891  15.893  0.00  0.00    +0.396 HD
ENDBRANCH  19  20
BRANCH  33  34
ATOM     34  O   UNL     1      44.771  14.787  19.782  0.00  0.00    -0.475 OA
ATOM     35  H   UNL     1      44.769  14.603  20.732  0.00  0.00    +0.402 HD
ENDBRANCH  33  34
BRANCH  11  10
ATOM     10  C   UNL     1      45.523  17.321  20.773  0.00  0.00    +0.129 C 
BRANCH  10   9
ATOM      7  C   UNL     1      44.747  19.620  20.507  0.00  0.00    -0.123 C 
ATOM      8  C   UNL     1      45.649  19.997  21.654  0.00  0.00    +0.075 C 
ATOM      9  C   UNL     1      44.736  18.389  20.059  0.00  0.00    -0.048 C 
BRANCH   7   6
ATOM      6  C   UNL     1      43.857  20.660  19.876  0.00  0.00    +0.059 C 
BRANCH   6   5
ATOM      5  C   UNL     1      43.031  20.016  18.761  0.00  0.00    +0.053 C 
BRANCH   5   4
ATOM      1  C   UNL     1      40.646  19.666  20.225  0.00  0.00    +0.071 C 
ATOM      2  C   UNL     1      40.706  20.678  19.110  0.00  0.00    -0.131 C 
ATOM      3  C   UNL     1      39.474  21.462  18.737  0.00  0.00    +0.072 C 
ATOM      4  C   UNL     1      41.829  20.877  18.465  0.00  0.00    -0.062 C 
ENDBRANCH   5   4
ENDBRANCH   6   5
ENDBRANCH   7   6
ENDBRANCH  10   9
ENDBRANCH  11  10
TORSDOF 10
ENDMDL
MODEL 9
REMARK VINA RESULT:      -5.3      4.988      9.725
REMARK  Name = ZINC13378640
REMARK  13 active torsions:
REMARK  status: ('A' for Active; 'I' for Inactive)
REMARK    1  A    between atoms: C1_1  and  C2_2
REMARK    2  A    between atoms: C2_2  and  C25_33
REMARK    3  A    between atoms: C3_3  and  C4_4
REMARK    4  A    between atoms: C4_4  and  C5_5
REMARK    5  A    between atoms: C5_5  and  C6_6
REMARK    6  A    between atoms: C6_6  and  C24_32
REMARK    7  A    between atoms: C7_7  and  C8_8
REMARK    8  A    between atoms: C8_8  and  C9_9
REMARK    9  A    between atoms: C10_10  and  O6_31
REMARK   10  A    between atoms: C14_14  and  O1_15
REMARK   11  A    between atoms: C16_18  and  O5_30
REMARK   12  A    between atoms: C17_20  and  C18_23
REMARK   13  A    between atoms: C21_26  and  O4_29
REMARK                            x       y       z     vdW  Elec       q    Type
REMARK                         _______ _______ _______ _____ _____    ______ ____
ROOT
ATOM     11  C   UNL     1      48.394  14.115  17.942  0.00  0.00    -0.171 A 
ATOM     12  C   UNL     1      47.477  14.075  16.898  0.00  0.00    +0.200 A 
ATOM     15  C   UNL     1      47.855  13.622  15.641  0.00  0.00    -0.044 A 
ATOM     16  C   UNL     1      49.154  13.203  15.413  0.00  0.00    +0.203 A 
ATOM     17  C   UNL     1      50.083  13.238  16.469  0.00  0.00    -0.289 A 
ATOM     18  C   UNL     1      51.456  12.781  16.224  0.00  0.00    +0.371 C 
ATOM     19  C   UNL     1      51.855  12.572  14.775  0.00  0.00    +0.148 C 
ATOM     22  C   UNL     1      50.659  11.923  14.063  0.00  0.00    +0.252 C 
ATOM     31  O   UNL     1      52.233  12.579  17.135  0.00  0.00    -0.420 OA
ATOM     32  O   UNL     1      49.519  12.775  14.181  0.00  0.00    -0.289 OA
ATOM     33  C   UNL     1      49.699  13.706  17.735  0.00  0.00    +0.227 A 
ENDROOT
BRANCH  22  23
ATOM     23  C   UNL     1      50.988  11.722  12.606  0.00  0.00    -0.096 A 
ATOM     24  C   UNL     1      51.342  10.467  12.146  0.00  0.00    +0.055 A 
ATOM     25  C   UNL     1      51.639  10.279  10.810  0.00  0.00    -0.015 A 
ATOM     26  C   UNL     1      51.591  11.352   9.933  0.00  0.00    +0.118 A 
ATOM     29  C   UNL     1      51.240  12.612  10.398  0.00  0.00    -0.012 A 
ATOM     30  C   UNL     1      50.940  12.793  11.734  0.00  0.00    +0.064 A 
BRANCH  26  27
ATOM     27  O   UNL     1      51.888  11.171   8.619  0.00  0.00    -0.499 OA
ATOM     28  H   UNL     1      51.155  11.366   8.019  0.00  0.00    +0.394 HD
ENDBRANCH  26  27
ENDBRANCH  22  23
BRANCH  12  13
ATOM     13  O   UNL     1      46.200  14.480  17.110  0.00  0.00    -0.485 OA
ATOM     14  H   UNL     1      45.639  14.437  16.324  0.00  0.00    +0.402 HD
ENDBRANCH  12  13
BRANCH  19  20
ATOM     20  O   UNL     1      52.991  11.709  14.702  0.00  0.00    -0.534 OA
ATOM     21  H   UNL     1      53.249  11.472  13.802  0.00  0.00    +0.396 HD
ENDBRANCH  19  20
BRANCH  33  34
ATOM     34  O   UNL     1      50.598  13.753  18.748  0.00  0.00    -0.475 OA
ATOM     35  H   UNL     1      51.484  13.450  18.503  0.00  0.00    +0.402 HD
ENDBRANCH  33  34
BRANCH  11  10
ATOM     10  C   UNL     1      47.968  14.613  19.300  0.00  0.00    +0.129 C 
BRANCH  10   9
ATOM      7  C   UNL     1      48.782  16.667  20.336  0.00  0.00    -0.123 C 
ATOM      8  C   UNL     1      49.513  15.807  21.334  0.00  0.00    +0.075 C 
ATOM      9  C   UNL     1      48.116  16.111  19.355  0.00  0.00    -0.048 C 
BRANCH   7   6
ATOM      6  C   UNL     1      48.819  18.168  20.467  0.00  0.00    +0.059 C 
BRANCH   6   5
ATOM      5  C   UNL     1      48.795  18.803  19.075  0.00  0.00    +0.053 C 
BRANCH   5   4
ATOM      1  C   UNL     1      50.416  17.703  17.047  0.00  0.00    +0.071 C 
ATOM      2  C   UNL     1      50.918  18.862  17.870  0.00  0.00    -0.131 C 
ATOM      3  C   UNL     1      52.310  19.395  17.649  0.00  0.00    +0.072 C 
ATOM      4  C   UNL     1      50.144  19.406  18.776  0.00  0.00    -0.062 C 
ENDBRANCH   5   4
ENDBRANCH   6   5
ENDBRANCH   7   6
ENDBRANCH  10   9
ENDBRANCH  11  10
TORSDOF 10
ENDMDL
