MODEL 1
REMARK VINA RESULT:      -7.7      0.000      0.000
REMARK  Name = ZINC95486082
REMARK  8 active torsions:
REMARK  status: ('A' for Active; 'I' for Inactive)
REMARK    1  A    between atoms: C1_1  and  C2_2
REMARK    2  A    between atoms: C2_2  and  C25_30
REMARK    3  A    between atoms: C3_3  and  C4_4
REMARK    4  A    between atoms: C4_4  and  C5_5
REMARK    5  A    between atoms: C7_7  and  C16_17
REMARK    6  A    between atoms: C11_12  and  C14_15
REMARK    7  A    between atoms: C11_12  and  C15_16
REMARK    8  A    between atoms: C22_25  and  O4_29
REMARK                            x       y       z     vdW  Elec       q    Type
REMARK                         _______ _______ _______ _____ _____    ______ ____
ROOT
ATOM      6  C   UNL     1      48.014  18.272  18.122  0.00  0.00    -0.103 A 
ATOM      7  C   UNL     1      46.729  18.430  18.598  0.00  0.00    +0.078 A 
ATOM      8  C   UNL     1      46.472  19.344  19.603  0.00  0.00    -0.123 A 
ATOM     22  C   UNL     1      47.502  20.100  20.128  0.00  0.00    +0.056 A 
ATOM     23  C   UNL     1      48.794  19.947  19.653  0.00  0.00    -0.157 A 
ATOM     24  C   UNL     1      49.891  20.794  20.247  0.00  0.00    +0.085 C 
ATOM     25  C   UNL     1      51.253  20.162  19.936  0.00  0.00    +0.016 C 
ATOM     26  C   UNL     1      51.291  19.834  18.437  0.00  0.00    +0.111 C 
ATOM     27  C   UNL     1      52.678  19.309  18.060  0.00  0.00    +0.074 C 
ATOM     28  C   UNL     1      50.977  21.092  17.625  0.00  0.00    +0.029 C 
ATOM     29  O   UNL     1      50.310  18.830  18.171  0.00  0.00    -0.300 OA
ATOM     30  C   UNL     1      49.055  19.026  18.653  0.00  0.00    +0.153 A 
ENDROOT
BRANCH   8   9
ATOM      9  C   UNL     1      45.069  19.516  20.124  0.00  0.00    +0.241 C 
ATOM     10  C   UNL     1      44.480  18.141  20.473  0.00  0.00    +0.037 C 
ATOM     11  C   UNL     1      43.060  18.371  20.960  0.00  0.00    +0.402 C 
ATOM     12  C   UNL     1      42.273  19.382  20.237  0.00  0.00    -0.265 A 
ATOM     13  C   UNL     1      40.894  19.489  20.437  0.00  0.00    +0.134 A 
ATOM     14  C   UNL     1      40.182  20.439  19.762  0.00  0.00    -0.051 A 
ATOM     15  C   UNL     1      40.824  21.298  18.874  0.00  0.00    +0.181 A 
ATOM     18  C   UNL     1      42.193  21.202  18.663  0.00  0.00    -0.045 A 
ATOM     19  C   UNL     1      42.929  20.241  19.338  0.00  0.00    +0.201 A 
ATOM     20  O   UNL     1      42.599  17.753  21.897  0.00  0.00    -0.442 OA
ATOM     21  O   UNL     1      44.261  20.137  19.125  0.00  0.00    -0.299 OA
BRANCH  15  16
ATOM     16  O   UNL     1      40.107  22.239  18.210  0.00  0.00    -0.494 OA
ATOM     17  H   UNL     1      40.404  23.145  18.370  0.00  0.00    +0.401 HD
ENDBRANCH  15  16
ENDBRANCH   8   9
BRANCH   6   5
ATOM      5  C   UNL     1      48.292  17.275  17.026  0.00  0.00    +0.118 C 
BRANCH   5   4
ATOM      1  C   UNL     1      49.113  14.577  16.986  0.00  0.00    +0.072 C 
ATOM      2  C   UNL     1      47.645  14.922  16.999  0.00  0.00    -0.135 C 
ATOM      3  C   UNL     1      46.614  13.825  16.924  0.00  0.00    +0.071 C 
ATOM      4  C   UNL     1      47.266  16.174  17.076  0.00  0.00    -0.044 C 
ENDBRANCH   5   4
ENDBRANCH   6   5
TORSDOF 4
ENDMDL
MODEL 2
REMARK VINA RESULT:      -7.2      2.361      5.371
REMARK  Name = ZINC95486082
REMARK  8 active torsions:
REMARK  status: ('A' for Active; 'I' for Inactive)
REMARK    1  A    between atoms: C1_1  and  C2_2
REMARK    2  A    between atoms: C2_2  and  C25_30
REMARK    3  A    between atoms: C3_3  and  C4_4
REMARK    4  A    between atoms: C4_4  and  C5_5
REMARK    5  A    between atoms: C7_7  and  C16_17
REMARK    6  A    between atoms: C11_12  and  C14_15
REMARK    7  A    between atoms: C11_12  and  C15_16
REMARK    8  A    between atoms: C22_25  and  O4_29
REMARK                            x       y       z     vdW  Elec       q    Type
REMARK                         _______ _______ _______ _____ _____    ______ ____
ROOT
ATOM      6  C   UNL     1      49.276  16.934  17.836  0.00  0.00    -0.103 A 
ATOM      7  C   UNL     1      48.487  17.884  18.450  0.00  0.00    +0.078 A 
ATOM      8  C   UNL     1      47.123  17.686  18.555  0.00  0.00    -0.123 A 
ATOM     22  C   UNL     1      46.551  16.536  18.047  0.00  0.00    +0.056 A 
ATOM     23  C   UNL     1      47.339  15.578  17.430  0.00  0.00    -0.157 A 
ATOM     24  C   UNL     1      46.679  14.333  16.892  0.00  0.00    +0.085 C 
ATOM     25  C   UNL     1      47.608  13.659  15.874  0.00  0.00    +0.016 C 
ATOM     26  C   UNL     1      49.003  13.553  16.505  0.00  0.00    +0.111 C 
ATOM     27  C   UNL     1      49.934  12.779  15.569  0.00  0.00    +0.074 C 
ATOM     28  C   UNL     1      48.907  12.830  17.850  0.00  0.00    +0.029 C 
ATOM     29  O   UNL     1      49.510  14.874  16.702  0.00  0.00    -0.300 OA
ATOM     30  C   UNL     1      48.703  15.778  17.315  0.00  0.00    +0.153 A 
ENDROOT
BRANCH   8   9
ATOM      9  C   UNL     1      46.260  18.724  19.225  0.00  0.00    +0.241 C 
ATOM     10  C   UNL     1      45.224  19.254  18.223  0.00  0.00    +0.037 C 
ATOM     11  C   UNL     1      44.407  20.315  18.938  0.00  0.00    +0.402 C 
ATOM     12  C   UNL     1      45.146  21.223  19.830  0.00  0.00    -0.265 A 
ATOM     13  C   UNL     1      44.541  22.377  20.333  0.00  0.00    +0.134 A 
ATOM     14  C   UNL     1      45.241  23.204  21.165  0.00  0.00    -0.051 A 
ATOM     15  C   UNL     1      46.556  22.901  21.510  0.00  0.00    +0.181 A 
ATOM     18  C   UNL     1      47.171  21.759  21.017  0.00  0.00    -0.045 A 
ATOM     19  C   UNL     1      46.475  20.912  20.169  0.00  0.00    +0.201 A 
ATOM     20  O   UNL     1      43.208  20.409  18.784  0.00  0.00    -0.442 OA
ATOM     21  O   UNL     1      47.076  19.804  19.677  0.00  0.00    -0.299 OA
BRANCH  15  16
ATOM     16  O   UNL     1      47.242  23.728  22.339  0.00  0.00    -0.494 OA
ATOM     17  H   UNL     1      48.190  23.544  22.383  0.00  0.00    +0.401 HD
ENDBRANCH  15  16
ENDBRANCH   8   9
BRANCH   6   5
ATOM      5  C   UNL     1      50.763  17.152  17.722  0.00  0.00    +0.118 C 
BRANCH   5   4
ATOM      1  C   UNL     1      52.490  19.327  18.210  0.00  0.00    +0.072 C 
ATOM      2  C   UNL     1      51.799  19.194  16.878  0.00  0.00    -0.135 C 
ATOM      3  C   UNL     1      51.979  20.260  15.826  0.00  0.00    +0.071 C 
ATOM      4  C   UNL     1      51.043  18.152  16.632  0.00  0.00    -0.044 C 
ENDBRANCH   5   4
ENDBRANCH   6   5
TORSDOF 4
ENDMDL
MODEL 3
REMARK VINA RESULT:      -7.0      2.071      4.999
REMARK  Name = ZINC95486082
REMARK  8 active torsions:
REMARK  status: ('A' for Active; 'I' for Inactive)
REMARK    1  A    between atoms: C1_1  and  C2_2
REMARK    2  A    between atoms: C2_2  and  C25_30
REMARK    3  A    between atoms: C3_3  and  C4_4
REMARK    4  A    between atoms: C4_4  and  C5_5
REMARK    5  A    between atoms: C7_7  and  C16_17
REMARK    6  A    between atoms: C11_12  and  C14_15
REMARK    7  A    between atoms: C11_12  and  C15_16
REMARK    8  A    between atoms: C22_25  and  O4_29
REMARK                            x       y       z     vdW  Elec       q    Type
REMARK                         _______ _______ _______ _____ _____    ______ ____
ROOT
ATOM      6  C   UNL     1      50.157  16.516  17.560  0.00  0.00    -0.103 A 
ATOM      7  C   UNL     1      49.169  17.075  18.343  0.00  0.00    +0.078 A 
ATOM      8  C   UNL     1      47.952  16.434  18.482  0.00  0.00    -0.123 A 
ATOM     22  C   UNL     1      47.728  15.232  17.839  0.00  0.00    +0.056 A 
ATOM     23  C   UNL     1      48.717  14.665  17.053  0.00  0.00    -0.157 A 
ATOM     24  C   UNL     1      48.438  13.349  16.371  0.00  0.00    +0.085 C 
ATOM     25  C   UNL     1      49.434  13.144  15.224  0.00  0.00    +0.016 C 
ATOM     26  C   UNL     1      50.843  13.420  15.765  0.00  0.00    +0.111 C 
ATOM     27  C   UNL     1      51.880  13.112  14.683  0.00  0.00    +0.074 C 
ATOM     28  C   UNL     1      51.104  12.547  16.994  0.00  0.00    +0.029 C 
ATOM     29  O   UNL     1      50.923  14.799  16.128  0.00  0.00    -0.300 OA
ATOM     30  C   UNL     1      49.933  15.310  16.904  0.00  0.00    +0.153 A 
ENDROOT
BRANCH   8   9
ATOM      9  C   UNL     1      46.872  17.044  19.336  0.00  0.00    +0.241 C 
ATOM     10  C   UNL     1      45.902  15.947  19.798  0.00  0.00    +0.037 C 
ATOM     11  C   UNL     1      44.821  16.620  20.624  0.00  0.00    +0.402 C 
ATOM     12  C   UNL     1      44.333  17.919  20.135  0.00  0.00    -0.265 A 
ATOM     13  C   UNL     1      43.178  18.496  20.671  0.00  0.00    +0.134 A 
ATOM     14  C   UNL     1      42.746  19.705  20.208  0.00  0.00    -0.051 A 
ATOM     15  C   UNL     1      43.449  20.364  19.202  0.00  0.00    +0.181 A 
ATOM     18  C   UNL     1      44.595  19.803  18.658  0.00  0.00    -0.045 A 
ATOM     19  C   UNL     1      45.046  18.575  19.115  0.00  0.00    +0.201 A 
ATOM     20  O   UNL     1      44.383  16.115  21.636  0.00  0.00    -0.442 OA
ATOM     21  O   UNL     1      46.157  18.020  18.578  0.00  0.00    -0.299 OA
BRANCH  15  16
ATOM     16  O   UNL     1      43.011  21.566  18.751  0.00  0.00    -0.494 OA
ATOM     17  H   UNL     1      42.303  21.953  19.285  0.00  0.00    +0.401 HD
ENDBRANCH  15  16
ENDBRANCH   8   9
BRANCH   6   5
ATOM      5  C   UNL     1      51.483  17.217  17.408  0.00  0.00    +0.118 C 
BRANCH   5   4
ATOM      1  C   UNL     1      52.658  19.649  18.221  0.00  0.00    +0.072 C 
ATOM      2  C   UNL     1      51.800  19.600  16.982  0.00  0.00    -0.135 C 
ATOM      3  C   UNL     1      51.516  20.865  16.213  0.00  0.00    +0.071 C 
ATOM      4  C   UNL     1      51.303  18.459  16.574  0.00  0.00    -0.044 C 
ENDBRANCH   5   4
ENDBRANCH   6   5
TORSDOF 4
ENDMDL
MODEL 4
REMARK VINA RESULT:      -6.8      2.938      7.196
REMARK  Name = ZINC95486082
REMARK  8 active torsions:
REMARK  status: ('A' for Active; 'I' for Inactive)
REMARK    1  A    between atoms: C1_1  and  C2_2
REMARK    2  A    between atoms: C2_2  and  C25_30
REMARK    3  A    between atoms: C3_3  and  C4_4
REMARK    4  A    between atoms: C4_4  and  C5_5
REMARK    5  A    between atoms: C7_7  and  C16_17
REMARK    6  A    between atoms: C11_12  and  C14_15
REMARK    7  A    between atoms: C11_12  and  C15_16
REMARK    8  A    between atoms: C22_25  and  O4_29
REMARK                            x       y       z     vdW  Elec       q    Type
REMARK                         _______ _______ _______ _____ _____    ______ ____
ROOT
ATOM      6  C   UNL     1      48.890  19.725  19.433  0.00  0.00    -0.103 A 
ATOM      7  C   UNL     1      49.153  18.456  18.960  0.00  0.00    +0.078 A 
ATOM      8  C   UNL     1      48.166  17.489  18.990  0.00  0.00    -0.123 A 
ATOM     22  C   UNL     1      46.916  17.795  19.491  0.00  0.00    +0.056 A 
ATOM     23  C   UNL     1      46.645  19.067  19.967  0.00  0.00    -0.157 A 
ATOM     24  C   UNL     1      45.267  19.365  20.502  0.00  0.00    +0.085 C 
ATOM     25  C   UNL     1      45.317  20.624  21.375  0.00  0.00    +0.016 C 
ATOM     26  C   UNL     1      46.066  21.712  20.595  0.00  0.00    +0.111 C 
ATOM     27  C   UNL     1      46.035  23.024  21.382  0.00  0.00    +0.074 C 
ATOM     28  C   UNL     1      45.407  21.915  19.230  0.00  0.00    +0.029 C 
ATOM     29  O   UNL     1      47.419  21.289  20.419  0.00  0.00    -0.300 OA
ATOM     30  C   UNL     1      47.635  20.035  19.947  0.00  0.00    +0.153 A 
ENDROOT
BRANCH   8   9
ATOM      9  C   UNL     1      48.453  16.102  18.474  0.00  0.00    +0.241 C 
ATOM     10  C   UNL     1      49.532  16.175  17.385  0.00  0.00    +0.037 C 
ATOM     11  C   UNL     1      49.758  14.761  16.880  0.00  0.00    +0.402 C 
ATOM     12  C   UNL     1      48.560  13.922  16.719  0.00  0.00    -0.265 A 
ATOM     13  C   UNL     1      48.627  12.707  16.031  0.00  0.00    +0.134 A 
ATOM     14  C   UNL     1      47.505  11.940  15.898  0.00  0.00    -0.051 A 
ATOM     15  C   UNL     1      46.296  12.364  16.444  0.00  0.00    +0.181 A 
ATOM     18  C   UNL     1      46.214  13.568  17.128  0.00  0.00    -0.045 A 
ATOM     19  C   UNL     1      47.342  14.360  17.268  0.00  0.00    +0.201 A 
ATOM     20  O   UNL     1      50.868  14.344  16.624  0.00  0.00    -0.442 OA
ATOM     21  O   UNL     1      47.262  15.541  17.924  0.00  0.00    -0.299 OA
BRANCH  15  16
ATOM     16  O   UNL     1      45.189  11.592  16.308  0.00  0.00    -0.494 OA
ATOM     17  H   UNL     1      44.435  11.887  16.836  0.00  0.00    +0.401 HD
ENDBRANCH  15  16
ENDBRANCH   8   9
BRANCH   6   5
ATOM      5  C   UNL     1      49.968  20.778  19.400  0.00  0.00    +0.118 C 
BRANCH   5   4
ATOM      1  C   UNL     1      52.465  19.952  18.381  0.00  0.00    +0.072 C 
ATOM      2  C   UNL     1      51.519  20.743  17.515  0.00  0.00    -0.135 C 
ATOM      3  C   UNL     1      51.933  21.151  16.124  0.00  0.00    +0.071 C 
ATOM      4  C   UNL     1      50.336  21.076  17.970  0.00  0.00    -0.044 C 
ENDBRANCH   5   4
ENDBRANCH   6   5
TORSDOF 4
ENDMDL
MODEL 5
REMARK VINA RESULT:      -6.8      3.026      7.858
REMARK  Name = ZINC95486082
REMARK  8 active torsions:
REMARK  status: ('A' for Active; 'I' for Inactive)
REMARK    1  A    between atoms: C1_1  and  C2_2
REMARK    2  A    between atoms: C2_2  and  C25_30
REMARK    3  A    between atoms: C3_3  and  C4_4
REMARK    4  A    between atoms: C4_4  and  C5_5
REMARK    5  A    between atoms: C7_7  and  C16_17
REMARK    6  A    between atoms: C11_12  and  C14_15
REMARK    7  A    between atoms: C11_12  and  C15_16
REMARK    8  A    between atoms: C22_25  and  O4_29
REMARK                            x       y       z     vdW  Elec       q    Type
REMARK                         _______ _______ _______ _____ _____    ______ ____
ROOT
ATOM      6  C   UNL     1      48.785  17.991  18.553  0.00  0.00    -0.103 A 
ATOM      7  C   UNL     1      48.673  16.823  17.827  0.00  0.00    +0.078 A 
ATOM      8  C   UNL     1      47.426  16.275  17.588  0.00  0.00    -0.123 A 
ATOM     22  C   UNL     1      46.294  16.900  18.072  0.00  0.00    +0.056 A 
ATOM     23  C   UNL     1      46.400  18.073  18.801  0.00  0.00    -0.157 A 
ATOM     24  C   UNL     1      45.141  18.728  19.309  0.00  0.00    +0.085 C 
ATOM     25  C   UNL     1      45.490  19.704  20.440  0.00  0.00    +0.016 C 
ATOM     26  C   UNL     1      46.651  20.586  19.962  0.00  0.00    +0.111 C 
ATOM     27  C   UNL     1      46.954  21.653  21.016  0.00  0.00    +0.074 C 
ATOM     28  C   UNL     1      46.278  21.259  18.640  0.00  0.00    +0.029 C 
ATOM     29  O   UNL     1      47.799  19.757  19.774  0.00  0.00    -0.300 OA
ATOM     30  C   UNL     1      47.648  18.618  19.050  0.00  0.00    +0.153 A 
ENDROOT
BRANCH   8   9
ATOM      9  C   UNL     1      47.303  14.999  16.796  0.00  0.00    +0.241 C 
ATOM     10  C   UNL     1      46.532  13.958  17.620  0.00  0.00    +0.037 C 
ATOM     11  C   UNL     1      46.466  12.687  16.791  0.00  0.00    +0.402 C 
ATOM     12  C   UNL     1      47.681  12.327  16.043  0.00  0.00    -0.265 A 
ATOM     13  C   UNL     1      47.811  11.064  15.460  0.00  0.00    +0.134 A 
ATOM     14  C   UNL     1      48.944  10.751  14.764  0.00  0.00    -0.051 A 
ATOM     15  C   UNL     1      49.969  11.685  14.635  0.00  0.00    +0.181 A 
ATOM     18  C   UNL     1      49.855  12.943  15.211  0.00  0.00    -0.045 A 
ATOM     19  C   UNL     1      48.713  13.274  15.923  0.00  0.00    +0.201 A 
ATOM     20  O   UNL     1      45.464  12.005  16.747  0.00  0.00    -0.442 OA
ATOM     21  O   UNL     1      48.604  14.495  16.496  0.00  0.00    -0.299 OA
BRANCH  15  16
ATOM     16  O   UNL     1      51.088  11.365  13.939  0.00  0.00    -0.494 OA
ATOM     17  H   UNL     1      51.362  12.038  13.302  0.00  0.00    +0.401 HD
ENDBRANCH  15  16
ENDBRANCH   8   9
BRANCH   6   5
ATOM      5  C   UNL     1      50.145  18.585  18.813  0.00  0.00    +0.118 C 
BRANCH   5   4
ATOM      1  C   UNL     1      51.230  21.187  18.906  0.00  0.00    +0.072 C 
ATOM      2  C   UNL     1      51.110  20.464  17.589  0.00  0.00    -0.135 C 
ATOM      3  C   UNL     1      51.510  21.156  16.311  0.00  0.00    +0.071 C 
ATOM      4  C   UNL     1      50.660  19.234  17.555  0.00  0.00    -0.044 C 
ENDBRANCH   5   4
ENDBRANCH   6   5
TORSDOF 4
ENDMDL
MODEL 6
REMARK VINA RESULT:      -6.7      2.706      6.612
REMARK  Name = ZINC95486082
REMARK  8 active torsions:
REMARK  status: ('A' for Active; 'I' for Inactive)
REMARK    1  A    between atoms: C1_1  and  C2_2
REMARK    2  A    between atoms: C2_2  and  C25_30
REMARK    3  A    between atoms: C3_3  and  C4_4
REMARK    4  A    between atoms: C4_4  and  C5_5
REMARK    5  A    between atoms: C7_7  and  C16_17
REMARK    6  A    between atoms: C11_12  and  C14_15
REMARK    7  A    between atoms: C11_12  and  C15_16
REMARK    8  A    between atoms: C22_25  and  O4_29
REMARK                            x       y       z     vdW  Elec       q    Type
REMARK                         _______ _______ _______ _____ _____    ______ ____
ROOT
ATOM      6  C   UNL     1      47.453  19.597  19.209  0.00  0.00    -0.103 A 
ATOM      7  C   UNL     1      47.211  18.306  18.786  0.00  0.00    +0.078 A 
ATOM      8  C   UNL     1      46.007  17.696  19.082  0.00  0.00    -0.123 A 
ATOM     22  C   UNL     1      45.045  18.380  19.800  0.00  0.00    +0.056 A 
ATOM     23  C   UNL     1      45.282  19.676  20.227  0.00  0.00    -0.157 A 
ATOM     24  C   UNL     1      44.206  20.392  21.004  0.00  0.00    +0.085 C 
ATOM     25  C   UNL     1      44.820  21.579  21.757  0.00  0.00    +0.016 C 
ATOM     26  C   UNL     1      45.681  22.374  20.766  0.00  0.00    +0.111 C 
ATOM     27  C   UNL     1      46.218  23.634  21.447  0.00  0.00    +0.074 C 
ATOM     28  C   UNL     1      44.839  22.763  19.549  0.00  0.00    +0.029 C 
ATOM     29  O   UNL     1      46.771  21.548  20.354  0.00  0.00    -0.300 OA
ATOM     30  C   UNL     1      46.491  20.286  19.940  0.00  0.00    +0.153 A 
ENDROOT
BRANCH   8   9
ATOM      9  C   UNL     1      45.743  16.286  18.621  0.00  0.00    +0.241 C 
ATOM     10  C   UNL     1      45.702  15.349  19.836  0.00  0.00    +0.037 C 
ATOM     11  C   UNL     1      45.466  13.943  19.313  0.00  0.00    +0.402 C 
ATOM     12  C   UNL     1      46.181  13.572  18.082  0.00  0.00    -0.265 A 
ATOM     13  C   UNL     1      46.233  12.241  17.660  0.00  0.00    +0.134 A 
ATOM     14  C   UNL     1      46.896  11.918  16.511  0.00  0.00    -0.051 A 
ATOM     15  C   UNL     1      47.521  12.910  15.759  0.00  0.00    +0.181 A 
ATOM     18  C   UNL     1      47.480  14.236  16.166  0.00  0.00    -0.045 A 
ATOM     19  C   UNL     1      46.815  14.579  17.331  0.00  0.00    +0.201 A 
ATOM     20  O   UNL     1      44.726  13.166  19.879  0.00  0.00    -0.442 OA
ATOM     21  O   UNL     1      46.783  15.870  17.737  0.00  0.00    -0.299 OA
BRANCH  15  16
ATOM     16  O   UNL     1      48.175  12.577  14.618  0.00  0.00    -0.494 OA
ATOM     17  H   UNL     1      48.953  12.021  14.757  0.00  0.00    +0.401 HD
ENDBRANCH  15  16
ENDBRANCH   8   9
BRANCH   6   5
ATOM      5  C   UNL     1      48.767  20.260  18.885  0.00  0.00    +0.118 C 
BRANCH   5   4
ATOM      1  C   UNL     1      51.152  21.034  17.595  0.00  0.00    +0.072 C 
ATOM      2  C   UNL     1      50.844  19.574  17.802  0.00  0.00    -0.135 C 
ATOM      3  C   UNL     1      51.779  18.522  17.261  0.00  0.00    +0.071 C 
ATOM      4  C   UNL     1      49.764  19.217  18.453  0.00  0.00    -0.044 C 
ENDBRANCH   5   4
ENDBRANCH   6   5
TORSDOF 4
ENDMDL
MODEL 7
REMARK VINA RESULT:      -6.6      2.904      8.499
REMARK  Name = ZINC95486082
REMARK  8 active torsions:
REMARK  status: ('A' for Active; 'I' for Inactive)
REMARK    1  A    between atoms: C1_1  and  C2_2
REMARK    2  A    between atoms: C2_2  and  C25_30
REMARK    3  A    between atoms: C3_3  and  C4_4
REMARK    4  A    between atoms: C4_4  and  C5_5
REMARK    5  A    between atoms: C7_7  and  C16_17
REMARK    6  A    between atoms: C11_12  and  C14_15
REMARK    7  A    between atoms: C11_12  and  C15_16
REMARK    8  A    between atoms: C22_25  and  O4_29
REMARK                            x       y       z     vdW  Elec       q    Type
REMARK                         _______ _______ _______ _____ _____    ______ ____
ROOT
ATOM      6  C   UNL     1      45.228  21.144  21.497  0.00  0.00    -0.103 A 
ATOM      7  C   UNL     1      46.588  21.089  21.269  0.00  0.00    +0.078 A 
ATOM      8  C   UNL     1      47.183  19.889  20.927  0.00  0.00    -0.123 A 
ATOM     22  C   UNL     1      46.416  18.747  20.811  0.00  0.00    +0.056 A 
ATOM     23  C   UNL     1      45.051  18.795  21.038  0.00  0.00    -0.157 A 
ATOM     24  C   UNL     1      44.246  17.528  20.897  0.00  0.00    +0.085 C 
ATOM     25  C   UNL     1      42.904  17.690  21.622  0.00  0.00    +0.016 C 
ATOM     26  C   UNL     1      42.284  19.021  21.179  0.00  0.00    +0.111 C 
ATOM     27  C   UNL     1      40.888  19.167  21.787  0.00  0.00    +0.074 C 
ATOM     28  C   UNL     1      42.188  19.064  19.652  0.00  0.00    +0.029 C 
ATOM     29  O   UNL     1      43.122  20.083  21.639  0.00  0.00    -0.300 OA
ATOM     30  C   UNL     1      44.454  19.994  21.390  0.00  0.00    +0.153 A 
ENDROOT
BRANCH   8   9
ATOM      9  C   UNL     1      48.668  19.829  20.678  0.00  0.00    +0.241 C 
ATOM     10  C   UNL     1      49.407  20.549  21.815  0.00  0.00    +0.037 C 
ATOM     11  C   UNL     1      50.891  20.486  21.499  0.00  0.00    +0.402 C 
ATOM     12  C   UNL     1      51.271  20.683  20.091  0.00  0.00    -0.265 A 
ATOM     13  C   UNL     1      52.606  20.894  19.735  0.00  0.00    +0.134 A 
ATOM     14  C   UNL     1      52.939  21.068  18.423  0.00  0.00    -0.051 A 
ATOM     15  C   UNL     1      51.954  21.038  17.439  0.00  0.00    +0.181 A 
ATOM     18  C   UNL     1      50.624  20.831  17.777  0.00  0.00    -0.045 A 
ATOM     19  C   UNL     1      50.269  20.657  19.104  0.00  0.00    +0.201 A 
ATOM     20  O   UNL     1      51.720  20.283  22.361  0.00  0.00    -0.442 OA
ATOM     21  O   UNL     1      48.972  20.467  19.438  0.00  0.00    -0.299 OA
BRANCH  15  16
ATOM     16  O   UNL     1      52.297  21.209  16.137  0.00  0.00    -0.494 OA
ATOM     17  H   UNL     1      51.555  21.435  15.561  0.00  0.00    +0.401 HD
ENDBRANCH  15  16
ENDBRANCH   8   9
BRANCH   6   5
ATOM      5  C   UNL     1      44.581  22.453  21.870  0.00  0.00    +0.118 C 
BRANCH   5   4
ATOM      1  C   UNL     1      43.022  22.864  19.556  0.00  0.00    +0.072 C 
ATOM      2  C   UNL     1      44.283  23.662  19.771  0.00  0.00    -0.135 C 
ATOM      3  C   UNL     1      44.748  24.634  18.716  0.00  0.00    +0.071 C 
ATOM      4  C   UNL     1      44.975  23.511  20.873  0.00  0.00    -0.044 C 
ENDBRANCH   5   4
ENDBRANCH   6   5
TORSDOF 4
ENDMDL
MODEL 8
REMARK VINA RESULT:      -6.6      1.855      2.624
REMARK  Name = ZINC95486082
REMARK  8 active torsions:
REMARK  status: ('A' for Active; 'I' for Inactive)
REMARK    1  A    between atoms: C1_1  and  C2_2
REMARK    2  A    between atoms: C2_2  and  C25_30
REMARK    3  A    between atoms: C3_3  and  C4_4
REMARK    4  A    between atoms: C4_4  and  C5_5
REMARK    5  A    between atoms: C7_7  and  C16_17
REMARK    6  A    between atoms: C11_12  and  C14_15
REMARK    7  A    between atoms: C11_12  and  C15_16
REMARK    8  A    between atoms: C22_25  and  O4_29
REMARK                            x       y       z     vdW  Elec       q    Type
REMARK                         _______ _______ _______ _____ _____    ______ ____
ROOT
ATOM      6  C   UNL     1      48.265  17.827  19.694  0.00  0.00    -0.103 A 
ATOM      7  C   UNL     1      47.158  18.619  19.472  0.00  0.00    +0.078 A 
ATOM      8  C   UNL     1      47.314  19.970  19.223  0.00  0.00    -0.123 A 
ATOM     22  C   UNL     1      48.578  20.525  19.193  0.00  0.00    +0.056 A 
ATOM     23  C   UNL     1      49.694  19.734  19.414  0.00  0.00    -0.157 A 
ATOM     24  C   UNL     1      51.058  20.375  19.370  0.00  0.00    +0.085 C 
ATOM     25  C   UNL     1      52.073  19.470  20.079  0.00  0.00    +0.016 C 
ATOM     26  C   UNL     1      51.898  18.045  19.535  0.00  0.00    +0.111 C 
ATOM     27  C   UNL     1      52.972  17.132  20.130  0.00  0.00    +0.074 C 
ATOM     28  C   UNL     1      52.018  18.057  18.010  0.00  0.00    +0.029 C 
ATOM     29  O   UNL     1      50.604  17.575  19.914  0.00  0.00    -0.300 OA
ATOM     30  C   UNL     1      49.539  18.383  19.674  0.00  0.00    +0.153 A 
ENDROOT
BRANCH   8   9
ATOM      9  C   UNL     1      46.104  20.836  18.981  0.00  0.00    +0.241 C 
ATOM     10  C   UNL     1      45.975  21.863  20.115  0.00  0.00    +0.037 C 
ATOM     11  C   UNL     1      44.728  22.684  19.839  0.00  0.00    +0.402 C 
ATOM     12  C   UNL     1      43.558  21.950  19.330  0.00  0.00    -0.265 A 
ATOM     13  C   UNL     1      42.300  22.558  19.284  0.00  0.00    +0.134 A 
ATOM     14  C   UNL     1      41.228  21.863  18.802  0.00  0.00    -0.051 A 
ATOM     15  C   UNL     1      41.384  20.551  18.360  0.00  0.00    +0.181 A 
ATOM     18  C   UNL     1      42.626  19.934  18.401  0.00  0.00    -0.045 A 
ATOM     19  C   UNL     1      43.723  20.625  18.890  0.00  0.00    +0.201 A 
ATOM     20  O   UNL     1      44.698  23.882  20.026  0.00  0.00    -0.442 OA
ATOM     21  O   UNL     1      44.933  20.022  18.943  0.00  0.00    -0.299 OA
BRANCH  15  16
ATOM     16  O   UNL     1      40.312  19.871  17.881  0.00  0.00    -0.494 OA
ATOM     17  H   UNL     1      40.114  20.051  16.952  0.00  0.00    +0.401 HD
ENDBRANCH  15  16
ENDBRANCH   8   9
BRANCH   6   5
ATOM      5  C   UNL     1      48.093  16.355  19.966  0.00  0.00    +0.118 C 
BRANCH   5   4
ATOM      1  C   UNL     1      45.705  14.993  19.334  0.00  0.00    +0.072 C 
ATOM      2  C   UNL     1      46.882  14.933  18.394  0.00  0.00    -0.135 C 
ATOM      3  C   UNL     1      46.808  14.090  17.146  0.00  0.00    +0.071 C 
ATOM      4  C   UNL     1      47.970  15.613  18.661  0.00  0.00    -0.044 C 
ENDBRANCH   5   4
ENDBRANCH   6   5
TORSDOF 4
ENDMDL
MODEL 9
REMARK VINA RESULT:      -6.6      3.024      6.818
REMARK  Name = ZINC95486082
REMARK  8 active torsions:
REMARK  status: ('A' for Active; 'I' for Inactive)
REMARK    1  A    between atoms: C1_1  and  C2_2
REMARK    2  A    between atoms: C2_2  and  C25_30
REMARK    3  A    between atoms: C3_3  and  C4_4
REMARK    4  A    between atoms: C4_4  and  C5_5
REMARK    5  A    between atoms: C7_7  and  C16_17
REMARK    6  A    between atoms: C11_12  and  C14_15
REMARK    7  A    between atoms: C11_12  and  C15_16
REMARK    8  A    between atoms: C22_25  and  O4_29
REMARK                            x       y       z     vdW  Elec       q    Type
REMARK                         _______ _______ _______ _____ _____    ______ ____
ROOT
ATOM      6  C   UNL     1      48.487  19.320  18.797  0.00  0.00    -0.103 A 
ATOM      7  C   UNL     1      47.765  18.221  18.380  0.00  0.00    +0.078 A 
ATOM      8  C   UNL     1      48.423  17.089  17.937  0.00  0.00    -0.123 A 
ATOM     22  C   UNL     1      49.803  17.058  17.915  0.00  0.00    +0.056 A 
ATOM     23  C   UNL     1      50.534  18.157  18.333  0.00  0.00    -0.157 A 
ATOM     24  C   UNL     1      52.040  18.084  18.299  0.00  0.00    +0.085 C 
ATOM     25  C   UNL     1      52.624  19.501  18.345  0.00  0.00    +0.016 C 
ATOM     26  C   UNL     1      51.939  20.259  19.490  0.00  0.00    +0.111 C 
ATOM     27  C   UNL     1      52.577  21.640  19.648  0.00  0.00    +0.074 C 
ATOM     28  C   UNL     1      52.088  19.470  20.793  0.00  0.00    +0.029 C 
ATOM     29  O   UNL     1      50.554  20.402  19.170  0.00  0.00    -0.300 OA
ATOM     30  C   UNL     1      49.877  19.296  18.768  0.00  0.00    +0.153 A 
ENDROOT
BRANCH   8   9
ATOM      9  C   UNL     1      47.634  15.889  17.481  0.00  0.00    +0.241 C 
ATOM     10  C   UNL     1      46.999  15.201  18.697  0.00  0.00    +0.037 C 
ATOM     11  C   UNL     1      46.247  13.986  18.185  0.00  0.00    +0.402 C 
ATOM     12  C   UNL     1      46.900  13.210  17.119  0.00  0.00    -0.265 A 
ATOM     13  C   UNL     1      46.419  11.948  16.758  0.00  0.00    +0.134 A 
ATOM     14  C   UNL     1      47.035  11.247  15.761  0.00  0.00    -0.051 A 
ATOM     15  C   UNL     1      48.141  11.783  15.106  0.00  0.00    +0.181 A 
ATOM     18  C   UNL     1      48.631  13.033  15.455  0.00  0.00    -0.045 A 
ATOM     19  C   UNL     1      48.019  13.756  16.466  0.00  0.00    +0.201 A 
ATOM     20  O   UNL     1      45.163  13.671  18.630  0.00  0.00    -0.442 OA
ATOM     21  O   UNL     1      48.502  14.970  16.817  0.00  0.00    -0.299 OA
BRANCH  15  16
ATOM     16  O   UNL     1      48.743  11.078  14.116  0.00  0.00    -0.494 OA
ATOM     17  H   UNL     1      48.839  11.567  13.287  0.00  0.00    +0.401 HD
ENDBRANCH  15  16
ENDBRANCH   8   9
BRANCH   6   5
ATOM      5  C   UNL     1      47.768  20.553  19.279  0.00  0.00    +0.118 C 
BRANCH   5   4
ATOM      1  C   UNL     1      45.572  20.731  21.040  0.00  0.00    +0.072 C 
ATOM      2  C   UNL     1      45.343  20.585  19.557  0.00  0.00    -0.135 C 
ATOM      3  C   UNL     1      43.939  20.468  19.020  0.00  0.00    +0.071 C 
ATOM      4  C   UNL     1      46.363  20.561  18.735  0.00  0.00    -0.044 C 
ENDBRANCH   5   4
ENDBRANCH   6   5
TORSDOF 4
ENDMDL
