MODEL 1
REMARK VINA RESULT:      -5.8      0.000      0.000
REMARK  Name = ZINC14721303
REMARK  7 active torsions:
REMARK  status: ('A' for Active; 'I' for Inactive)
REMARK    1  A    between atoms: C1_1  and  N1_2
REMARK    2  A    between atoms: C6_7  and  O4_21
REMARK    3  A    between atoms: C11_13  and  O3_19
REMARK    4  A    between atoms: C12_14  and  O2_17
REMARK    5  A    between atoms: O2_17  and  C15_18
REMARK    6  A    between atoms: O3_19  and  C16_20
REMARK    7  A    between atoms: O4_21  and  C17_22
REMARK                            x       y       z     vdW  Elec       q    Type
REMARK                         _______ _______ _______ _____ _____    ______ ____
ROOT
ATOM      1  C   UNL     1      46.999  17.222  16.848  0.00  0.00    +0.319 C 
ATOM      2  N   UNL     1      46.264  16.975  18.091  0.00  0.00    -0.505 N 
ATOM      3  C   UNL     1      45.731  18.051  18.773  0.00  0.00    +0.251 A 
ATOM      4  C   UNL     1      45.902  19.339  18.280  0.00  0.00    -0.027 A 
ATOM      5  C   UNL     1      45.370  20.424  18.958  0.00  0.00    +0.127 A 
ATOM      6  C   UNL     1      44.658  20.237  20.145  0.00  0.00    -0.039 A 
ATOM      7  O   UNL     1      44.249  21.459  20.603  0.00  0.00    -0.294 OA
ATOM      8  C   UNL     1      45.064  22.422  19.911  0.00  0.00    +0.438 C 
ATOM      9  C   UNL     1      44.477  18.963  20.652  0.00  0.00    +0.214 A 
ATOM     12  O   UNL     1      45.405  21.759  18.678  0.00  0.00    -0.299 OA
ATOM     13  C   UNL     1      45.013  17.861  19.968  0.00  0.00    -0.229 A 
ATOM     14  C   UNL     1      44.826  16.497  20.484  0.00  0.00    +0.445 A 
ATOM     15  C   UNL     1      45.424  15.389  19.718  0.00  0.00    -0.235 A 
ATOM     16  C   UNL     1      45.299  14.069  20.162  0.00  0.00    +0.167 A 
ATOM     17  C   UNL     1      45.859  13.053  19.442  0.00  0.00    -0.097 A 
ATOM     18  C   UNL     1      46.555  13.323  18.267  0.00  0.00    +0.185 A 
ATOM     21  C   UNL     1      46.690  14.625  17.811  0.00  0.00    -0.009 A 
ATOM     24  O   UNL     1      44.209  16.291  21.514  0.00  0.00    -0.449 OA
ATOM     25  C   UNL     1      46.129  15.675  18.536  0.00  0.00    +0.247 A 
ENDROOT
BRANCH   9  10
ATOM     10  O   UNL     1      43.784  18.779  21.804  0.00  0.00    -0.312 OA
ATOM     11  C   UNL     1      42.366  18.951  21.743  0.00  0.00    +0.244 C 
ENDBRANCH   9  10
BRANCH  18  19
ATOM     19  O   UNL     1      47.107  12.300  17.561  0.00  0.00    -0.299 OA
ATOM     20  C   UNL     1      46.218  11.481  16.801  0.00  0.00    +0.251 C 
ENDBRANCH  18  19
BRANCH  21  22
ATOM     22  O   UNL     1      47.373  14.878  16.661  0.00  0.00    -0.309 OA
ATOM     23  C   UNL     1      48.767  14.567  16.652  0.00  0.00    +0.217 C 
ENDBRANCH  21  22
TORSDOF 3
ENDMDL
MODEL 2
REMARK VINA RESULT:      -5.5      3.507      6.945
REMARK  Name = ZINC14721303
REMARK  7 active torsions:
REMARK  status: ('A' for Active; 'I' for Inactive)
REMARK    1  A    between atoms: C1_1  and  N1_2
REMARK    2  A    between atoms: C6_7  and  O4_21
REMARK    3  A    between atoms: C11_13  and  O3_19
REMARK    4  A    between atoms: C12_14  and  O2_17
REMARK    5  A    between atoms: O2_17  and  C15_18
REMARK    6  A    between atoms: O3_19  and  C16_20
REMARK    7  A    between atoms: O4_21  and  C17_22
REMARK                            x       y       z     vdW  Elec       q    Type
REMARK                         _______ _______ _______ _____ _____    ______ ____
ROOT
ATOM      1  C   UNL     1      51.264  16.803  16.818  0.00  0.00    +0.319 C 
ATOM      2  N   UNL     1      49.983  17.074  17.474  0.00  0.00    -0.505 N 
ATOM      3  C   UNL     1      49.017  16.087  17.479  0.00  0.00    +0.251 A 
ATOM      4  C   UNL     1      49.269  14.866  16.864  0.00  0.00    -0.027 A 
ATOM      5  C   UNL     1      48.306  13.871  16.866  0.00  0.00    +0.127 A 
ATOM      6  C   UNL     1      47.071  14.081  17.482  0.00  0.00    -0.039 A 
ATOM      7  O   UNL     1      46.314  12.951  17.338  0.00  0.00    -0.294 OA
ATOM      8  C   UNL     1      46.938  12.204  16.278  0.00  0.00    +0.438 C 
ATOM      9  C   UNL     1      46.801  15.289  18.099  0.00  0.00    +0.214 A 
ATOM     12  O   UNL     1      48.318  12.612  16.338  0.00  0.00    -0.299 OA
ATOM     13  C   UNL     1      47.774  16.301  18.101  0.00  0.00    -0.229 A 
ATOM     14  C   UNL     1      47.512  17.590  18.758  0.00  0.00    +0.445 A 
ATOM     15  C   UNL     1      48.576  18.608  18.714  0.00  0.00    -0.235 A 
ATOM     16  C   UNL     1      48.387  19.861  19.303  0.00  0.00    +0.167 A 
ATOM     17  C   UNL     1      49.382  20.795  19.253  0.00  0.00    -0.097 A 
ATOM     18  C   UNL     1      50.586  20.507  18.617  0.00  0.00    +0.185 A 
ATOM     21  C   UNL     1      50.793  19.269  18.027  0.00  0.00    -0.009 A 
ATOM     24  O   UNL     1      46.449  17.812  19.310  0.00  0.00    -0.449 OA
ATOM     25  C   UNL     1      49.786  18.307  18.065  0.00  0.00    +0.247 A 
ENDROOT
BRANCH   9  10
ATOM     10  O   UNL     1      45.602  15.495  18.701  0.00  0.00    -0.312 OA
ATOM     11  C   UNL     1      45.336  14.752  19.892  0.00  0.00    +0.244 C 
ENDBRANCH   9  10
BRANCH  18  19
ATOM     19  O   UNL     1      51.567  21.447  18.576  0.00  0.00    -0.299 OA
ATOM     20  C   UNL     1      52.417  21.549  19.720  0.00  0.00    +0.251 C 
ENDBRANCH  18  19
BRANCH  21  22
ATOM     22  O   UNL     1      51.974  18.998  17.408  0.00  0.00    -0.309 OA
ATOM     23  C   UNL     1      52.239  19.685  16.184  0.00  0.00    +0.217 C 
ENDBRANCH  21  22
TORSDOF 3
ENDMDL
MODEL 3
REMARK VINA RESULT:      -5.4      2.969      5.094
REMARK  Name = ZINC14721303
REMARK  7 active torsions:
REMARK  status: ('A' for Active; 'I' for Inactive)
REMARK    1  A    between atoms: C1_1  and  N1_2
REMARK    2  A    between atoms: C6_7  and  O4_21
REMARK    3  A    between atoms: C11_13  and  O3_19
REMARK    4  A    between atoms: C12_14  and  O2_17
REMARK    5  A    between atoms: O2_17  and  C15_18
REMARK    6  A    between atoms: O3_19  and  C16_20
REMARK    7  A    between atoms: O4_21  and  C17_22
REMARK                            x       y       z     vdW  Elec       q    Type
REMARK                         _______ _______ _______ _____ _____    ______ ____
ROOT
ATOM      1  C   UNL     1      47.246  16.957  18.221  0.00  0.00    +0.319 C 
ATOM      2  N   UNL     1      47.430  18.214  18.951  0.00  0.00    -0.505 N 
ATOM      3  C   UNL     1      46.436  18.634  19.812  0.00  0.00    +0.251 A 
ATOM      4  C   UNL     1      45.285  17.872  19.969  0.00  0.00    -0.027 A 
ATOM      5  C   UNL     1      44.283  18.287  20.831  0.00  0.00    +0.127 A 
ATOM      6  C   UNL     1      44.415  19.476  21.551  0.00  0.00    -0.039 A 
ATOM      7  O   UNL     1      43.296  19.648  22.317  0.00  0.00    -0.294 OA
ATOM      8  C   UNL     1      42.305  18.772  21.751  0.00  0.00    +0.438 C 
ATOM      9  C   UNL     1      45.554  20.249  21.409  0.00  0.00    +0.214 A 
ATOM     12  O   UNL     1      43.082  17.720  21.148  0.00  0.00    -0.299 OA
ATOM     13  C   UNL     1      46.572  19.833  20.537  0.00  0.00    -0.229 A 
ATOM     14  C   UNL     1      47.794  20.634  20.377  0.00  0.00    +0.445 A 
ATOM     15  C   UNL     1      48.817  20.140  19.439  0.00  0.00    -0.235 A 
ATOM     16  C   UNL     1      49.995  20.861  19.225  0.00  0.00    +0.167 A 
ATOM     17  C   UNL     1      50.933  20.391  18.352  0.00  0.00    -0.097 A 
ATOM     18  C   UNL     1      50.725  19.195  17.671  0.00  0.00    +0.185 A 
ATOM     21  C   UNL     1      49.563  18.465  17.869  0.00  0.00    -0.009 A 
ATOM     24  O   UNL     1      47.950  21.676  20.989  0.00  0.00    -0.449 OA
ATOM     25  C   UNL     1      48.592  18.933  18.753  0.00  0.00    +0.247 A 
ENDROOT
BRANCH   9  10
ATOM     10  O   UNL     1      45.686  21.404  22.109  0.00  0.00    -0.312 OA
ATOM     11  C   UNL     1      44.827  22.486  21.745  0.00  0.00    +0.244 C 
ENDBRANCH   9  10
BRANCH  18  19
ATOM     19  O   UNL     1      51.668  18.740  16.805  0.00  0.00    -0.299 OA
ATOM     20  C   UNL     1      52.064  19.622  15.753  0.00  0.00    +0.251 C 
ENDBRANCH  18  19
BRANCH  21  22
ATOM     22  O   UNL     1      49.368  17.296  17.198  0.00  0.00    -0.309 OA
ATOM     23  C   UNL     1      50.270  16.226  17.484  0.00  0.00    +0.217 C 
ENDBRANCH  21  22
TORSDOF 3
ENDMDL
MODEL 4
REMARK VINA RESULT:      -5.3      3.203      6.341
REMARK  Name = ZINC14721303
REMARK  7 active torsions:
REMARK  status: ('A' for Active; 'I' for Inactive)
REMARK    1  A    between atoms: C1_1  and  N1_2
REMARK    2  A    between atoms: C6_7  and  O4_21
REMARK    3  A    between atoms: C11_13  and  O3_19
REMARK    4  A    between atoms: C12_14  and  O2_17
REMARK    5  A    between atoms: O2_17  and  C15_18
REMARK    6  A    between atoms: O3_19  and  C16_20
REMARK    7  A    between atoms: O4_21  and  C17_22
REMARK                            x       y       z     vdW  Elec       q    Type
REMARK                         _______ _______ _______ _____ _____    ______ ____
ROOT
ATOM      1  C   UNL     1      46.855  21.549  20.278  0.00  0.00    +0.319 C 
ATOM      2  N   UNL     1      47.043  20.166  19.835  0.00  0.00    -0.505 N 
ATOM      3  C   UNL     1      48.226  19.824  19.208  0.00  0.00    +0.251 A 
ATOM      4  C   UNL     1      49.206  20.787  19.002  0.00  0.00    -0.027 A 
ATOM      5  C   UNL     1      50.394  20.453  18.374  0.00  0.00    +0.127 A 
ATOM      6  C   UNL     1      50.621  19.146  17.938  0.00  0.00    -0.039 A 
ATOM      7  O   UNL     1      51.858  19.089  17.357  0.00  0.00    -0.294 OA
ATOM      8  C   UNL     1      52.211  20.455  17.074  0.00  0.00    +0.438 C 
ATOM      9  C   UNL     1      49.658  18.173  18.134  0.00  0.00    +0.214 A 
ATOM     12  O   UNL     1      51.487  21.209  18.064  0.00  0.00    -0.299 OA
ATOM     13  C   UNL     1      48.453  18.507  18.770  0.00  0.00    -0.229 A 
ATOM     14  C   UNL     1      47.418  17.487  18.995  0.00  0.00    +0.445 A 
ATOM     15  C   UNL     1      46.175  17.911  19.663  0.00  0.00    -0.235 A 
ATOM     16  C   UNL     1      45.143  16.997  19.892  0.00  0.00    +0.167 A 
ATOM     17  C   UNL     1      43.996  17.404  20.511  0.00  0.00    -0.097 A 
ATOM     18  C   UNL     1      43.846  18.728  20.915  0.00  0.00    +0.185 A 
ATOM     21  C   UNL     1      44.858  19.650  20.696  0.00  0.00    -0.009 A 
ATOM     24  O   UNL     1      47.578  16.335  18.633  0.00  0.00    -0.449 OA
ATOM     25  C   UNL     1      46.034  19.251  20.061  0.00  0.00    +0.247 A 
ENDROOT
BRANCH   9  10
ATOM     10  O   UNL     1      49.877  16.901  17.713  0.00  0.00    -0.312 OA
ATOM     11  C   UNL     1      50.888  16.156  18.395  0.00  0.00    +0.244 C 
ENDBRANCH   9  10
BRANCH  18  19
ATOM     19  O   UNL     1      42.699  19.119  21.529  0.00  0.00    -0.299 OA
ATOM     20  C   UNL     1      41.493  19.037  20.767  0.00  0.00    +0.251 C 
ENDBRANCH  18  19
BRANCH  21  22
ATOM     22  O   UNL     1      44.703  20.942  21.095  0.00  0.00    -0.309 OA
ATOM     23  C   UNL     1      44.711  21.193  22.502  0.00  0.00    +0.217 C 
ENDBRANCH  21  22
TORSDOF 3
ENDMDL
MODEL 5
REMARK VINA RESULT:      -5.3      3.028      4.835
REMARK  Name = ZINC14721303
REMARK  7 active torsions:
REMARK  status: ('A' for Active; 'I' for Inactive)
REMARK    1  A    between atoms: C1_1  and  N1_2
REMARK    2  A    between atoms: C6_7  and  O4_21
REMARK    3  A    between atoms: C11_13  and  O3_19
REMARK    4  A    between atoms: C12_14  and  O2_17
REMARK    5  A    between atoms: O2_17  and  C15_18
REMARK    6  A    between atoms: O3_19  and  C16_20
REMARK    7  A    between atoms: O4_21  and  C17_22
REMARK                            x       y       z     vdW  Elec       q    Type
REMARK                         _______ _______ _______ _____ _____    ______ ____
ROOT
ATOM      1  C   UNL     1      45.836  17.469  18.330  0.00  0.00    +0.319 C 
ATOM      2  N   UNL     1      46.101  18.795  18.892  0.00  0.00    -0.505 N 
ATOM      3  C   UNL     1      45.050  19.682  19.025  0.00  0.00    +0.251 A 
ATOM      4  C   UNL     1      43.772  19.310  18.625  0.00  0.00    -0.027 A 
ATOM      5  C   UNL     1      42.713  20.193  18.756  0.00  0.00    +0.127 A 
ATOM      6  C   UNL     1      42.916  21.467  19.289  0.00  0.00    -0.039 A 
ATOM      7  O   UNL     1      41.719  22.128  19.305  0.00  0.00    -0.294 OA
ATOM      8  C   UNL     1      40.867  21.401  18.401  0.00  0.00    +0.438 C 
ATOM      9  C   UNL     1      44.180  21.857  19.694  0.00  0.00    +0.214 A 
ATOM     12  O   UNL     1      41.392  20.060  18.440  0.00  0.00    -0.299 OA
ATOM     13  C   UNL     1      45.256  20.966  19.563  0.00  0.00    -0.229 A 
ATOM     14  C   UNL     1      46.607  21.355  19.994  0.00  0.00    +0.445 A 
ATOM     15  C   UNL     1      47.689  20.371  19.821  0.00  0.00    -0.235 A 
ATOM     16  C   UNL     1      49.000  20.682  20.193  0.00  0.00    +0.167 A 
ATOM     17  C   UNL     1      49.993  19.760  20.025  0.00  0.00    -0.097 A 
ATOM     18  C   UNL     1      49.709  18.510  19.484  0.00  0.00    +0.185 A 
ATOM     21  C   UNL     1      48.415  18.182  19.108  0.00  0.00    -0.009 A 
ATOM     24  O   UNL     1      46.825  22.456  20.468  0.00  0.00    -0.449 OA
ATOM     25  C   UNL     1      47.390  19.114  19.269  0.00  0.00    +0.247 A 
ENDROOT
BRANCH   9  10
ATOM     10  O   UNL     1      44.379  23.094  20.215  0.00  0.00    -0.312 OA
ATOM     11  C   UNL     1      44.427  24.186  19.294  0.00  0.00    +0.244 C 
ENDBRANCH   9  10
BRANCH  18  19
ATOM     19  O   UNL     1      50.709  17.603  19.322  0.00  0.00    -0.299 OA
ATOM     20  C   UNL     1      51.920  18.070  18.726  0.00  0.00    +0.251 C 
ENDBRANCH  18  19
BRANCH  21  22
ATOM     22  O   UNL     1      48.147  16.957  18.580  0.00  0.00    -0.309 OA
ATOM     23  C   UNL     1      48.678  16.679  17.283  0.00  0.00    +0.217 C 
ENDBRANCH  21  22
TORSDOF 3
ENDMDL
MODEL 6
REMARK VINA RESULT:      -5.1      3.214      4.266
REMARK  Name = ZINC14721303
REMARK  7 active torsions:
REMARK  status: ('A' for Active; 'I' for Inactive)
REMARK    1  A    between atoms: C1_1  and  N1_2
REMARK    2  A    between atoms: C6_7  and  O4_21
REMARK    3  A    between atoms: C11_13  and  O3_19
REMARK    4  A    between atoms: C12_14  and  O2_17
REMARK    5  A    between atoms: O2_17  and  C15_18
REMARK    6  A    between atoms: O3_19  and  C16_20
REMARK    7  A    between atoms: O4_21  and  C17_22
REMARK                            x       y       z     vdW  Elec       q    Type
REMARK                         _______ _______ _______ _____ _____    ______ ____
ROOT
ATOM      1  C   UNL     1      50.192  20.259  20.161  0.00  0.00    +0.319 C 
ATOM      2  N   UNL     1      49.013  19.660  19.531  0.00  0.00    -0.505 N 
ATOM      3  C   UNL     1      47.781  20.250  19.732  0.00  0.00    +0.251 A 
ATOM      4  C   UNL     1      47.675  21.386  20.524  0.00  0.00    -0.027 A 
ATOM      5  C   UNL     1      46.443  21.984  20.730  0.00  0.00    +0.127 A 
ATOM      6  C   UNL     1      45.292  21.452  20.147  0.00  0.00    -0.039 A 
ATOM      7  O   UNL     1      44.223  22.225  20.508  0.00  0.00    -0.294 OA
ATOM      8  C   UNL     1      44.668  22.988  21.644  0.00  0.00    +0.438 C 
ATOM      9  C   UNL     1      45.375  20.321  19.355  0.00  0.00    +0.214 A 
ATOM     12  O   UNL     1      46.092  23.087  21.453  0.00  0.00    -0.299 OA
ATOM     13  C   UNL     1      46.621  19.711  19.143  0.00  0.00    -0.229 A 
ATOM     14  C   UNL     1      46.735  18.513  18.299  0.00  0.00    +0.445 A 
ATOM     15  C   UNL     1      48.074  17.923  18.127  0.00  0.00    -0.235 A 
ATOM     16  C   UNL     1      48.251  16.773  17.352  0.00  0.00    +0.167 A 
ATOM     17  C   UNL     1      49.498  16.237  17.203  0.00  0.00    -0.097 A 
ATOM     18  C   UNL     1      50.597  16.829  17.818  0.00  0.00    +0.185 A 
ATOM     21  C   UNL     1      50.442  17.970  18.591  0.00  0.00    -0.009 A 
ATOM     24  O   UNL     1      45.755  18.019  17.770  0.00  0.00    -0.449 OA
ATOM     25  C   UNL     1      49.175  18.527  18.758  0.00  0.00    +0.247 A 
ENDROOT
BRANCH   9  10
ATOM     10  O   UNL     1      44.257  19.802  18.786  0.00  0.00    -0.312 OA
ATOM     11  C   UNL     1      43.283  19.237  19.665  0.00  0.00    +0.244 C 
ENDBRANCH   9  10
BRANCH  18  19
ATOM     19  O   UNL     1      51.832  16.284  17.661  0.00  0.00    -0.299 OA
ATOM     20  C   UNL     1      52.142  15.137  18.455  0.00  0.00    +0.251 C 
ENDBRANCH  18  19
BRANCH  21  22
ATOM     22  O   UNL     1      51.523  18.541  19.189  0.00  0.00    -0.309 OA
ATOM     23  C   UNL     1      52.517  19.105  18.332  0.00  0.00    +0.217 C 
ENDBRANCH  21  22
TORSDOF 3
ENDMDL
MODEL 7
REMARK VINA RESULT:      -4.9      1.799      6.571
REMARK  Name = ZINC14721303
REMARK  7 active torsions:
REMARK  status: ('A' for Active; 'I' for Inactive)
REMARK    1  A    between atoms: C1_1  and  N1_2
REMARK    2  A    between atoms: C6_7  and  O4_21
REMARK    3  A    between atoms: C11_13  and  O3_19
REMARK    4  A    between atoms: C12_14  and  O2_17
REMARK    5  A    between atoms: O2_17  and  C15_18
REMARK    6  A    between atoms: O3_19  and  C16_20
REMARK    7  A    between atoms: O4_21  and  C17_22
REMARK                            x       y       z     vdW  Elec       q    Type
REMARK                         _______ _______ _______ _____ _____    ______ ____
ROOT
ATOM      1  C   UNL     1      46.588  17.575  17.149  0.00  0.00    +0.319 C 
ATOM      2  N   UNL     1      46.465  16.549  18.187  0.00  0.00    -0.505 N 
ATOM      3  C   UNL     1      47.203  15.388  18.065  0.00  0.00    +0.251 A 
ATOM      4  C   UNL     1      48.037  15.207  16.969  0.00  0.00    -0.027 A 
ATOM      5  C   UNL     1      48.781  14.046  16.839  0.00  0.00    +0.127 A 
ATOM      6  C   UNL     1      48.699  13.042  17.805  0.00  0.00    -0.039 A 
ATOM      7  O   UNL     1      49.524  12.015  17.438  0.00  0.00    -0.294 OA
ATOM      8  C   UNL     1      49.794  12.222  16.039  0.00  0.00    +0.438 C 
ATOM      9  C   UNL     1      47.874  13.202  18.904  0.00  0.00    +0.214 A 
ATOM     12  O   UNL     1      49.655  13.646  15.871  0.00  0.00    -0.299 OA
ATOM     13  C   UNL     1      47.119  14.377  19.040  0.00  0.00    -0.229 A 
ATOM     14  C   UNL     1      46.242  14.572  20.204  0.00  0.00    +0.445 A 
ATOM     15  C   UNL     1      45.473  15.827  20.277  0.00  0.00    -0.235 A 
ATOM     16  C   UNL     1      44.607  16.070  21.346  0.00  0.00    +0.167 A 
ATOM     17  C   UNL     1      43.901  17.238  21.399  0.00  0.00    -0.097 A 
ATOM     18  C   UNL     1      44.037  18.190  20.394  0.00  0.00    +0.185 A 
ATOM     21  C   UNL     1      44.892  17.968  19.324  0.00  0.00    -0.009 A 
ATOM     24  O   UNL     1      46.145  13.722  21.070  0.00  0.00    -0.449 OA
ATOM     25  C   UNL     1      45.616  16.779  19.252  0.00  0.00    +0.247 A 
ENDROOT
BRANCH   9  10
ATOM     10  O   UNL     1      47.794  12.228  19.846  0.00  0.00    -0.312 OA
ATOM     11  C   UNL     1      48.958  11.998  20.643  0.00  0.00    +0.244 C 
ENDBRANCH   9  10
BRANCH  18  19
ATOM     19  O   UNL     1      43.328  19.347  20.461  0.00  0.00    -0.299 OA
ATOM     20  C   UNL     1      41.937  19.276  20.141  0.00  0.00    +0.251 C 
ENDBRANCH  18  19
BRANCH  21  22
ATOM     22  O   UNL     1      45.019  18.905  18.346  0.00  0.00    -0.309 OA
ATOM     23  C   UNL     1      45.590  20.161  18.720  0.00  0.00    +0.217 C 
ENDBRANCH  21  22
TORSDOF 3
ENDMDL
MODEL 8
REMARK VINA RESULT:      -4.9      3.273      7.839
REMARK  Name = ZINC14721303
REMARK  7 active torsions:
REMARK  status: ('A' for Active; 'I' for Inactive)
REMARK    1  A    between atoms: C1_1  and  N1_2
REMARK    2  A    between atoms: C6_7  and  O4_21
REMARK    3  A    between atoms: C11_13  and  O3_19
REMARK    4  A    between atoms: C12_14  and  O2_17
REMARK    5  A    between atoms: O2_17  and  C15_18
REMARK    6  A    between atoms: O3_19  and  C16_20
REMARK    7  A    between atoms: O4_21  and  C17_22
REMARK                            x       y       z     vdW  Elec       q    Type
REMARK                         _______ _______ _______ _____ _____    ______ ____
ROOT
ATOM      1  C   UNL     1      47.136  17.902  18.610  0.00  0.00    +0.319 C 
ATOM      2  N   UNL     1      48.299  17.205  18.055  0.00  0.00    -0.505 N 
ATOM      3  C   UNL     1      48.148  15.902  17.622  0.00  0.00    +0.251 A 
ATOM      4  C   UNL     1      46.912  15.276  17.723  0.00  0.00    -0.027 A 
ATOM      5  C   UNL     1      46.752  13.969  17.291  0.00  0.00    +0.127 A 
ATOM      6  C   UNL     1      47.831  13.266  16.751  0.00  0.00    -0.039 A 
ATOM      7  O   UNL     1      47.405  12.012  16.409  0.00  0.00    -0.294 OA
ATOM      8  C   UNL     1      46.169  11.819  17.121  0.00  0.00    +0.438 C 
ATOM      9  C   UNL     1      49.069  13.871  16.642  0.00  0.00    +0.214 A 
ATOM     12  O   UNL     1      45.657  13.155  17.286  0.00  0.00    -0.299 OA
ATOM     13  C   UNL     1      49.236  15.195  17.078  0.00  0.00    -0.229 A 
ATOM     14  C   UNL     1      50.541  15.862  16.964  0.00  0.00    +0.445 A 
ATOM     15  C   UNL     1      50.645  17.249  17.449  0.00  0.00    -0.235 A 
ATOM     16  C   UNL     1      51.860  17.936  17.387  0.00  0.00    +0.167 A 
ATOM     17  C   UNL     1      51.940  19.221  17.841  0.00  0.00    -0.097 A 
ATOM     18  C   UNL     1      50.817  19.854  18.368  0.00  0.00    +0.185 A 
ATOM     21  C   UNL     1      49.602  19.189  18.438  0.00  0.00    -0.009 A 
ATOM     24  O   UNL     1      51.506  15.284  16.496  0.00  0.00    -0.449 OA
ATOM     25  C   UNL     1      49.505  17.875  17.983  0.00  0.00    +0.247 A 
ENDROOT
BRANCH   9  10
ATOM     10  O   UNL     1      50.119  13.190  16.115  0.00  0.00    -0.312 OA
ATOM     11  C   UNL     1      50.055  12.873  14.723  0.00  0.00    +0.244 C 
ENDBRANCH   9  10
BRANCH  18  19
ATOM     19  O   UNL     1      50.913  21.133  18.816  0.00  0.00    -0.299 OA
ATOM     20  C   UNL     1      52.061  21.462  19.601  0.00  0.00    +0.251 C 
ENDBRANCH  18  19
BRANCH  21  22
ATOM     22  O   UNL     1      48.510  19.816  18.954  0.00  0.00    -0.309 OA
ATOM     23  C   UNL     1      48.553  20.157  20.341  0.00  0.00    +0.217 C 
ENDBRANCH  21  22
TORSDOF 3
ENDMDL
MODEL 9
REMARK VINA RESULT:      -4.9      3.674      4.628
REMARK  Name = ZINC14721303
REMARK  7 active torsions:
REMARK  status: ('A' for Active; 'I' for Inactive)
REMARK    1  A    between atoms: C1_1  and  N1_2
REMARK    2  A    between atoms: C6_7  and  O4_21
REMARK    3  A    between atoms: C11_13  and  O3_19
REMARK    4  A    between atoms: C12_14  and  O2_17
REMARK    5  A    between atoms: O2_17  and  C15_18
REMARK    6  A    between atoms: O3_19  and  C16_20
REMARK    7  A    between atoms: O4_21  and  C17_22
REMARK                            x       y       z     vdW  Elec       q    Type
REMARK                         _______ _______ _______ _____ _____    ______ ____
ROOT
ATOM      1  C   UNL     1      49.845  20.785  18.823  0.00  0.00    +0.319 C 
ATOM      2  N   UNL     1      49.127  19.521  19.005  0.00  0.00    -0.505 N 
ATOM      3  C   UNL     1      47.750  19.547  19.098  0.00  0.00    +0.251 A 
ATOM      4  C   UNL     1      47.071  20.757  19.026  0.00  0.00    -0.027 A 
ATOM      5  C   UNL     1      45.690  20.791  19.119  0.00  0.00    +0.127 A 
ATOM      6  C   UNL     1      44.962  19.612  19.288  0.00  0.00    -0.039 A 
ATOM      7  O   UNL     1      43.632  19.926  19.350  0.00  0.00    -0.294 OA
ATOM      8  C   UNL     1      43.584  21.337  19.630  0.00  0.00    +0.438 C 
ATOM      9  C   UNL     1      45.618  18.397  19.362  0.00  0.00    +0.214 A 
ATOM     12  O   UNL     1      44.815  21.838  19.076  0.00  0.00    -0.299 OA
ATOM     13  C   UNL     1      47.018  18.357  19.268  0.00  0.00    -0.229 A 
ATOM     14  C   UNL     1      47.736  17.076  19.337  0.00  0.00    +0.445 A 
ATOM     15  C   UNL     1      49.206  17.110  19.239  0.00  0.00    -0.235 A 
ATOM     16  C   UNL     1      49.952  15.931  19.314  0.00  0.00    +0.167 A 
ATOM     17  C   UNL     1      51.314  15.979  19.222  0.00  0.00    -0.097 A 
ATOM     18  C   UNL     1      51.966  17.198  19.055  0.00  0.00    +0.185 A 
ATOM     21  C   UNL     1      51.243  18.379  18.978  0.00  0.00    -0.009 A 
ATOM     24  O   UNL     1      47.139  16.024  19.480  0.00  0.00    -0.449 OA
ATOM     25  C   UNL     1      49.853  18.348  19.075  0.00  0.00    +0.247 A 
ENDROOT
BRANCH   9  10
ATOM     10  O   UNL     1      44.913  17.248  19.525  0.00  0.00    -0.312 OA
ATOM     11  C   UNL     1      44.343  17.013  20.814  0.00  0.00    +0.244 C 
ENDBRANCH   9  10
BRANCH  18  19
ATOM     19  O   UNL     1      53.322  17.230  18.966  0.00  0.00    -0.299 OA
ATOM     20  C   UNL     1      54.029  16.070  19.408  0.00  0.00    +0.251 C 
ENDBRANCH  18  19
BRANCH  21  22
ATOM     22  O   UNL     1      51.890  19.565  18.814  0.00  0.00    -0.309 OA
ATOM     23  C   UNL     1      52.489  19.807  17.540  0.00  0.00    +0.217 C 
ENDBRANCH  21  22
TORSDOF 3
ENDMDL
