MODEL 1
REMARK VINA RESULT:      -6.1      0.000      0.000
REMARK  Name = ZINC95485893
REMARK  7 active torsions:
REMARK  status: ('A' for Active; 'I' for Inactive)
REMARK    1  A    between atoms: C1_1  and  C2_2
REMARK    2  A    between atoms: C2_2  and  C20_24
REMARK    3  A    between atoms: C7_7  and  C11_12
REMARK    4  A    between atoms: C12_13  and  C13_14
REMARK    5  A    between atoms: C13_14  and  C14_16
REMARK    6  A    between atoms: C17_19  and  O4_23
REMARK    7  A    between atoms: C19_21  and  O3_22
REMARK                            x       y       z     vdW  Elec       q    Type
REMARK                         _______ _______ _______ _____ _____    ______ ____
ROOT
ATOM      9  C   UNL     1      47.655  16.361  20.895  0.00  0.00    +0.132 C 
ATOM     10  C   UNL     1      46.367  16.046  20.635  0.00  0.00    -0.104 C 
ENDROOT
BRANCH   9   8
ATOM      1  C   UNL     1      51.821  21.083  16.268  0.00  0.00    +0.080 C 
ATOM      2  C   UNL     1      51.422  19.982  17.254  0.00  0.00    +0.147 C 
ATOM      3  C   UNL     1      52.538  19.800  18.284  0.00  0.00    +0.032 C 
ATOM      4  C   UNL     1      51.223  18.692  16.503  0.00  0.00    -0.059 C 
ATOM      5  C   UNL     1      50.375  17.776  16.966  0.00  0.00    +0.041 C 
ATOM      6  C   UNL     1      49.641  18.077  18.215  0.00  0.00    -0.148 A 
ATOM      7  C   UNL     1      49.012  17.079  18.940  0.00  0.00    +0.081 A 
ATOM      8  C   UNL     1      48.328  17.410  20.115  0.00  0.00    -0.115 A 
ATOM     23  C   UNL     1      48.285  18.742  20.548  0.00  0.00    +0.114 A 
ATOM     24  C   UNL     1      48.913  19.730  19.821  0.00  0.00    -0.020 A 
ATOM     25  C   UNL     1      49.592  19.410  18.656  0.00  0.00    +0.152 A 
ATOM     26  O   UNL     1      50.221  20.363  17.924  0.00  0.00    -0.305 OA
ENDBRANCH   9   8
BRANCH  10  11
ATOM     11  C   UNL     1      45.709  16.586  19.446  0.00  0.00    +0.412 C 
ATOM     22  O   UNL     1      45.805  16.006  18.379  0.00  0.00    -0.422 OA
BRANCH  11  12
ATOM     12  C   UNL     1      44.929  17.834  19.538  0.00  0.00    -0.201 A 
ATOM     13  C   UNL     1      44.017  18.016  20.583  0.00  0.00    +0.099 A 
ATOM     14  C   UNL     1      43.291  19.182  20.665  0.00  0.00    -0.030 A 
ATOM     15  C   UNL     1      43.459  20.182  19.712  0.00  0.00    +0.156 A 
ATOM     18  C   UNL     1      44.361  20.011  18.672  0.00  0.00    -0.050 A 
ATOM     19  C   UNL     1      45.102  18.845  18.581  0.00  0.00    +0.184 A 
BRANCH  15  16
ATOM     16  O   UNL     1      42.738  21.328  19.800  0.00  0.00    -0.497 OA
ATOM     17  H   UNL     1      42.483  21.698  18.943  0.00  0.00    +0.399 HD
ENDBRANCH  15  16
BRANCH  19  20
ATOM     20  O   UNL     1      45.988  18.679  17.568  0.00  0.00    -0.478 OA
ATOM     21  H   UNL     1      45.658  18.130  16.843  0.00  0.00    +0.399 HD
ENDBRANCH  19  20
ENDBRANCH  11  12
ENDBRANCH  10  11
TORSDOF 5
ENDMDL
MODEL 2
REMARK VINA RESULT:      -5.9      2.192      6.066
REMARK  Name = ZINC95485893
REMARK  7 active torsions:
REMARK  status: ('A' for Active; 'I' for Inactive)
REMARK    1  A    between atoms: C1_1  and  C2_2
REMARK    2  A    between atoms: C2_2  and  C20_24
REMARK    3  A    between atoms: C7_7  and  C11_12
REMARK    4  A    between atoms: C12_13  and  C13_14
REMARK    5  A    between atoms: C13_14  and  C14_16
REMARK    6  A    between atoms: C17_19  and  O4_23
REMARK    7  A    between atoms: C19_21  and  O3_22
REMARK                            x       y       z     vdW  Elec       q    Type
REMARK                         _______ _______ _______ _____ _____    ______ ____
ROOT
ATOM      9  C   UNL     1      47.962  16.410  18.141  0.00  0.00    +0.132 C 
ATOM     10  C   UNL     1      49.279  16.491  17.850  0.00  0.00    -0.104 C 
ENDROOT
BRANCH   9   8
ATOM      1  C   UNL     1      44.855  22.645  21.681  0.00  0.00    +0.080 C 
ATOM      2  C   UNL     1      45.813  21.717  20.929  0.00  0.00    +0.147 C 
ATOM      3  C   UNL     1      47.253  22.058  21.317  0.00  0.00    +0.032 C 
ATOM      4  C   UNL     1      45.636  21.918  19.448  0.00  0.00    -0.059 C 
ATOM      5  C   UNL     1      45.889  20.918  18.606  0.00  0.00    +0.041 C 
ATOM      6  C   UNL     1      46.328  19.625  19.174  0.00  0.00    -0.148 A 
ATOM      7  C   UNL     1      46.928  18.657  18.385  0.00  0.00    +0.081 A 
ATOM      8  C   UNL     1      47.326  17.447  18.965  0.00  0.00    -0.115 A 
ATOM     23  C   UNL     1      47.117  17.226  20.333  0.00  0.00    +0.114 A 
ATOM     24  C   UNL     1      46.521  18.194  21.112  0.00  0.00    -0.020 A 
ATOM     25  C   UNL     1      46.123  19.394  20.544  0.00  0.00    +0.152 A 
ATOM     26  O   UNL     1      45.536  20.364  21.289  0.00  0.00    -0.305 OA
ENDBRANCH   9   8
BRANCH  10  11
ATOM     11  C   UNL     1      50.117  17.480  18.527  0.00  0.00    +0.412 C 
ATOM     22  O   UNL     1      50.409  17.331  19.701  0.00  0.00    -0.422 OA
BRANCH  11  12
ATOM     12  C   UNL     1      50.609  18.658  17.790  0.00  0.00    -0.201 A 
ATOM     13  C   UNL     1      51.220  18.500  16.541  0.00  0.00    +0.099 A 
ATOM     14  C   UNL     1      51.677  19.602  15.856  0.00  0.00    -0.030 A 
ATOM     15  C   UNL     1      51.536  20.874  16.401  0.00  0.00    +0.156 A 
ATOM     18  C   UNL     1      50.932  21.042  17.638  0.00  0.00    -0.050 A 
ATOM     19  C   UNL     1      50.462  19.942  18.335  0.00  0.00    +0.184 A 
BRANCH  15  16
ATOM     16  O   UNL     1      51.991  21.956  15.719  0.00  0.00    -0.497 OA
ATOM     17  H   UNL     1      51.813  22.800  16.157  0.00  0.00    +0.399 HD
ENDBRANCH  15  16
BRANCH  19  20
ATOM     20  O   UNL     1      49.867  20.105  19.543  0.00  0.00    -0.478 OA
ATOM     21  H   UNL     1      49.629  19.275  19.979  0.00  0.00    +0.399 HD
ENDBRANCH  19  20
ENDBRANCH  11  12
ENDBRANCH  10  11
TORSDOF 5
ENDMDL
MODEL 3
REMARK VINA RESULT:      -5.9      1.680      3.134
REMARK  Name = ZINC95485893
REMARK  7 active torsions:
REMARK  status: ('A' for Active; 'I' for Inactive)
REMARK    1  A    between atoms: C1_1  and  C2_2
REMARK    2  A    between atoms: C2_2  and  C20_24
REMARK    3  A    between atoms: C7_7  and  C11_12
REMARK    4  A    between atoms: C12_13  and  C13_14
REMARK    5  A    between atoms: C13_14  and  C14_16
REMARK    6  A    between atoms: C17_19  and  O4_23
REMARK    7  A    between atoms: C19_21  and  O3_22
REMARK                            x       y       z     vdW  Elec       q    Type
REMARK                         _______ _______ _______ _____ _____    ______ ____
ROOT
ATOM      9  C   UNL     1      47.205  17.731  21.612  0.00  0.00    +0.132 C 
ATOM     10  C   UNL     1      45.943  17.325  21.351  0.00  0.00    -0.104 C 
ENDROOT
BRANCH   9   8
ATOM      1  C   UNL     1      51.752  21.310  16.361  0.00  0.00    +0.080 C 
ATOM      2  C   UNL     1      51.270  20.520  17.580  0.00  0.00    +0.147 C 
ATOM      3  C   UNL     1      52.199  20.801  18.762  0.00  0.00    +0.032 C 
ATOM      4  C   UNL     1      51.303  19.049  17.262  0.00  0.00    -0.059 C 
ATOM      5  C   UNL     1      50.457  18.218  17.868  0.00  0.00    +0.041 C 
ATOM      6  C   UNL     1      49.496  18.788  18.836  0.00  0.00    -0.148 A 
ATOM      7  C   UNL     1      48.826  17.986  19.745  0.00  0.00    +0.081 A 
ATOM      8  C   UNL     1      47.924  18.569  20.642  0.00  0.00    -0.115 A 
ATOM     23  C   UNL     1      47.706  19.953  20.614  0.00  0.00    +0.114 A 
ATOM     24  C   UNL     1      48.376  20.745  19.707  0.00  0.00    -0.020 A 
ATOM     25  C   UNL     1      49.271  20.175  18.816  0.00  0.00    +0.152 A 
ATOM     26  O   UNL     1      49.945  20.932  17.914  0.00  0.00    -0.305 OA
ENDBRANCH   9   8
BRANCH  10  11
ATOM     11  C   UNL     1      45.370  17.531  20.022  0.00  0.00    +0.412 C 
ATOM     22  O   UNL     1      44.520  18.387  19.850  0.00  0.00    -0.422 OA
BRANCH  11  12
ATOM     12  C   UNL     1      45.820  16.703  18.888  0.00  0.00    -0.201 A 
ATOM     13  C   UNL     1      45.944  15.317  19.036  0.00  0.00    +0.099 A 
ATOM     14  C   UNL     1      46.364  14.548  17.976  0.00  0.00    -0.030 A 
ATOM     15  C   UNL     1      46.667  15.142  16.755  0.00  0.00    +0.156 A 
ATOM     18  C   UNL     1      46.547  16.516  16.597  0.00  0.00    -0.050 A 
ATOM     19  C   UNL     1      46.120  17.301  17.654  0.00  0.00    +0.184 A 
BRANCH  15  16
ATOM     16  O   UNL     1      47.082  14.377  15.714  0.00  0.00    -0.497 OA
ATOM     17  H   UNL     1      46.360  14.012  15.183  0.00  0.00    +0.399 HD
ENDBRANCH  15  16
BRANCH  19  20
ATOM     20  O   UNL     1      45.998  18.642  17.501  0.00  0.00    -0.478 OA
ATOM     21  H   UNL     1      46.050  18.939  16.582  0.00  0.00    +0.399 HD
ENDBRANCH  19  20
ENDBRANCH  11  12
ENDBRANCH  10  11
TORSDOF 5
ENDMDL
MODEL 4
REMARK VINA RESULT:      -5.9      1.876      7.184
REMARK  Name = ZINC95485893
REMARK  7 active torsions:
REMARK  status: ('A' for Active; 'I' for Inactive)
REMARK    1  A    between atoms: C1_1  and  C2_2
REMARK    2  A    between atoms: C2_2  and  C20_24
REMARK    3  A    between atoms: C7_7  and  C11_12
REMARK    4  A    between atoms: C12_13  and  C13_14
REMARK    5  A    between atoms: C13_14  and  C14_16
REMARK    6  A    between atoms: C17_19  and  O4_23
REMARK    7  A    between atoms: C19_21  and  O3_22
REMARK                            x       y       z     vdW  Elec       q    Type
REMARK                         _______ _______ _______ _____ _____    ______ ____
ROOT
ATOM      9  C   UNL     1      49.513  20.237  20.753  0.00  0.00    +0.132 C 
ATOM     10  C   UNL     1      50.581  20.366  19.934  0.00  0.00    -0.104 C 
ENDROOT
BRANCH   9   8
ATOM      1  C   UNL     1      42.056  20.333  18.423  0.00  0.00    +0.080 C 
ATOM      2  C   UNL     1      43.315  20.332  19.292  0.00  0.00    +0.147 C 
ATOM      3  C   UNL     1      43.031  19.576  20.591  0.00  0.00    +0.032 C 
ATOM      4  C   UNL     1      43.694  21.753  19.618  0.00  0.00    -0.059 C 
ATOM      5  C   UNL     1      44.968  22.066  19.846  0.00  0.00    +0.041 C 
ATOM      6  C   UNL     1      45.976  20.988  19.756  0.00  0.00    -0.148 A 
ATOM      7  C   UNL     1      47.243  21.138  20.296  0.00  0.00    +0.081 A 
ATOM      8  C   UNL     1      48.165  20.092  20.186  0.00  0.00    -0.115 A 
ATOM     23  C   UNL     1      47.803  18.905  19.533  0.00  0.00    +0.114 A 
ATOM     24  C   UNL     1      46.540  18.763  18.999  0.00  0.00    -0.020 A 
ATOM     25  C   UNL     1      45.621  19.795  19.104  0.00  0.00    +0.152 A 
ATOM     26  O   UNL     1      44.372  19.679  18.589  0.00  0.00    -0.305 OA
ENDBRANCH   9   8
BRANCH  10  11
ATOM     11  C   UNL     1      50.381  20.581  18.502  0.00  0.00    +0.412 C 
ATOM     22  O   UNL     1      49.715  21.524  18.114  0.00  0.00    -0.422 OA
BRANCH  11  12
ATOM     12  C   UNL     1      50.986  19.656  17.527  0.00  0.00    -0.201 A 
ATOM     13  C   UNL     1      50.882  18.273  17.712  0.00  0.00    +0.099 A 
ATOM     14  C   UNL     1      51.448  17.413  16.799  0.00  0.00    -0.030 A 
ATOM     15  C   UNL     1      52.125  17.913  15.691  0.00  0.00    +0.156 A 
ATOM     18  C   UNL     1      52.233  19.282  15.497  0.00  0.00    -0.050 A 
ATOM     19  C   UNL     1      51.664  20.159  16.405  0.00  0.00    +0.184 A 
BRANCH  15  16
ATOM     16  O   UNL     1      52.681  17.058  14.796  0.00  0.00    -0.497 OA
ATOM     17  H   UNL     1      53.039  16.251  15.192  0.00  0.00    +0.399 HD
ENDBRANCH  15  16
BRANCH  19  20
ATOM     20  O   UNL     1      51.765  21.497  16.215  0.00  0.00    -0.478 OA
ATOM     21  H   UNL     1      52.661  21.844  16.326  0.00  0.00    +0.399 HD
ENDBRANCH  19  20
ENDBRANCH  11  12
ENDBRANCH  10  11
TORSDOF 5
ENDMDL
MODEL 5
REMARK VINA RESULT:      -5.7      2.415      6.500
REMARK  Name = ZINC95485893
REMARK  7 active torsions:
REMARK  status: ('A' for Active; 'I' for Inactive)
REMARK    1  A    between atoms: C1_1  and  C2_2
REMARK    2  A    between atoms: C2_2  and  C20_24
REMARK    3  A    between atoms: C7_7  and  C11_12
REMARK    4  A    between atoms: C12_13  and  C13_14
REMARK    5  A    between atoms: C13_14  and  C14_16
REMARK    6  A    between atoms: C17_19  and  O4_23
REMARK    7  A    between atoms: C19_21  and  O3_22
REMARK                            x       y       z     vdW  Elec       q    Type
REMARK                         _______ _______ _______ _____ _____    ______ ____
ROOT
ATOM      9  C   UNL     1      46.513  19.878  19.199  0.00  0.00    +0.132 C 
ATOM     10  C   UNL     1      47.645  20.329  19.783  0.00  0.00    -0.104 C 
ENDROOT
BRANCH   9   8
ATOM      1  C   UNL     1      46.082  12.224  17.687  0.00  0.00    +0.080 C 
ATOM      2  C   UNL     1      46.484  13.576  18.281  0.00  0.00    +0.147 C 
ATOM      3  C   UNL     1      47.974  13.551  18.625  0.00  0.00    +0.032 C 
ATOM      4  C   UNL     1      45.689  13.823  19.535  0.00  0.00    -0.059 C 
ATOM      5  C   UNL     1      45.418  15.070  19.916  0.00  0.00    +0.041 C 
ATOM      6  C   UNL     1      45.908  16.178  19.069  0.00  0.00    -0.148 A 
ATOM      7  C   UNL     1      45.972  17.478  19.545  0.00  0.00    +0.081 A 
ATOM      8  C   UNL     1      46.441  18.495  18.707  0.00  0.00    -0.115 A 
ATOM     23  C   UNL     1      46.841  18.194  17.399  0.00  0.00    +0.114 A 
ATOM     24  C   UNL     1      46.776  16.899  16.931  0.00  0.00    -0.020 A 
ATOM     25  C   UNL     1      46.312  15.886  17.755  0.00  0.00    +0.152 A 
ATOM     26  O   UNL     1      46.239  14.603  17.320  0.00  0.00    -0.305 OA
ENDBRANCH   9   8
BRANCH  10  11
ATOM     11  C   UNL     1      48.864  19.524  19.734  0.00  0.00    +0.412 C 
ATOM     22  O   UNL     1      49.078  18.688  20.594  0.00  0.00    -0.422 OA
BRANCH  11  12
ATOM     12  C   UNL     1      49.835  19.723  18.643  0.00  0.00    -0.201 A 
ATOM     13  C   UNL     1      50.228  21.015  18.278  0.00  0.00    +0.099 A 
ATOM     14  C   UNL     1      51.135  21.196  17.260  0.00  0.00    -0.030 A 
ATOM     15  C   UNL     1      51.664  20.098  16.589  0.00  0.00    +0.156 A 
ATOM     18  C   UNL     1      51.282  18.812  16.942  0.00  0.00    -0.050 A 
ATOM     19  C   UNL     1      50.374  18.616  17.969  0.00  0.00    +0.184 A 
BRANCH  15  16
ATOM     16  O   UNL     1      52.557  20.286  15.584  0.00  0.00    -0.497 OA
ATOM     17  H   UNL     1      52.323  19.835  14.761  0.00  0.00    +0.399 HD
ENDBRANCH  15  16
BRANCH  19  20
ATOM     20  O   UNL     1      50.004  17.359  18.319  0.00  0.00    -0.478 OA
ATOM     21  H   UNL     1      50.737  16.801  18.613  0.00  0.00    +0.399 HD
ENDBRANCH  19  20
ENDBRANCH  11  12
ENDBRANCH  10  11
TORSDOF 5
ENDMDL
MODEL 6
REMARK VINA RESULT:      -5.7      3.259      5.156
REMARK  Name = ZINC95485893
REMARK  7 active torsions:
REMARK  status: ('A' for Active; 'I' for Inactive)
REMARK    1  A    between atoms: C1_1  and  C2_2
REMARK    2  A    between atoms: C2_2  and  C20_24
REMARK    3  A    between atoms: C7_7  and  C11_12
REMARK    4  A    between atoms: C12_13  and  C13_14
REMARK    5  A    between atoms: C13_14  and  C14_16
REMARK    6  A    between atoms: C17_19  and  O4_23
REMARK    7  A    between atoms: C19_21  and  O3_22
REMARK                            x       y       z     vdW  Elec       q    Type
REMARK                         _______ _______ _______ _____ _____    ______ ____
ROOT
ATOM      9  C   UNL     1      47.203  20.929  19.840  0.00  0.00    +0.132 C 
ATOM     10  C   UNL     1      46.330  21.785  20.415  0.00  0.00    -0.104 C 
ENDROOT
BRANCH   9   8
ATOM      1  C   UNL     1      45.684  13.312  18.984  0.00  0.00    +0.080 C 
ATOM      2  C   UNL     1      46.413  14.647  19.157  0.00  0.00    +0.147 C 
ATOM      3  C   UNL     1      47.744  14.594  18.406  0.00  0.00    +0.032 C 
ATOM      4  C   UNL     1      46.677  14.882  20.621  0.00  0.00    -0.059 C 
ATOM      5  C   UNL     1      46.764  16.125  21.090  0.00  0.00    +0.041 C 
ATOM      6  C   UNL     1      46.581  17.242  20.138  0.00  0.00    -0.148 A 
ATOM      7  C   UNL     1      46.980  18.531  20.452  0.00  0.00    +0.081 A 
ATOM      8  C   UNL     1      46.786  19.557  19.521  0.00  0.00    -0.115 A 
ATOM     23  C   UNL     1      46.192  19.275  18.283  0.00  0.00    +0.114 A 
ATOM     24  C   UNL     1      45.798  17.990  17.976  0.00  0.00    -0.020 A 
ATOM     25  C   UNL     1      45.987  16.969  18.894  0.00  0.00    +0.152 A 
ATOM     26  O   UNL     1      45.609  15.696  18.617  0.00  0.00    -0.305 OA
ENDBRANCH   9   8
BRANCH  10  11
ATOM     11  C   UNL     1      45.048  21.293  20.917  0.00  0.00    +0.412 C 
ATOM     22  O   UNL     1      45.001  20.673  21.965  0.00  0.00    -0.422 OA
BRANCH  11  12
ATOM     12  C   UNL     1      43.812  21.547  20.155  0.00  0.00    -0.201 A 
ATOM     13  C   UNL     1      43.487  22.847  19.756  0.00  0.00    +0.099 A 
ATOM     14  C   UNL     1      42.332  23.080  19.045  0.00  0.00    -0.030 A 
ATOM     15  C   UNL     1      41.484  22.025  18.720  0.00  0.00    +0.156 A 
ATOM     18  C   UNL     1      41.797  20.731  19.111  0.00  0.00    -0.050 A 
ATOM     19  C   UNL     1      42.959  20.483  19.822  0.00  0.00    +0.184 A 
BRANCH  15  16
ATOM     16  O   UNL     1      40.347  22.263  18.020  0.00  0.00    -0.497 OA
ATOM     17  H   UNL     1      39.733  21.515  18.001  0.00  0.00    +0.399 HD
ENDBRANCH  15  16
BRANCH  19  20
ATOM     20  O   UNL     1      43.268  19.218  20.200  0.00  0.00    -0.478 OA
ATOM     21  H   UNL     1      43.757  18.717  19.533  0.00  0.00    +0.399 HD
ENDBRANCH  19  20
ENDBRANCH  11  12
ENDBRANCH  10  11
TORSDOF 5
ENDMDL
MODEL 7
REMARK VINA RESULT:      -5.6      1.724      6.460
REMARK  Name = ZINC95485893
REMARK  7 active torsions:
REMARK  status: ('A' for Active; 'I' for Inactive)
REMARK    1  A    between atoms: C1_1  and  C2_2
REMARK    2  A    between atoms: C2_2  and  C20_24
REMARK    3  A    between atoms: C7_7  and  C11_12
REMARK    4  A    between atoms: C12_13  and  C13_14
REMARK    5  A    between atoms: C13_14  and  C14_16
REMARK    6  A    between atoms: C17_19  and  O4_23
REMARK    7  A    between atoms: C19_21  and  O3_22
REMARK                            x       y       z     vdW  Elec       q    Type
REMARK                         _______ _______ _______ _____ _____    ______ ____
ROOT
ATOM      9  C   UNL     1      49.417  17.364  20.650  0.00  0.00    +0.132 C 
ATOM     10  C   UNL     1      50.365  17.078  19.731  0.00  0.00    -0.104 C 
ENDROOT
BRANCH   9   8
ATOM      1  C   UNL     1      42.449  20.321  18.712  0.00  0.00    +0.080 C 
ATOM      2  C   UNL     1      43.725  19.969  19.481  0.00  0.00    +0.147 C 
ATOM      3  C   UNL     1      43.397  19.843  20.970  0.00  0.00    +0.032 C 
ATOM      4  C   UNL     1      44.738  21.066  19.287  0.00  0.00    -0.059 C 
ATOM      5  C   UNL     1      46.039  20.787  19.346  0.00  0.00    +0.041 C 
ATOM      6  C   UNL     1      46.439  19.385  19.591  0.00  0.00    -0.148 A 
ATOM      7  C   UNL     1      47.724  19.062  19.999  0.00  0.00    +0.081 A 
ATOM      8  C   UNL     1      48.058  17.721  20.218  0.00  0.00    -0.115 A 
ATOM     23  C   UNL     1      47.098  16.720  20.025  0.00  0.00    +0.114 A 
ATOM     24  C   UNL     1      45.822  17.048  19.620  0.00  0.00    -0.020 A 
ATOM     25  C   UNL     1      45.483  18.374  19.400  0.00  0.00    +0.152 A 
ATOM     26  O   UNL     1      44.234  18.724  19.003  0.00  0.00    -0.305 OA
ENDBRANCH   9   8
BRANCH  10  11
ATOM     11  C   UNL     1      50.110  17.334  18.314  0.00  0.00    +0.412 C 
ATOM     22  O   UNL     1      49.401  16.577  17.676  0.00  0.00    -0.422 OA
BRANCH  11  12
ATOM     12  C   UNL     1      50.712  18.509  17.657  0.00  0.00    -0.201 A 
ATOM     13  C   UNL     1      50.403  19.798  18.103  0.00  0.00    +0.099 A 
ATOM     14  C   UNL     1      50.966  20.892  17.487  0.00  0.00    -0.030 A 
ATOM     15  C   UNL     1      51.843  20.721  16.420  0.00  0.00    +0.156 A 
ATOM     18  C   UNL     1      52.157  19.447  15.970  0.00  0.00    -0.050 A 
ATOM     19  C   UNL     1      51.601  18.338  16.584  0.00  0.00    +0.184 A 
BRANCH  15  16
ATOM     16  O   UNL     1      52.394  21.805  15.818  0.00  0.00    -0.497 OA
ATOM     17  H   UNL     1      52.626  21.663  14.889  0.00  0.00    +0.399 HD
ENDBRANCH  15  16
BRANCH  19  20
ATOM     20  O   UNL     1      51.910  17.091  16.149  0.00  0.00    -0.478 OA
ATOM     21  H   UNL     1      52.131  16.471  16.857  0.00  0.00    +0.399 HD
ENDBRANCH  19  20
ENDBRANCH  11  12
ENDBRANCH  10  11
TORSDOF 5
ENDMDL
MODEL 8
REMARK VINA RESULT:      -5.5      2.170      3.641
REMARK  Name = ZINC95485893
REMARK  7 active torsions:
REMARK  status: ('A' for Active; 'I' for Inactive)
REMARK    1  A    between atoms: C1_1  and  C2_2
REMARK    2  A    between atoms: C2_2  and  C20_24
REMARK    3  A    between atoms: C7_7  and  C11_12
REMARK    4  A    between atoms: C12_13  and  C13_14
REMARK    5  A    between atoms: C13_14  and  C14_16
REMARK    6  A    between atoms: C17_19  and  O4_23
REMARK    7  A    between atoms: C19_21  and  O3_22
REMARK                            x       y       z     vdW  Elec       q    Type
REMARK                         _______ _______ _______ _____ _____    ______ ____
ROOT
ATOM      9  C   UNL     1      46.514  21.994  21.371  0.00  0.00    +0.132 C 
ATOM     10  C   UNL     1      45.302  22.197  20.809  0.00  0.00    -0.104 C 
ENDROOT
BRANCH   9   8
ATOM      1  C   UNL     1      51.254  16.792  17.979  0.00  0.00    +0.080 C 
ATOM      2  C   UNL     1      50.149  17.822  18.219  0.00  0.00    +0.147 C 
ATOM      3  C   UNL     1      48.941  17.478  17.346  0.00  0.00    +0.032 C 
ATOM      4  C   UNL     1      50.657  19.190  17.847  0.00  0.00    -0.059 C 
ATOM      5  C   UNL     1      50.164  20.270  18.450  0.00  0.00    +0.041 C 
ATOM      6  C   UNL     1      49.129  20.075  19.489  0.00  0.00    -0.148 A 
ATOM      7  C   UNL     1      48.332  21.123  19.919  0.00  0.00    +0.081 A 
ATOM      8  C   UNL     1      47.366  20.892  20.905  0.00  0.00    -0.115 A 
ATOM     23  C   UNL     1      47.213  19.609  21.447  0.00  0.00    +0.114 A 
ATOM     24  C   UNL     1      48.009  18.570  21.014  0.00  0.00    -0.020 A 
ATOM     25  C   UNL     1      48.968  18.792  20.038  0.00  0.00    +0.152 A 
ATOM     26  O   UNL     1      49.763  17.786  19.593  0.00  0.00    -0.305 OA
ENDBRANCH   9   8
BRANCH  10  11
ATOM     11  C   UNL     1      44.746  21.201  19.894  0.00  0.00    +0.412 C 
ATOM     22  O   UNL     1      45.211  21.073  18.775  0.00  0.00    -0.422 OA
BRANCH  11  12
ATOM     12  C   UNL     1      43.621  20.352  20.326  0.00  0.00    -0.201 A 
ATOM     13  C   UNL     1      43.729  19.580  21.487  0.00  0.00    +0.099 A 
ATOM     14  C   UNL     1      42.676  18.789  21.886  0.00  0.00    -0.030 A 
ATOM     15  C   UNL     1      41.503  18.752  21.139  0.00  0.00    +0.156 A 
ATOM     18  C   UNL     1      41.385  19.515  19.986  0.00  0.00    -0.050 A 
ATOM     19  C   UNL     1      42.434  20.319  19.576  0.00  0.00    +0.184 A 
BRANCH  15  16
ATOM     16  O   UNL     1      40.470  17.968  21.539  0.00  0.00    -0.497 OA
ATOM     17  H   UNL     1      40.329  17.190  20.983  0.00  0.00    +0.399 HD
ENDBRANCH  15  16
BRANCH  19  20
ATOM     20  O   UNL     1      42.319  21.069  18.452  0.00  0.00    -0.478 OA
ATOM     21  H   UNL     1      42.668  20.642  17.657  0.00  0.00    +0.399 HD
ENDBRANCH  19  20
ENDBRANCH  11  12
ENDBRANCH  10  11
TORSDOF 5
ENDMDL
MODEL 9
REMARK VINA RESULT:      -5.4      2.787      5.205
REMARK  Name = ZINC95485893
REMARK  7 active torsions:
REMARK  status: ('A' for Active; 'I' for Inactive)
REMARK    1  A    between atoms: C1_1  and  C2_2
REMARK    2  A    between atoms: C2_2  and  C20_24
REMARK    3  A    between atoms: C7_7  and  C11_12
REMARK    4  A    between atoms: C12_13  and  C13_14
REMARK    5  A    between atoms: C13_14  and  C14_16
REMARK    6  A    between atoms: C17_19  and  O4_23
REMARK    7  A    between atoms: C19_21  and  O3_22
REMARK                            x       y       z     vdW  Elec       q    Type
REMARK                         _______ _______ _______ _____ _____    ______ ____
ROOT
ATOM      9  C   UNL     1      47.200  18.545  20.130  0.00  0.00    +0.132 C 
ATOM     10  C   UNL     1      46.345  19.585  20.011  0.00  0.00    -0.104 C 
ENDROOT
BRANCH   9   8
ATOM      1  C   UNL     1      45.906  11.676  16.638  0.00  0.00    +0.080 C 
ATOM      2  C   UNL     1      46.367  12.748  17.627  0.00  0.00    +0.147 C 
ATOM      3  C   UNL     1      47.705  12.328  18.238  0.00  0.00    +0.032 C 
ATOM      4  C   UNL     1      45.343  12.886  18.723  0.00  0.00    -0.059 C 
ATOM      5  C   UNL     1      45.195  14.050  19.352  0.00  0.00    +0.041 C 
ATOM      6  C   UNL     1      46.049  15.181  18.932  0.00  0.00    -0.148 A 
ATOM      7  C   UNL     1      46.206  16.302  19.731  0.00  0.00    +0.081 A 
ATOM      8  C   UNL     1      47.024  17.349  19.293  0.00  0.00    -0.115 A 
ATOM     23  C   UNL     1      47.675  17.258  18.056  0.00  0.00    +0.114 A 
ATOM     24  C   UNL     1      47.515  16.139  17.266  0.00  0.00    -0.020 A 
ATOM     25  C   UNL     1      46.706  15.098  17.693  0.00  0.00    +0.152 A 
ATOM     26  O   UNL     1      46.534  13.986  16.936  0.00  0.00    -0.305 OA
ENDBRANCH   9   8
BRANCH  10  11
ATOM     11  C   UNL     1      45.126  19.441  19.216  0.00  0.00    +0.412 C 
ATOM     22  O   UNL     1      45.183  19.478  18.000  0.00  0.00    -0.422 OA
BRANCH  11  12
ATOM     12  C   UNL     1      43.827  19.252  19.887  0.00  0.00    -0.201 A 
ATOM     13  C   UNL     1      43.752  18.525  21.080  0.00  0.00    +0.099 A 
ATOM     14  C   UNL     1      42.537  18.351  21.703  0.00  0.00    -0.030 A 
ATOM     15  C   UNL     1      41.382  18.896  21.151  0.00  0.00    +0.156 A 
ATOM     18  C   UNL     1      41.445  19.620  19.969  0.00  0.00    -0.050 A 
ATOM     19  C   UNL     1      42.662  19.807  19.335  0.00  0.00    +0.184 A 
BRANCH  15  16
ATOM     16  O   UNL     1      40.188  18.719  21.772  0.00  0.00    -0.497 OA
ATOM     17  H   UNL     1      40.262  18.489  22.708  0.00  0.00    +0.399 HD
ENDBRANCH  15  16
BRANCH  19  20
ATOM     20  O   UNL     1      42.727  20.518  18.183  0.00  0.00    -0.478 OA
ATOM     21  H   UNL     1      43.358  20.168  17.539  0.00  0.00    +0.399 HD
ENDBRANCH  19  20
ENDBRANCH  11  12
ENDBRANCH  10  11
TORSDOF 5
ENDMDL
