MODEL 1
REMARK VINA RESULT:      -7.2      0.000      0.000
REMARK  Name = ZINC95486155
REMARK  11 active torsions:
REMARK  status: ('A' for Active; 'I' for Inactive)
REMARK    1  A    between atoms: C1_1  and  C2_2
REMARK    2  A    between atoms: C6_6  and  O3_28
REMARK    3  A    between atoms: C8_8  and  C22_27
REMARK    4  A    between atoms: C9_9  and  C10_10
REMARK    5  A    between atoms: C11_11  and  O2_26
REMARK    6  A    between atoms: C13_13  and  O1_25
REMARK    7  A    between atoms: C17_17  and  C21_24
REMARK    8  A    between atoms: N1_19  and  C20_23
REMARK    9  A    between atoms: C18_20  and  C19_22
REMARK   10  A    between atoms: C23_29  and  O4_31
REMARK   11  A    between atoms: O4_31  and  C25_32
REMARK                            x       y       z     vdW  Elec       q    Type
REMARK                         _______ _______ _______ _____ _____    ______ ____
ROOT
ATOM     16  C   UNL     1      44.018  18.599  20.612  0.00  0.00    -0.048 A 
ATOM     17  C   UNL     1      43.397  18.072  21.747  0.00  0.00    +0.170 A 
ATOM     20  C   UNL     1      43.617  16.751  22.097  0.00  0.00    -0.016 A 
ATOM     21  C   UNL     1      44.450  15.962  21.321  0.00  0.00    +0.159 A 
ATOM     24  C   UNL     1      45.073  16.484  20.189  0.00  0.00    -0.162 A 
ATOM     25  C   UNL     1      45.972  15.584  19.383  0.00  0.00    +0.236 C 
ATOM     26  C   UNL     1      45.334  14.198  19.276  0.00  0.00    +0.091 C 
ATOM     27  N   UNL     1      46.162  16.124  18.031  0.00  0.00    -0.382 N 
ATOM     28  H   UNL     1      45.288  16.112  17.529  0.00  0.00    +0.425 HD
ATOM     29  C   UNL     1      47.153  15.309  17.315  0.00  0.00    +0.325 C 
ATOM     30  C   UNL     1      46.650  17.508  18.140  0.00  0.00    +0.175 C 
ATOM     31  C   UNL     1      47.793  17.576  19.155  0.00  0.00    +0.089 C 
ATOM     32  C   UNL     1      45.494  18.394  18.606  0.00  0.00    +0.131 C 
ATOM     33  C   UNL     1      44.852  17.794  19.831  0.00  0.00    -0.040 A 
ENDROOT
BRANCH  16  15
ATOM      1  C   UNL     1      47.985  21.312  22.478  0.00  0.00    +0.094 C 
ATOM      2  C   UNL     1      46.751  21.669  21.690  0.00  0.00    -0.015 A 
ATOM      3  C   UNL     1      45.871  20.690  21.341  0.00  0.00    -0.058 A 
ATOM      4  C   UNL     1      44.720  21.011  20.607  0.00  0.00    +0.030 A 
ATOM      5  C   UNL     1      44.483  22.356  20.235  0.00  0.00    -0.113 A 
ATOM      6  C   UNL     1      45.409  23.349  20.608  0.00  0.00    +0.174 A 
ATOM      9  C   UNL     1      43.327  22.679  19.497  0.00  0.00    +0.172 A 
ATOM     12  C   UNL     1      42.439  21.687  19.144  0.00  0.00    -0.033 A 
ATOM     13  C   UNL     1      42.664  20.366  19.506  0.00  0.00    -0.012 A 
ATOM     14  C   UNL     1      41.672  19.303  19.107  0.00  0.00    +0.098 C 
ATOM     15  C   UNL     1      43.788  20.013  20.232  0.00  0.00    -0.090 A 
ATOM     34  C   UNL     1      46.527  22.995  21.334  0.00  0.00    -0.104 A 
BRANCH   6   7
ATOM      7  O   UNL     1      45.201  24.645  20.261  0.00  0.00    -0.293 OA
ATOM      8  C   UNL     1      45.935  25.637  20.984  0.00  0.00    +0.248 C 
ENDBRANCH   6   7
BRANCH   9  10
ATOM     10  O   UNL     1      43.089  23.966  19.134  0.00  0.00    -0.480 OA
ATOM     11  H   UNL     1      43.356  24.175  18.227  0.00  0.00    +0.399 HD
ENDBRANCH   9  10
ENDBRANCH  16  15
BRANCH  17  18
ATOM     18  O   UNL     1      42.582  18.852  22.505  0.00  0.00    -0.482 OA
ATOM     19  H   UNL     1      41.761  18.417  22.774  0.00  0.00    +0.402 HD
ENDBRANCH  17  18
BRANCH  21  22
ATOM     22  O   UNL     1      44.664  14.665  21.668  0.00  0.00    -0.489 OA
ATOM     23  H   UNL     1      45.587  14.458  21.872  0.00  0.00    +0.401 HD
ENDBRANCH  21  22
TORSDOF 5
ENDMDL
MODEL 2
REMARK VINA RESULT:      -5.9      4.347      5.991
REMARK  Name = ZINC95486155
REMARK  11 active torsions:
REMARK  status: ('A' for Active; 'I' for Inactive)
REMARK    1  A    between atoms: C1_1  and  C2_2
REMARK    2  A    between atoms: C6_6  and  O3_28
REMARK    3  A    between atoms: C8_8  and  C22_27
REMARK    4  A    between atoms: C9_9  and  C10_10
REMARK    5  A    between atoms: C11_11  and  O2_26
REMARK    6  A    between atoms: C13_13  and  O1_25
REMARK    7  A    between atoms: C17_17  and  C21_24
REMARK    8  A    between atoms: N1_19  and  C20_23
REMARK    9  A    between atoms: C18_20  and  C19_22
REMARK   10  A    between atoms: C23_29  and  O4_31
REMARK   11  A    between atoms: O4_31  and  C25_32
REMARK                            x       y       z     vdW  Elec       q    Type
REMARK                         _______ _______ _______ _____ _____    ______ ____
ROOT
ATOM     16  C   UNL     1      48.082  17.057  18.178  0.00  0.00    -0.048 A 
ATOM     17  C   UNL     1      46.991  17.290  17.336  0.00  0.00    +0.170 A 
ATOM     20  C   UNL     1      46.553  16.286  16.489  0.00  0.00    -0.016 A 
ATOM     21  C   UNL     1      47.197  15.059  16.483  0.00  0.00    +0.159 A 
ATOM     24  C   UNL     1      48.285  14.823  17.321  0.00  0.00    -0.162 A 
ATOM     25  C   UNL     1      48.947  13.471  17.276  0.00  0.00    +0.236 C 
ATOM     26  C   UNL     1      49.048  13.007  15.822  0.00  0.00    +0.091 C 
ATOM     27  N   UNL     1      50.298  13.540  17.846  0.00  0.00    -0.382 N 
ATOM     28  H   UNL     1      50.886  14.123  17.269  0.00  0.00    +0.425 HD
ATOM     29  C   UNL     1      50.866  12.188  17.923  0.00  0.00    +0.325 C 
ATOM     30  C   UNL     1      50.211  14.115  19.198  0.00  0.00    +0.175 C 
ATOM     31  C   UNL     1      49.089  13.430  19.981  0.00  0.00    +0.089 C 
ATOM     32  C   UNL     1      49.912  15.610  19.072  0.00  0.00    +0.131 C 
ATOM     33  C   UNL     1      48.730  15.819  18.160  0.00  0.00    -0.040 A 
ENDROOT
BRANCH  16  15
ATOM      1  C   UNL     1      51.908  19.505  15.741  0.00  0.00    +0.094 C 
ATOM      2  C   UNL     1      51.250  19.669  17.087  0.00  0.00    -0.015 A 
ATOM      3  C   UNL     1      50.234  18.835  17.443  0.00  0.00    -0.058 A 
ATOM      4  C   UNL     1      49.613  18.980  18.692  0.00  0.00    +0.030 A 
ATOM      5  C   UNL     1      50.052  19.996  19.575  0.00  0.00    -0.113 A 
ATOM      6  C   UNL     1      51.104  20.845  19.182  0.00  0.00    +0.174 A 
ATOM      9  C   UNL     1      49.428  20.142  20.831  0.00  0.00    +0.172 A 
ATOM     12  C   UNL     1      48.400  19.298  21.188  0.00  0.00    -0.033 A 
ATOM     13  C   UNL     1      47.965  18.298  20.328  0.00  0.00    -0.012 A 
ATOM     14  C   UNL     1      46.839  17.389  20.749  0.00  0.00    +0.098 C 
ATOM     15  C   UNL     1      48.555  18.126  19.088  0.00  0.00    -0.090 A 
ATOM     34  C   UNL     1      51.692  20.669  17.948  0.00  0.00    -0.104 A 
BRANCH   6   7
ATOM      7  O   UNL     1      51.539  21.826  20.014  0.00  0.00    -0.293 OA
ATOM      8  C   UNL     1      52.949  21.908  20.240  0.00  0.00    +0.248 C 
ENDBRANCH   6   7
BRANCH   9  10
ATOM     10  O   UNL     1      49.840  21.113  21.686  0.00  0.00    -0.480 OA
ATOM     11  H   UNL     1      49.481  21.029  22.580  0.00  0.00    +0.399 HD
ENDBRANCH   9  10
ENDBRANCH  16  15
BRANCH  17  18
ATOM     18  O   UNL     1      46.361  18.494  17.349  0.00  0.00    -0.482 OA
ATOM     19  H   UNL     1      46.721  19.118  17.994  0.00  0.00    +0.402 HD
ENDBRANCH  17  18
BRANCH  21  22
ATOM     22  O   UNL     1      46.764  14.076  15.650  0.00  0.00    -0.489 OA
ATOM     23  H   UNL     1      45.962  13.629  15.952  0.00  0.00    +0.401 HD
ENDBRANCH  21  22
TORSDOF 5
ENDMDL
MODEL 3
REMARK VINA RESULT:      -5.9      4.385      8.206
REMARK  Name = ZINC95486155
REMARK  11 active torsions:
REMARK  status: ('A' for Active; 'I' for Inactive)
REMARK    1  A    between atoms: C1_1  and  C2_2
REMARK    2  A    between atoms: C6_6  and  O3_28
REMARK    3  A    between atoms: C8_8  and  C22_27
REMARK    4  A    between atoms: C9_9  and  C10_10
REMARK    5  A    between atoms: C11_11  and  O2_26
REMARK    6  A    between atoms: C13_13  and  O1_25
REMARK    7  A    between atoms: C17_17  and  C21_24
REMARK    8  A    between atoms: N1_19  and  C20_23
REMARK    9  A    between atoms: C18_20  and  C19_22
REMARK   10  A    between atoms: C23_29  and  O4_31
REMARK   11  A    between atoms: O4_31  and  C25_32
REMARK                            x       y       z     vdW  Elec       q    Type
REMARK                         _______ _______ _______ _____ _____    ______ ____
ROOT
ATOM     16  C   UNL     1      49.983  19.683  19.363  0.00  0.00    -0.048 A 
ATOM     17  C   UNL     1      50.758  20.114  20.443  0.00  0.00    +0.170 A 
ATOM     20  C   UNL     1      50.154  20.782  21.495  0.00  0.00    -0.016 A 
ATOM     21  C   UNL     1      48.789  21.017  21.470  0.00  0.00    +0.159 A 
ATOM     24  C   UNL     1      48.013  20.588  20.395  0.00  0.00    -0.162 A 
ATOM     25  C   UNL     1      46.534  20.867  20.420  0.00  0.00    +0.236 C 
ATOM     26  C   UNL     1      46.295  22.279  20.959  0.00  0.00    +0.091 C 
ATOM     27  N   UNL     1      45.970  20.775  19.067  0.00  0.00    -0.382 N 
ATOM     28  H   UNL     1      46.349  21.506  18.485  0.00  0.00    +0.425 HD
ATOM     29  C   UNL     1      44.508  20.907  19.137  0.00  0.00    +0.325 C 
ATOM     30  C   UNL     1      46.318  19.463  18.500  0.00  0.00    +0.175 C 
ATOM     31  C   UNL     1      46.028  18.362  19.522  0.00  0.00    +0.089 C 
ATOM     32  C   UNL     1      47.808  19.464  18.154  0.00  0.00    +0.131 C 
ATOM     33  C   UNL     1      48.608  19.931  19.342  0.00  0.00    -0.040 A 
ENDROOT
BRANCH  16  15
ATOM      1  C   UNL     1      49.322  14.644  20.225  0.00  0.00    +0.094 C 
ATOM      2  C   UNL     1      49.987  15.441  19.132  0.00  0.00    -0.015 A 
ATOM      3  C   UNL     1      49.989  16.801  19.200  0.00  0.00    -0.058 A 
ATOM      4  C   UNL     1      50.604  17.552  18.188  0.00  0.00    +0.030 A 
ATOM      5  C   UNL     1      51.220  16.886  17.101  0.00  0.00    -0.113 A 
ATOM      6  C   UNL     1      51.203  15.479  17.055  0.00  0.00    +0.174 A 
ATOM      9  C   UNL     1      51.837  17.640  16.083  0.00  0.00    +0.172 A 
ATOM     12  C   UNL     1      51.838  19.016  16.153  0.00  0.00    -0.033 A 
ATOM     13  C   UNL     1      51.236  19.676  17.217  0.00  0.00    -0.012 A 
ATOM     14  C   UNL     1      51.255  21.183  17.266  0.00  0.00    +0.098 C 
ATOM     15  C   UNL     1      50.622  18.967  18.234  0.00  0.00    -0.090 A 
ATOM     34  C   UNL     1      50.593  14.775  18.071  0.00  0.00    -0.104 A 
BRANCH   6   7
ATOM      7  O   UNL     1      51.787  14.820  16.021  0.00  0.00    -0.293 OA
ATOM      8  C   UNL     1      51.120  13.653  15.535  0.00  0.00    +0.248 C 
ENDBRANCH   6   7
BRANCH   9  10
ATOM     10  O   UNL     1      52.431  17.012  15.036  0.00  0.00    -0.480 OA
ATOM     11  H   UNL     1      52.066  17.255  14.173  0.00  0.00    +0.399 HD
ENDBRANCH   9  10
ENDBRANCH  16  15
BRANCH  17  18
ATOM     18  O   UNL     1      52.096  19.878  20.463  0.00  0.00    -0.482 OA
ATOM     19  H   UNL     1      52.581  20.421  21.100  0.00  0.00    +0.402 HD
ENDBRANCH  17  18
BRANCH  21  22
ATOM     22  O   UNL     1      48.200  21.673  22.505  0.00  0.00    -0.489 OA
ATOM     23  H   UNL     1      48.116  22.626  22.371  0.00  0.00    +0.401 HD
ENDBRANCH  21  22
TORSDOF 5
ENDMDL
MODEL 4
REMARK VINA RESULT:      -5.8      3.252      6.876
REMARK  Name = ZINC95486155
REMARK  11 active torsions:
REMARK  status: ('A' for Active; 'I' for Inactive)
REMARK    1  A    between atoms: C1_1  and  C2_2
REMARK    2  A    between atoms: C6_6  and  O3_28
REMARK    3  A    between atoms: C8_8  and  C22_27
REMARK    4  A    between atoms: C9_9  and  C10_10
REMARK    5  A    between atoms: C11_11  and  O2_26
REMARK    6  A    between atoms: C13_13  and  O1_25
REMARK    7  A    between atoms: C17_17  and  C21_24
REMARK    8  A    between atoms: N1_19  and  C20_23
REMARK    9  A    between atoms: C18_20  and  C19_22
REMARK   10  A    between atoms: C23_29  and  O4_31
REMARK   11  A    between atoms: O4_31  and  C25_32
REMARK                            x       y       z     vdW  Elec       q    Type
REMARK                         _______ _______ _______ _____ _____    ______ ____
ROOT
ATOM     16  C   UNL     1      47.306  20.374  20.953  0.00  0.00    -0.048 A 
ATOM     17  C   UNL     1      47.818  21.439  21.700  0.00  0.00    +0.170 A 
ATOM     20  C   UNL     1      47.043  22.569  21.900  0.00  0.00    -0.016 A 
ATOM     21  C   UNL     1      45.769  22.636  21.361  0.00  0.00    +0.159 A 
ATOM     24  C   UNL     1      45.255  21.575  20.616  0.00  0.00    -0.162 A 
ATOM     25  C   UNL     1      43.863  21.699  20.056  0.00  0.00    +0.236 C 
ATOM     26  C   UNL     1      43.659  23.117  19.520  0.00  0.00    +0.091 C 
ATOM     27  N   UNL     1      43.664  20.745  18.958  0.00  0.00    -0.382 N 
ATOM     28  H   UNL     1      44.265  20.982  18.182  0.00  0.00    +0.425 HD
ATOM     29  C   UNL     1      42.261  20.784  18.524  0.00  0.00    +0.325 C 
ATOM     30  C   UNL     1      43.993  19.395  19.441  0.00  0.00    +0.175 C 
ATOM     31  C   UNL     1      43.320  19.150  20.793  0.00  0.00    +0.089 C 
ATOM     32  C   UNL     1      45.511  19.290  19.595  0.00  0.00    +0.131 C 
ATOM     33  C   UNL     1      46.023  20.453  20.407  0.00  0.00    -0.040 A 
ENDROOT
BRANCH  16  15
ATOM      1  C   UNL     1      50.711  21.524  17.257  0.00  0.00    +0.094 C 
ATOM      2  C   UNL     1      50.432  20.290  18.076  0.00  0.00    -0.015 A 
ATOM      3  C   UNL     1      49.432  20.310  19.000  0.00  0.00    -0.058 A 
ATOM      4  C   UNL     1      49.164  19.168  19.768  0.00  0.00    +0.030 A 
ATOM      5  C   UNL     1      49.940  18.000  19.575  0.00  0.00    -0.113 A 
ATOM      6  C   UNL     1      50.968  18.006  18.613  0.00  0.00    +0.174 A 
ATOM      9  C   UNL     1      49.671  16.852  20.347  0.00  0.00    +0.172 A 
ATOM     12  C   UNL     1      48.660  16.875  21.281  0.00  0.00    -0.033 A 
ATOM     13  C   UNL     1      47.894  18.017  21.476  0.00  0.00    -0.012 A 
ATOM     14  C   UNL     1      46.793  18.010  22.505  0.00  0.00    +0.098 C 
ATOM     15  C   UNL     1      48.129  19.162  20.735  0.00  0.00    -0.090 A 
ATOM     34  C   UNL     1      51.198  19.146  17.874  0.00  0.00    -0.104 A 
BRANCH   6   7
ATOM      7  O   UNL     1      51.725  16.896  18.412  0.00  0.00    -0.293 OA
ATOM      8  C   UNL     1      51.848  16.430  17.066  0.00  0.00    +0.248 C 
ENDBRANCH   6   7
BRANCH   9  10
ATOM     10  O   UNL     1      50.409  15.726  20.170  0.00  0.00    -0.480 OA
ATOM     11  H   UNL     1      50.210  15.249  19.352  0.00  0.00    +0.399 HD
ENDBRANCH   9  10
ENDBRANCH  16  15
BRANCH  17  18
ATOM     18  O   UNL     1      49.067  21.366  22.229  0.00  0.00    -0.482 OA
ATOM     19  H   UNL     1      49.743  21.816  21.703  0.00  0.00    +0.402 HD
ENDBRANCH  17  18
BRANCH  21  22
ATOM     22  O   UNL     1      45.011  23.747  21.561  0.00  0.00    -0.489 OA
ATOM     23  H   UNL     1      44.654  23.824  22.456  0.00  0.00    +0.401 HD
ENDBRANCH  21  22
TORSDOF 5
ENDMDL
MODEL 5
REMARK VINA RESULT:      -5.5      2.212      6.882
REMARK  Name = ZINC95486155
REMARK  11 active torsions:
REMARK  status: ('A' for Active; 'I' for Inactive)
REMARK    1  A    between atoms: C1_1  and  C2_2
REMARK    2  A    between atoms: C6_6  and  O3_28
REMARK    3  A    between atoms: C8_8  and  C22_27
REMARK    4  A    between atoms: C9_9  and  C10_10
REMARK    5  A    between atoms: C11_11  and  O2_26
REMARK    6  A    between atoms: C13_13  and  O1_25
REMARK    7  A    between atoms: C17_17  and  C21_24
REMARK    8  A    between atoms: N1_19  and  C20_23
REMARK    9  A    between atoms: C18_20  and  C19_22
REMARK   10  A    between atoms: C23_29  and  O4_31
REMARK   11  A    between atoms: O4_31  and  C25_32
REMARK                            x       y       z     vdW  Elec       q    Type
REMARK                         _______ _______ _______ _____ _____    ______ ____
ROOT
ATOM     16  C   UNL     1      45.798  18.284  21.015  0.00  0.00    -0.048 A 
ATOM     17  C   UNL     1      46.694  18.685  22.009  0.00  0.00    +0.170 A 
ATOM     20  C   UNL     1      46.633  19.976  22.505  0.00  0.00    -0.016 A 
ATOM     21  C   UNL     1      45.685  20.859  22.015  0.00  0.00    +0.159 A 
ATOM     24  C   UNL     1      44.789  20.462  21.024  0.00  0.00    -0.162 A 
ATOM     25  C   UNL     1      43.777  21.461  20.529  0.00  0.00    +0.236 C 
ATOM     26  C   UNL     1      44.446  22.829  20.384  0.00  0.00    +0.091 C 
ATOM     27  N   UNL     1      43.248  21.052  19.221  0.00  0.00    -0.382 N 
ATOM     28  H   UNL     1      43.981  21.080  18.529  0.00  0.00    +0.425 HD
ATOM     29  C   UNL     1      42.163  21.961  18.827  0.00  0.00    +0.325 C 
ATOM     30  C   UNL     1      42.726  19.681  19.331  0.00  0.00    +0.175 C 
ATOM     31  C   UNL     1      41.849  19.560  20.579  0.00  0.00    +0.089 C 
ATOM     32  C   UNL     1      43.909  18.718  19.438  0.00  0.00    +0.131 C 
ATOM     33  C   UNL     1      44.850  19.183  20.521  0.00  0.00    -0.040 A 
ENDROOT
BRANCH  16  15
ATOM      1  C   UNL     1      49.490  18.234  17.417  0.00  0.00    +0.094 C 
ATOM      2  C   UNL     1      48.550  17.192  17.967  0.00  0.00    -0.015 A 
ATOM      3  C   UNL     1      47.666  17.535  18.944  0.00  0.00    -0.058 A 
ATOM      4  C   UNL     1      46.787  16.574  19.464  0.00  0.00    +0.030 A 
ATOM      5  C   UNL     1      46.829  15.249  18.965  0.00  0.00    -0.113 A 
ATOM      6  C   UNL     1      47.753  14.921  17.955  0.00  0.00    +0.174 A 
ATOM      9  C   UNL     1      45.947  14.282  19.488  0.00  0.00    +0.172 A 
ATOM     12  C   UNL     1      45.053  14.631  20.477  0.00  0.00    -0.033 A 
ATOM     13  C   UNL     1      45.007  15.928  20.970  0.00  0.00    -0.012 A 
ATOM     14  C   UNL     1      44.016  16.280  22.051  0.00  0.00    +0.098 C 
ATOM     15  C   UNL     1      45.857  16.903  20.480  0.00  0.00    -0.090 A 
ATOM     34  C   UNL     1      48.597  15.895  17.466  0.00  0.00    -0.104 A 
BRANCH   6   7
ATOM      7  O   UNL     1      47.810  13.656  17.464  0.00  0.00    -0.293 OA
ATOM      8  C   UNL     1      47.785  13.511  16.042  0.00  0.00    +0.248 C 
ENDBRANCH   6   7
BRANCH   9  10
ATOM     10  O   UNL     1      45.978  13.008  19.017  0.00  0.00    -0.480 OA
ATOM     11  H   UNL     1      46.104  12.945  18.060  0.00  0.00    +0.399 HD
ENDBRANCH   9  10
ENDBRANCH  16  15
BRANCH  17  18
ATOM     18  O   UNL     1      47.620  17.814  22.489  0.00  0.00    -0.482 OA
ATOM     19  H   UNL     1      47.586  17.693  23.448  0.00  0.00    +0.402 HD
ENDBRANCH  17  18
BRANCH  21  22
ATOM     22  O   UNL     1      45.628  22.126  22.505  0.00  0.00    -0.489 OA
ATOM     23  H   UNL     1      46.194  22.276  23.274  0.00  0.00    +0.401 HD
ENDBRANCH  21  22
TORSDOF 5
ENDMDL
MODEL 6
REMARK VINA RESULT:      -5.4      2.871      4.801
REMARK  Name = ZINC95486155
REMARK  11 active torsions:
REMARK  status: ('A' for Active; 'I' for Inactive)
REMARK    1  A    between atoms: C1_1  and  C2_2
REMARK    2  A    between atoms: C6_6  and  O3_28
REMARK    3  A    between atoms: C8_8  and  C22_27
REMARK    4  A    between atoms: C9_9  and  C10_10
REMARK    5  A    between atoms: C11_11  and  O2_26
REMARK    6  A    between atoms: C13_13  and  O1_25
REMARK    7  A    between atoms: C17_17  and  C21_24
REMARK    8  A    between atoms: N1_19  and  C20_23
REMARK    9  A    between atoms: C18_20  and  C19_22
REMARK   10  A    between atoms: C23_29  and  O4_31
REMARK   11  A    between atoms: O4_31  and  C25_32
REMARK                            x       y       z     vdW  Elec       q    Type
REMARK                         _______ _______ _______ _____ _____    ______ ____
ROOT
ATOM     16  C   UNL     1      48.345  18.389  20.392  0.00  0.00    -0.048 A 
ATOM     17  C   UNL     1      48.954  18.542  21.640  0.00  0.00    +0.170 A 
ATOM     20  C   UNL     1      50.012  17.721  21.991  0.00  0.00    -0.016 A 
ATOM     21  C   UNL     1      50.459  16.756  21.104  0.00  0.00    +0.159 A 
ATOM     24  C   UNL     1      49.854  16.600  19.858  0.00  0.00    -0.162 A 
ATOM     25  C   UNL     1      50.382  15.538  18.930  0.00  0.00    +0.236 C 
ATOM     26  C   UNL     1      50.699  14.277  19.736  0.00  0.00    +0.091 C 
ATOM     27  N   UNL     1      49.384  15.206  17.906  0.00  0.00    -0.382 N 
ATOM     28  H   UNL     1      48.577  14.780  18.336  0.00  0.00    +0.425 HD
ATOM     29  C   UNL     1      49.972  14.277  16.932  0.00  0.00    +0.325 C 
ATOM     30  C   UNL     1      48.981  16.445  17.223  0.00  0.00    +0.175 C 
ATOM     31  C   UNL     1      50.222  17.254  16.842  0.00  0.00    +0.089 C 
ATOM     32  C   UNL     1      48.106  17.263  18.174  0.00  0.00    +0.131 C 
ATOM     33  C   UNL     1      48.797  17.408  19.506  0.00  0.00    -0.040 A 
ENDROOT
BRANCH  16  15
ATOM      1  C   UNL     1      44.060  16.169  22.208  0.00  0.00    +0.094 C 
ATOM      2  C   UNL     1      44.338  17.431  21.431  0.00  0.00    -0.015 A 
ATOM      3  C   UNL     1      45.620  17.744  21.095  0.00  0.00    -0.058 A 
ATOM      4  C   UNL     1      45.889  18.915  20.372  0.00  0.00    +0.030 A 
ATOM      5  C   UNL     1      44.820  19.765  19.998  0.00  0.00    -0.113 A 
ATOM      6  C   UNL     1      43.504  19.418  20.358  0.00  0.00    +0.174 A 
ATOM      9  C   UNL     1      45.090  20.943  19.272  0.00  0.00    +0.172 A 
ATOM     12  C   UNL     1      46.388  21.258  18.934  0.00  0.00    -0.033 A 
ATOM     13  C   UNL     1      47.441  20.429  19.298  0.00  0.00    -0.012 A 
ATOM     14  C   UNL     1      48.850  20.800  18.911  0.00  0.00    +0.098 C 
ATOM     15  C   UNL     1      47.212  19.264  20.009  0.00  0.00    -0.090 A 
ATOM     34  C   UNL     1      43.278  18.256  21.064  0.00  0.00    -0.104 A 
BRANCH   6   7
ATOM      7  O   UNL     1      42.464  20.219  20.009  0.00  0.00    -0.293 OA
ATOM      8  C   UNL     1      41.292  19.577  19.501  0.00  0.00    +0.248 C 
ENDBRANCH   6   7
BRANCH   9  10
ATOM     10  O   UNL     1      44.073  21.765  18.908  0.00  0.00    -0.480 OA
ATOM     11  H   UNL     1      43.303  21.722  19.493  0.00  0.00    +0.399 HD
ENDBRANCH   9  10
ENDBRANCH  16  15
BRANCH  17  18
ATOM     18  O   UNL     1      48.513  19.493  22.505  0.00  0.00    -0.482 OA
ATOM     19  H   UNL     1      48.197  20.299  22.074  0.00  0.00    +0.402 HD
ENDBRANCH  17  18
BRANCH  21  22
ATOM     22  O   UNL     1      51.499  15.952  21.452  0.00  0.00    -0.489 OA
ATOM     23  H   UNL     1      52.365  16.375  21.381  0.00  0.00    +0.401 HD
ENDBRANCH  21  22
TORSDOF 5
ENDMDL
MODEL 7
REMARK VINA RESULT:      -5.2      4.088      7.017
REMARK  Name = ZINC95486155
REMARK  11 active torsions:
REMARK  status: ('A' for Active; 'I' for Inactive)
REMARK    1  A    between atoms: C1_1  and  C2_2
REMARK    2  A    between atoms: C6_6  and  O3_28
REMARK    3  A    between atoms: C8_8  and  C22_27
REMARK    4  A    between atoms: C9_9  and  C10_10
REMARK    5  A    between atoms: C11_11  and  O2_26
REMARK    6  A    between atoms: C13_13  and  O1_25
REMARK    7  A    between atoms: C17_17  and  C21_24
REMARK    8  A    between atoms: N1_19  and  C20_23
REMARK    9  A    between atoms: C18_20  and  C19_22
REMARK   10  A    between atoms: C23_29  and  O4_31
REMARK   11  A    between atoms: O4_31  and  C25_32
REMARK                            x       y       z     vdW  Elec       q    Type
REMARK                         _______ _______ _______ _____ _____    ______ ____
ROOT
ATOM     16  C   UNL     1      47.939  13.867  17.243  0.00  0.00    -0.048 A 
ATOM     17  C   UNL     1      47.578  13.744  15.898  0.00  0.00    +0.170 A 
ATOM     20  C   UNL     1      48.183  12.777  15.114  0.00  0.00    -0.016 A 
ATOM     21  C   UNL     1      49.137  11.938  15.666  0.00  0.00    +0.159 A 
ATOM     24  C   UNL     1      49.498  12.057  17.007  0.00  0.00    -0.162 A 
ATOM     25  C   UNL     1      50.538  11.118  17.557  0.00  0.00    +0.236 C 
ATOM     26  C   UNL     1      51.655  10.941  16.527  0.00  0.00    +0.091 C 
ATOM     27  N   UNL     1      51.116  11.658  18.794  0.00  0.00    -0.382 N 
ATOM     28  H   UNL     1      51.628  12.504  18.595  0.00  0.00    +0.425 HD
ATOM     29  C   UNL     1      52.020  10.662  19.387  0.00  0.00    +0.325 C 
ATOM     30  C   UNL     1      50.024  11.953  19.735  0.00  0.00    +0.175 C 
ATOM     31  C   UNL     1      49.061  10.766  19.800  0.00  0.00    +0.089 C 
ATOM     32  C   UNL     1      49.279  13.194  19.241  0.00  0.00    +0.131 C 
ATOM     33  C   UNL     1      48.907  13.022  17.790  0.00  0.00    -0.040 A 
ENDROOT
BRANCH  16  15
ATOM      1  C   UNL     1      50.835  18.116  16.872  0.00  0.00    +0.094 C 
ATOM      2  C   UNL     1      49.571  17.772  17.618  0.00  0.00    -0.015 A 
ATOM      3  C   UNL     1      49.042  16.523  17.502  0.00  0.00    -0.058 A 
ATOM      4  C   UNL     1      47.866  16.192  18.191  0.00  0.00    +0.030 A 
ATOM      5  C   UNL     1      47.237  17.166  19.004  0.00  0.00    -0.113 A 
ATOM      6  C   UNL     1      47.805  18.451  19.106  0.00  0.00    +0.174 A 
ATOM      9  C   UNL     1      46.055  16.835  19.696  0.00  0.00    +0.172 A 
ATOM     12  C   UNL     1      45.522  15.570  19.577  0.00  0.00    -0.033 A 
ATOM     13  C   UNL     1      46.134  14.610  18.782  0.00  0.00    -0.012 A 
ATOM     14  C   UNL     1      45.526  13.234  18.673  0.00  0.00    +0.098 C 
ATOM     15  C   UNL     1      47.296  14.900  18.089  0.00  0.00    -0.090 A 
ATOM     34  C   UNL     1      48.964  18.736  18.417  0.00  0.00    -0.104 A 
BRANCH   6   7
ATOM      7  O   UNL     1      47.217  19.399  19.880  0.00  0.00    -0.293 OA
ATOM      8  C   UNL     1      47.033  20.691  19.296  0.00  0.00    +0.248 C 
ENDBRANCH   6   7
BRANCH   9  10
ATOM     10  O   UNL     1      45.443  17.761  20.478  0.00  0.00    -0.480 OA
ATOM     11  H   UNL     1      45.648  18.675  20.239  0.00  0.00    +0.399 HD
ENDBRANCH   9  10
ENDBRANCH  16  15
BRANCH  17  18
ATOM     18  O   UNL     1      46.640  14.568  15.363  0.00  0.00    -0.482 OA
ATOM     19  H   UNL     1      46.966  15.455  15.159  0.00  0.00    +0.402 HD
ENDBRANCH  17  18
BRANCH  21  22
ATOM     22  O   UNL     1      49.727  10.988  14.893  0.00  0.00    -0.489 OA
ATOM     23  H   UNL     1      49.601  10.085  15.213  0.00  0.00    +0.401 HD
ENDBRANCH  21  22
TORSDOF 5
ENDMDL
MODEL 8
REMARK VINA RESULT:      -5.1      3.083      5.484
REMARK  Name = ZINC95486155
REMARK  11 active torsions:
REMARK  status: ('A' for Active; 'I' for Inactive)
REMARK    1  A    between atoms: C1_1  and  C2_2
REMARK    2  A    between atoms: C6_6  and  O3_28
REMARK    3  A    between atoms: C8_8  and  C22_27
REMARK    4  A    between atoms: C9_9  and  C10_10
REMARK    5  A    between atoms: C11_11  and  O2_26
REMARK    6  A    between atoms: C13_13  and  O1_25
REMARK    7  A    between atoms: C17_17  and  C21_24
REMARK    8  A    between atoms: N1_19  and  C20_23
REMARK    9  A    between atoms: C18_20  and  C19_22
REMARK   10  A    between atoms: C23_29  and  O4_31
REMARK   11  A    between atoms: O4_31  and  C25_32
REMARK                            x       y       z     vdW  Elec       q    Type
REMARK                         _______ _______ _______ _____ _____    ______ ____
ROOT
ATOM     16  C   UNL     1      47.812  16.025  18.019  0.00  0.00    -0.048 A 
ATOM     17  C   UNL     1      47.105  15.847  16.826  0.00  0.00    +0.170 A 
ATOM     20  C   UNL     1      46.674  14.581  16.469  0.00  0.00    -0.016 A 
ATOM     21  C   UNL     1      46.944  13.502  17.294  0.00  0.00    +0.159 A 
ATOM     24  C   UNL     1      47.648  13.676  18.485  0.00  0.00    -0.162 A 
ATOM     25  C   UNL     1      47.911  12.470  19.347  0.00  0.00    +0.236 C 
ATOM     26  C   UNL     1      48.292  11.286  18.455  0.00  0.00    +0.091 C 
ATOM     27  N   UNL     1      49.015  12.734  20.278  0.00  0.00    -0.382 N 
ATOM     28  H   UNL     1      49.875  12.865  19.767  0.00  0.00    +0.425 HD
ATOM     29  C   UNL     1      49.158  11.600  21.202  0.00  0.00    +0.325 C 
ATOM     30  C   UNL     1      48.706  13.954  21.041  0.00  0.00    +0.175 C 
ATOM     31  C   UNL     1      47.269  13.888  21.562  0.00  0.00    +0.089 C 
ATOM     32  C   UNL     1      48.863  15.159  20.114  0.00  0.00    +0.131 C 
ATOM     33  C   UNL     1      48.086  14.930  18.842  0.00  0.00    -0.040 A 
ENDROOT
BRANCH  16  15
ATOM      1  C   UNL     1      44.037  18.151  20.814  0.00  0.00    +0.094 C 
ATOM      2  C   UNL     1      45.399  18.618  20.366  0.00  0.00    -0.015 A 
ATOM      3  C   UNL     1      46.177  17.792  19.614  0.00  0.00    -0.058 A 
ATOM      4  C   UNL     1      47.446  18.216  19.192  0.00  0.00    +0.030 A 
ATOM      5  C   UNL     1      47.907  19.505  19.555  0.00  0.00    -0.113 A 
ATOM      6  C   UNL     1      47.082  20.338  20.333  0.00  0.00    +0.174 A 
ATOM      9  C   UNL     1      49.182  19.931  19.132  0.00  0.00    +0.172 A 
ATOM     12  C   UNL     1      49.968  19.093  18.371  0.00  0.00    -0.033 A 
ATOM     13  C   UNL     1      49.522  17.828  18.012  0.00  0.00    -0.012 A 
ATOM     14  C   UNL     1      50.405  16.936  17.177  0.00  0.00    +0.098 C 
ATOM     15  C   UNL     1      48.276  17.377  18.408  0.00  0.00    -0.090 A 
ATOM     34  C   UNL     1      45.839  19.889  20.725  0.00  0.00    -0.104 A 
BRANCH   6   7
ATOM      7  O   UNL     1      47.505  21.578  20.692  0.00  0.00    -0.293 OA
ATOM      8  C   UNL     1      46.555  22.425  21.344  0.00  0.00    +0.248 C 
ENDBRANCH   6   7
BRANCH   9  10
ATOM     10  O   UNL     1      49.634  21.165  19.474  0.00  0.00    -0.480 OA
ATOM     11  H   UNL     1      49.088  21.890  19.141  0.00  0.00    +0.399 HD
ENDBRANCH   9  10
ENDBRANCH  16  15
BRANCH  17  18
ATOM     18  O   UNL     1      46.841  16.910  16.022  0.00  0.00    -0.482 OA
ATOM     19  H   UNL     1      46.105  17.460  16.327  0.00  0.00    +0.402 HD
ENDBRANCH  17  18
BRANCH  21  22
ATOM     22  O   UNL     1      46.518  12.260  16.940  0.00  0.00    -0.489 OA
ATOM     23  H   UNL     1      45.726  11.967  17.409  0.00  0.00    +0.401 HD
ENDBRANCH  21  22
TORSDOF 5
ENDMDL
MODEL 9
REMARK VINA RESULT:      -5.1      2.664      4.710
REMARK  Name = ZINC95486155
REMARK  11 active torsions:
REMARK  status: ('A' for Active; 'I' for Inactive)
REMARK    1  A    between atoms: C1_1  and  C2_2
REMARK    2  A    between atoms: C6_6  and  O3_28
REMARK    3  A    between atoms: C8_8  and  C22_27
REMARK    4  A    between atoms: C9_9  and  C10_10
REMARK    5  A    between atoms: C11_11  and  O2_26
REMARK    6  A    between atoms: C13_13  and  O1_25
REMARK    7  A    between atoms: C17_17  and  C21_24
REMARK    8  A    between atoms: N1_19  and  C20_23
REMARK    9  A    between atoms: C18_20  and  C19_22
REMARK   10  A    between atoms: C23_29  and  O4_31
REMARK   11  A    between atoms: O4_31  and  C25_32
REMARK                            x       y       z     vdW  Elec       q    Type
REMARK                         _______ _______ _______ _____ _____    ______ ____
ROOT
ATOM     16  C   UNL     1      46.821  16.221  20.757  0.00  0.00    -0.048 A 
ATOM     17  C   UNL     1      47.911  16.690  21.496  0.00  0.00    +0.170 A 
ATOM     20  C   UNL     1      49.186  16.244  21.193  0.00  0.00    -0.016 A 
ATOM     21  C   UNL     1      49.373  15.340  20.160  0.00  0.00    +0.159 A 
ATOM     24  C   UNL     1      48.288  14.871  19.421  0.00  0.00    -0.162 A 
ATOM     25  C   UNL     1      48.548  13.891  18.308  0.00  0.00    +0.236 C 
ATOM     26  C   UNL     1      49.598  12.876  18.763  0.00  0.00    +0.091 C 
ATOM     27  N   UNL     1      47.317  13.172  17.957  0.00  0.00    -0.382 N 
ATOM     28  H   UNL     1      47.022  12.595  18.731  0.00  0.00    +0.425 HD
ATOM     29  C   UNL     1      47.560  12.330  16.778  0.00  0.00    +0.325 C 
ATOM     30  C   UNL     1      46.267  14.157  17.650  0.00  0.00    +0.175 C 
ATOM     31  C   UNL     1      46.820  15.225  16.705  0.00  0.00    +0.089 C 
ATOM     32  C   UNL     1      45.816  14.809  18.957  0.00  0.00    +0.131 C 
ATOM     33  C   UNL     1      47.018  15.303  19.723  0.00  0.00    -0.040 A 
ENDROOT
BRANCH  16  15
ATOM      1  C   UNL     1      46.192  20.721  18.321  0.00  0.00    +0.094 C 
ATOM      2  C   UNL     1      45.314  19.882  19.215  0.00  0.00    -0.015 A 
ATOM      3  C   UNL     1      45.791  18.708  19.712  0.00  0.00    -0.058 A 
ATOM      4  C   UNL     1      44.982  17.919  20.544  0.00  0.00    +0.030 A 
ATOM      5  C   UNL     1      43.672  18.355  20.859  0.00  0.00    -0.113 A 
ATOM      6  C   UNL     1      43.204  19.573  20.331  0.00  0.00    +0.174 A 
ATOM      9  C   UNL     1      42.860  17.562  21.695  0.00  0.00    +0.172 A 
ATOM     12  C   UNL     1      43.344  16.374  22.196  0.00  0.00    -0.033 A 
ATOM     13  C   UNL     1      44.627  15.941  21.892  0.00  0.00    -0.012 A 
ATOM     14  C   UNL     1      45.129  14.637  22.458  0.00  0.00    +0.098 C 
ATOM     15  C   UNL     1      45.453  16.694  21.076  0.00  0.00    -0.090 A 
ATOM     34  C   UNL     1      44.030  20.323  19.521  0.00  0.00    -0.104 A 
BRANCH   6   7
ATOM      7  O   UNL     1      41.951  20.008  20.621  0.00  0.00    -0.293 OA
ATOM      8  C   UNL     1      41.077  20.254  19.516  0.00  0.00    +0.248 C 
ENDBRANCH   6   7
BRANCH   9  10
ATOM     10  O   UNL     1      41.602  17.970  22.004  0.00  0.00    -0.480 OA
ATOM     11  H   UNL     1      41.537  18.446  22.843  0.00  0.00    +0.399 HD
ENDBRANCH   9  10
ENDBRANCH  16  15
BRANCH  17  18
ATOM     18  O   UNL     1      47.721  17.580  22.505  0.00  0.00    -0.482 OA
ATOM     19  H   UNL     1      48.440  17.599  23.152  0.00  0.00    +0.402 HD
ENDBRANCH  17  18
BRANCH  21  22
ATOM     22  O   UNL     1      50.627  14.905  19.865  0.00  0.00    -0.489 OA
ATOM     23  H   UNL     1      50.714  14.526  18.980  0.00  0.00    +0.401 HD
ENDBRANCH  21  22
TORSDOF 5
ENDMDL
