MODEL 1
REMARK VINA RESULT:      -6.0      0.000      0.000
REMARK  Name = ZINC05230095
REMARK  8 active torsions:
REMARK  status: ('A' for Active; 'I' for Inactive)
REMARK    1  A    between atoms: C1_1  and  C2_2
REMARK    2  A    between atoms: C2_2  and  C3_3
REMARK    3  A    between atoms: C2_2  and  C4_4
REMARK    4  A    between atoms: C2_2  and  C6_6
REMARK    5  A    between atoms: C7_7  and  O3_21
REMARK    6  A    between atoms: C9_9  and  C11_13
REMARK    7  A    between atoms: C12_14  and  C13_15
REMARK    8  A    between atoms: O3_21  and  C19_22
REMARK                            x       y       z     vdW  Elec       q    Type
REMARK                         _______ _______ _______ _____ _____    ______ ____
ROOT
ATOM      3  C   UNL     1      42.853  20.479  19.568  0.00  0.00    -0.250 A 
ATOM      4  C   UNL     1      43.723  19.437  19.850  0.00  0.00    +0.215 A 
ATOM      7  C   UNL     1      45.094  19.716  19.982  0.00  0.00    -0.112 A 
ATOM      8  C   UNL     1      45.541  21.009  19.830  0.00  0.00    +0.197 A 
ATOM     17  O   UNL     1      44.678  22.008  19.556  0.00  0.00    -0.267 OA
ATOM     18  C   UNL     1      43.361  21.773  19.418  0.00  0.00    +0.510 A 
ATOM     19  O   UNL     1      42.604  22.696  19.165  0.00  0.00    -0.458 OA
ENDROOT
BRANCH   3   2
ATOM      1  C   UNL     1      40.827  19.635  20.723  0.00  0.00    +0.041 C 
ATOM      2  C   UNL     1      41.376  20.218  19.418  0.00  0.00    +0.036 C 
ATOM     22  C   UNL     1      41.145  19.225  18.278  0.00  0.00    +0.057 C 
BRANCH   2  20
ATOM     20  C   UNL     1      40.666  21.511  19.110  0.00  0.00    -0.047 C 
ATOM     21  C   UNL     1      39.452  21.492  18.618  0.00  0.00    +0.025 C 
ENDBRANCH   2  20
ENDBRANCH   3   2
BRANCH   4   5
ATOM      5  O   UNL     1      43.260  18.172  19.995  0.00  0.00    -0.312 OA
ATOM      6  C   UNL     1      43.807  17.400  21.065  0.00  0.00    +0.241 C 
ENDBRANCH   4   5
BRANCH   8   9
ATOM      9  C   UNL     1      46.967  21.303  19.968  0.00  0.00    +0.004 C 
ATOM     10  C   UNL     1      47.883  20.449  19.467  0.00  0.00    +0.106 C 
BRANCH  10  11
ATOM     11  C   UNL     1      49.318  20.744  19.605  0.00  0.00    -0.082 A 
ATOM     12  C   UNL     1      49.904  20.806  20.873  0.00  0.00    +0.027 A 
ATOM     13  C   UNL     1      51.250  21.082  20.995  0.00  0.00    +0.005 A 
ATOM     14  C   UNL     1      52.020  21.298  19.864  0.00  0.00    +0.021 A 
ATOM     15  C   UNL     1      51.448  21.239  18.606  0.00  0.00    +0.006 A 
ATOM     16  C   UNL     1      50.104  20.958  18.468  0.00  0.00    +0.037 A 
ENDBRANCH  10  11
ENDBRANCH   8   9
TORSDOF 5
ENDMDL
MODEL 2
REMARK VINA RESULT:      -5.9      0.771      2.293
REMARK  Name = ZINC05230095
REMARK  8 active torsions:
REMARK  status: ('A' for Active; 'I' for Inactive)
REMARK    1  A    between atoms: C1_1  and  C2_2
REMARK    2  A    between atoms: C2_2  and  C3_3
REMARK    3  A    between atoms: C2_2  and  C4_4
REMARK    4  A    between atoms: C2_2  and  C6_6
REMARK    5  A    between atoms: C7_7  and  O3_21
REMARK    6  A    between atoms: C9_9  and  C11_13
REMARK    7  A    between atoms: C12_14  and  C13_15
REMARK    8  A    between atoms: O3_21  and  C19_22
REMARK                            x       y       z     vdW  Elec       q    Type
REMARK                         _______ _______ _______ _____ _____    ______ ____
ROOT
ATOM      3  C   UNL     1      42.893  20.465  19.558  0.00  0.00    -0.250 A 
ATOM      4  C   UNL     1      43.384  21.758  19.453  0.00  0.00    +0.215 A 
ATOM      7  C   UNL     1      44.762  21.977  19.624  0.00  0.00    -0.112 A 
ATOM      8  C   UNL     1      45.590  20.909  19.890  0.00  0.00    +0.197 A 
ATOM     17  O   UNL     1      45.092  19.660  19.988  0.00  0.00    -0.267 OA
ATOM     18  C   UNL     1      43.778  19.418  19.834  0.00  0.00    +0.510 A 
ATOM     19  O   UNL     1      43.356  18.278  19.933  0.00  0.00    -0.458 OA
ENDROOT
BRANCH   3   2
ATOM      1  C   UNL     1      40.870  19.533  20.647  0.00  0.00    +0.041 C 
ATOM      2  C   UNL     1      41.422  20.193  19.381  0.00  0.00    +0.036 C 
ATOM     22  C   UNL     1      41.215  19.259  18.186  0.00  0.00    +0.057 C 
BRANCH   2  20
ATOM     20  C   UNL     1      40.697  21.490  19.135  0.00  0.00    -0.047 C 
ATOM     21  C   UNL     1      39.505  21.483  18.591  0.00  0.00    +0.025 C 
ENDBRANCH   2  20
ENDBRANCH   3   2
BRANCH   4   5
ATOM      5  O   UNL     1      42.550  22.792  19.191  0.00  0.00    -0.312 OA
ATOM      6  C   UNL     1      43.152  24.057  18.908  0.00  0.00    +0.241 C 
ENDBRANCH   4   5
BRANCH   8   9
ATOM      9  C   UNL     1      47.024  21.132  20.068  0.00  0.00    +0.004 C 
ATOM     10  C   UNL     1      47.907  20.537  19.240  0.00  0.00    +0.106 C 
BRANCH  10  11
ATOM     11  C   UNL     1      49.351  20.762  19.418  0.00  0.00    -0.082 A 
ATOM     12  C   UNL     1      49.910  20.752  20.700  0.00  0.00    +0.027 A 
ATOM     13  C   UNL     1      51.264  20.962  20.859  0.00  0.00    +0.005 A 
ATOM     14  C   UNL     1      52.068  21.184  19.754  0.00  0.00    +0.021 A 
ATOM     15  C   UNL     1      51.522  21.196  18.483  0.00  0.00    +0.006 A 
ATOM     16  C   UNL     1      50.170  20.981  18.307  0.00  0.00    +0.037 A 
ENDBRANCH  10  11
ENDBRANCH   8   9
TORSDOF 5
ENDMDL
MODEL 3
REMARK VINA RESULT:      -5.8      3.029      8.151
REMARK  Name = ZINC05230095
REMARK  8 active torsions:
REMARK  status: ('A' for Active; 'I' for Inactive)
REMARK    1  A    between atoms: C1_1  and  C2_2
REMARK    2  A    between atoms: C2_2  and  C3_3
REMARK    3  A    between atoms: C2_2  and  C4_4
REMARK    4  A    between atoms: C2_2  and  C6_6
REMARK    5  A    between atoms: C7_7  and  O3_21
REMARK    6  A    between atoms: C9_9  and  C11_13
REMARK    7  A    between atoms: C12_14  and  C13_15
REMARK    8  A    between atoms: O3_21  and  C19_22
REMARK                            x       y       z     vdW  Elec       q    Type
REMARK                         _______ _______ _______ _____ _____    ______ ____
ROOT
ATOM      3  C   UNL     1      49.966  19.049  18.041  0.00  0.00    -0.250 A 
ATOM      4  C   UNL     1      49.279  17.864  17.822  0.00  0.00    +0.215 A 
ATOM      7  C   UNL     1      48.004  17.703  18.392  0.00  0.00    -0.112 A 
ATOM      8  C   UNL     1      47.468  18.719  19.152  0.00  0.00    +0.197 A 
ATOM     17  O   UNL     1      48.153  19.863  19.353  0.00  0.00    -0.267 OA
ATOM     18  C   UNL     1      49.376  20.046  18.825  0.00  0.00    +0.510 A 
ATOM     19  O   UNL     1      49.974  21.089  19.028  0.00  0.00    -0.458 OA
ENDROOT
BRANCH   3   2
ATOM      1  C   UNL     1      51.421  18.532  16.101  0.00  0.00    +0.041 C 
ATOM      2  C   UNL     1      51.334  19.257  17.446  0.00  0.00    +0.036 C 
ATOM     22  C   UNL     1      52.395  18.697  18.396  0.00  0.00    +0.057 C 
BRANCH   2  20
ATOM     20  C   UNL     1      51.573  20.730  17.238  0.00  0.00    -0.047 C 
ATOM     21  C   UNL     1      51.648  21.217  16.024  0.00  0.00    +0.025 C 
ENDBRANCH   2  20
ENDBRANCH   3   2
BRANCH   4   5
ATOM      5  O   UNL     1      49.827  16.879  17.071  0.00  0.00    -0.312 OA
ATOM      6  C   UNL     1      49.491  15.535  17.418  0.00  0.00    +0.241 C 
ENDBRANCH   4   5
BRANCH   8   9
ATOM      9  C   UNL     1      46.142  18.556  19.746  0.00  0.00    +0.004 C 
ATOM     10  C   UNL     1      45.119  19.333  19.336  0.00  0.00    +0.106 C 
BRANCH  10  11
ATOM     11  C   UNL     1      43.784  19.168  19.934  0.00  0.00    -0.082 A 
ATOM     12  C   UNL     1      42.670  19.775  19.344  0.00  0.00    +0.027 A 
ATOM     13  C   UNL     1      41.422  19.615  19.909  0.00  0.00    +0.005 A 
ATOM     14  C   UNL     1      41.271  18.856  21.057  0.00  0.00    +0.021 A 
ATOM     15  C   UNL     1      42.368  18.253  21.647  0.00  0.00    +0.006 A 
ATOM     16  C   UNL     1      43.622  18.400  21.090  0.00  0.00    +0.037 A 
ENDBRANCH  10  11
ENDBRANCH   8   9
TORSDOF 5
ENDMDL
MODEL 4
REMARK VINA RESULT:      -5.7      2.792      8.337
REMARK  Name = ZINC05230095
REMARK  8 active torsions:
REMARK  status: ('A' for Active; 'I' for Inactive)
REMARK    1  A    between atoms: C1_1  and  C2_2
REMARK    2  A    between atoms: C2_2  and  C3_3
REMARK    3  A    between atoms: C2_2  and  C4_4
REMARK    4  A    between atoms: C2_2  and  C6_6
REMARK    5  A    between atoms: C7_7  and  O3_21
REMARK    6  A    between atoms: C9_9  and  C11_13
REMARK    7  A    between atoms: C12_14  and  C13_15
REMARK    8  A    between atoms: O3_21  and  C19_22
REMARK                            x       y       z     vdW  Elec       q    Type
REMARK                         _______ _______ _______ _____ _____    ______ ____
ROOT
ATOM      3  C   UNL     1      50.091  19.122  18.134  0.00  0.00    -0.250 A 
ATOM      4  C   UNL     1      49.689  20.044  19.088  0.00  0.00    +0.215 A 
ATOM      7  C   UNL     1      48.386  19.957  19.608  0.00  0.00    -0.112 A 
ATOM      8  C   UNL     1      47.542  18.964  19.160  0.00  0.00    +0.197 A 
ATOM     17  O   UNL     1      47.954  18.078  18.232  0.00  0.00    -0.267 OA
ATOM     18  C   UNL     1      49.192  18.138  17.711  0.00  0.00    +0.510 A 
ATOM     19  O   UNL     1      49.535  17.325  16.868  0.00  0.00    -0.458 OA
ENDROOT
BRANCH   3   2
ATOM      1  C   UNL     1      51.512  18.428  16.223  0.00  0.00    +0.041 C 
ATOM      2  C   UNL     1      51.481  19.184  17.554  0.00  0.00    +0.036 C 
ATOM     22  C   UNL     1      52.471  18.543  18.529  0.00  0.00    +0.057 C 
BRANCH   2  20
ATOM     20  C   UNL     1      51.864  20.622  17.322  0.00  0.00    -0.047 C 
ATOM     21  C   UNL     1      51.661  21.175  16.151  0.00  0.00    +0.025 C 
ENDBRANCH   2  20
ENDBRANCH   3   2
BRANCH   4   5
ATOM      5  O   UNL     1      50.537  21.011  19.513  0.00  0.00    -0.312 OA
ATOM      6  C   UNL     1      50.905  20.992  20.893  0.00  0.00    +0.241 C 
ENDBRANCH   4   5
BRANCH   8   9
ATOM      9  C   UNL     1      46.186  18.870  19.699  0.00  0.00    +0.004 C 
ATOM     10  C   UNL     1      45.163  19.476  19.061  0.00  0.00    +0.106 C 
BRANCH  10  11
ATOM     11  C   UNL     1      43.798  19.381  19.603  0.00  0.00    -0.082 A 
ATOM     12  C   UNL     1      42.737  20.013  18.947  0.00  0.00    +0.027 A 
ATOM     13  C   UNL     1      41.460  19.919  19.460  0.00  0.00    +0.005 A 
ATOM     14  C   UNL     1      41.228  19.201  20.621  0.00  0.00    +0.021 A 
ATOM     15  C   UNL     1      42.273  18.573  21.275  0.00  0.00    +0.006 A 
ATOM     16  C   UNL     1      43.555  18.654  20.772  0.00  0.00    +0.037 A 
ENDBRANCH  10  11
ENDBRANCH   8   9
TORSDOF 5
ENDMDL
MODEL 5
REMARK VINA RESULT:      -5.4      6.345      8.120
REMARK  Name = ZINC05230095
REMARK  8 active torsions:
REMARK  status: ('A' for Active; 'I' for Inactive)
REMARK    1  A    between atoms: C1_1  and  C2_2
REMARK    2  A    between atoms: C2_2  and  C3_3
REMARK    3  A    between atoms: C2_2  and  C4_4
REMARK    4  A    between atoms: C2_2  and  C6_6
REMARK    5  A    between atoms: C7_7  and  O3_21
REMARK    6  A    between atoms: C9_9  and  C11_13
REMARK    7  A    between atoms: C12_14  and  C13_15
REMARK    8  A    between atoms: O3_21  and  C19_22
REMARK                            x       y       z     vdW  Elec       q    Type
REMARK                         _______ _______ _______ _____ _____    ______ ____
ROOT
ATOM      3  C   UNL     1      47.695  12.752  16.652  0.00  0.00    -0.250 A 
ATOM      4  C   UNL     1      46.822  13.602  17.315  0.00  0.00    +0.215 A 
ATOM      7  C   UNL     1      47.200  14.942  17.513  0.00  0.00    -0.112 A 
ATOM      8  C   UNL     1      48.420  15.378  17.047  0.00  0.00    +0.197 A 
ATOM     17  O   UNL     1      49.254  14.535  16.406  0.00  0.00    -0.267 OA
ATOM     18  C   UNL     1      48.924  13.247  16.205  0.00  0.00    +0.510 A 
ATOM     19  O   UNL     1      49.701  12.506  15.626  0.00  0.00    -0.458 OA
ENDROOT
BRANCH   3   2
ATOM      1  C   UNL     1      47.661  10.491  17.671  0.00  0.00    +0.041 C 
ATOM      2  C   UNL     1      47.325  11.310  16.422  0.00  0.00    +0.036 C 
ATOM     22  C   UNL     1      48.110  10.765  15.228  0.00  0.00    +0.057 C 
BRANCH   2  20
ATOM     20  C   UNL     1      45.848  11.209  16.140  0.00  0.00    -0.047 C 
ATOM     21  C   UNL     1      45.395  10.277  15.339  0.00  0.00    +0.025 C 
ENDBRANCH   2  20
ENDBRANCH   3   2
BRANCH   4   5
ATOM      5  O   UNL     1      45.627  13.150  17.763  0.00  0.00    -0.312 OA
ATOM      6  C   UNL     1      45.274  13.473  19.109  0.00  0.00    +0.241 C 
ENDBRANCH   4   5
BRANCH   8   9
ATOM      9  C   UNL     1      48.816  16.771  17.251  0.00  0.00    +0.004 C 
ATOM     10  C   UNL     1      50.119  17.117  17.196  0.00  0.00    +0.106 C 
BRANCH  10  11
ATOM     11  C   UNL     1      50.517  18.519  17.401  0.00  0.00    -0.082 A 
ATOM     12  C   UNL     1      49.980  19.255  18.462  0.00  0.00    +0.027 A 
ATOM     13  C   UNL     1      50.359  20.567  18.648  0.00  0.00    +0.005 A 
ATOM     14  C   UNL     1      51.270  21.157  17.787  0.00  0.00    +0.021 A 
ATOM     15  C   UNL     1      51.806  20.435  16.735  0.00  0.00    +0.006 A 
ATOM     16  C   UNL     1      51.440  19.120  16.540  0.00  0.00    +0.037 A 
ENDBRANCH  10  11
ENDBRANCH   8   9
TORSDOF 5
ENDMDL
MODEL 6
REMARK VINA RESULT:      -5.3      3.084      8.210
REMARK  Name = ZINC05230095
REMARK  8 active torsions:
REMARK  status: ('A' for Active; 'I' for Inactive)
REMARK    1  A    between atoms: C1_1  and  C2_2
REMARK    2  A    between atoms: C2_2  and  C3_3
REMARK    3  A    between atoms: C2_2  and  C4_4
REMARK    4  A    between atoms: C2_2  and  C6_6
REMARK    5  A    between atoms: C7_7  and  O3_21
REMARK    6  A    between atoms: C9_9  and  C11_13
REMARK    7  A    between atoms: C12_14  and  C13_15
REMARK    8  A    between atoms: O3_21  and  C19_22
REMARK                            x       y       z     vdW  Elec       q    Type
REMARK                         _______ _______ _______ _____ _____    ______ ____
ROOT
ATOM      3  C   UNL     1      49.963  19.076  17.987  0.00  0.00    -0.250 A 
ATOM      4  C   UNL     1      49.332  17.882  17.674  0.00  0.00    +0.215 A 
ATOM      7  C   UNL     1      48.020  17.669  18.131  0.00  0.00    -0.112 A 
ATOM      8  C   UNL     1      47.394  18.644  18.876  0.00  0.00    +0.197 A 
ATOM     17  O   UNL     1      48.027  19.797  19.170  0.00  0.00    -0.267 OA
ATOM     18  C   UNL     1      49.283  20.030  18.751  0.00  0.00    +0.510 A 
ATOM     19  O   UNL     1      49.832  21.081  19.036  0.00  0.00    -0.458 OA
ENDROOT
BRANCH   3   2
ATOM      1  C   UNL     1      51.515  20.820  17.149  0.00  0.00    +0.041 C 
ATOM      2  C   UNL     1      51.370  19.341  17.514  0.00  0.00    +0.036 C 
ATOM     22  C   UNL     1      51.665  18.479  16.285  0.00  0.00    +0.057 C 
BRANCH   2  20
ATOM     20  C   UNL     1      52.342  18.998  18.613  0.00  0.00    -0.047 C 
ATOM     21  C   UNL     1      52.745  17.761  18.770  0.00  0.00    +0.025 C 
ENDBRANCH   2  20
ENDBRANCH   3   2
BRANCH   4   5
ATOM      5  O   UNL     1      49.968  16.938  16.939  0.00  0.00    -0.312 OA
ATOM      6  C   UNL     1      49.759  15.575  17.313  0.00  0.00    +0.241 C 
ENDBRANCH   4   5
BRANCH   8   9
ATOM      9  C   UNL     1      46.029  18.425  19.353  0.00  0.00    +0.004 C 
ATOM     10  C   UNL     1      45.244  19.479  19.658  0.00  0.00    +0.106 C 
BRANCH  10  11
ATOM     11  C   UNL     1      43.870  19.259  20.138  0.00  0.00    -0.082 A 
ATOM     12  C   UNL     1      43.644  18.534  21.312  0.00  0.00    +0.027 A 
ATOM     13  C   UNL     1      42.354  18.334  21.756  0.00  0.00    +0.005 A 
ATOM     14  C   UNL     1      41.285  18.847  21.042  0.00  0.00    +0.021 A 
ATOM     15  C   UNL     1      41.501  19.566  19.879  0.00  0.00    +0.006 A 
ATOM     16  C   UNL     1      42.786  19.780  19.425  0.00  0.00    +0.037 A 
ENDBRANCH  10  11
ENDBRANCH   8   9
TORSDOF 5
ENDMDL
MODEL 7
REMARK VINA RESULT:      -5.3      5.461      9.067
REMARK  Name = ZINC05230095
REMARK  8 active torsions:
REMARK  status: ('A' for Active; 'I' for Inactive)
REMARK    1  A    between atoms: C1_1  and  C2_2
REMARK    2  A    between atoms: C2_2  and  C3_3
REMARK    3  A    between atoms: C2_2  and  C4_4
REMARK    4  A    between atoms: C2_2  and  C6_6
REMARK    5  A    between atoms: C7_7  and  O3_21
REMARK    6  A    between atoms: C9_9  and  C11_13
REMARK    7  A    between atoms: C12_14  and  C13_15
REMARK    8  A    between atoms: O3_21  and  C19_22
REMARK                            x       y       z     vdW  Elec       q    Type
REMARK                         _______ _______ _______ _____ _____    ______ ____
ROOT
ATOM      3  C   UNL     1      50.263  18.905  18.056  0.00  0.00    -0.250 A 
ATOM      4  C   UNL     1      48.964  18.890  18.539  0.00  0.00    +0.215 A 
ATOM      7  C   UNL     1      48.148  17.781  18.257  0.00  0.00    -0.112 A 
ATOM      8  C   UNL     1      48.653  16.739  17.512  0.00  0.00    +0.197 A 
ATOM     17  O   UNL     1      49.919  16.774  17.051  0.00  0.00    -0.267 OA
ATOM     18  C   UNL     1      50.724  17.822  17.300  0.00  0.00    +0.510 A 
ATOM     19  O   UNL     1      51.864  17.828  16.865  0.00  0.00    -0.458 OA
ENDROOT
BRANCH   3   2
ATOM      1  C   UNL     1      52.628  19.637  18.209  0.00  0.00    +0.041 C 
ATOM      2  C   UNL     1      51.168  20.077  18.338  0.00  0.00    +0.036 C 
ATOM     22  C   UNL     1      50.912  20.590  19.756  0.00  0.00    +0.057 C 
BRANCH   2  20
ATOM     20  C   UNL     1      50.887  21.177  17.348  0.00  0.00    -0.047 C 
ATOM     21  C   UNL     1      51.595  21.267  16.249  0.00  0.00    +0.025 C 
ENDBRANCH   2  20
ENDBRANCH   3   2
BRANCH   4   5
ATOM      5  O   UNL     1      48.489  19.927  19.270  0.00  0.00    -0.312 OA
ATOM      6  C   UNL     1      47.070  20.065  19.355  0.00  0.00    +0.241 C 
ENDBRANCH   4   5
BRANCH   8   9
ATOM      9  C   UNL     1      47.807  15.584  17.217  0.00  0.00    +0.004 C 
ATOM     10  C   UNL     1      48.352  14.464  16.697  0.00  0.00    +0.106 C 
BRANCH  10  11
ATOM     11  C   UNL     1      47.501  13.300  16.401  0.00  0.00    -0.082 A 
ATOM     12  C   UNL     1      47.818  12.451  15.337  0.00  0.00    +0.027 A 
ATOM     13  C   UNL     1      47.017  11.361  15.066  0.00  0.00    +0.005 A 
ATOM     14  C   UNL     1      45.900  11.109  15.844  0.00  0.00    +0.021 A 
ATOM     15  C   UNL     1      45.579  11.945  16.899  0.00  0.00    +0.006 A 
ATOM     16  C   UNL     1      46.375  13.036  17.186  0.00  0.00    +0.037 A 
ENDBRANCH  10  11
ENDBRANCH   8   9
TORSDOF 5
ENDMDL
MODEL 8
REMARK VINA RESULT:      -5.3      6.597      8.419
REMARK  Name = ZINC05230095
REMARK  8 active torsions:
REMARK  status: ('A' for Active; 'I' for Inactive)
REMARK    1  A    between atoms: C1_1  and  C2_2
REMARK    2  A    between atoms: C2_2  and  C3_3
REMARK    3  A    between atoms: C2_2  and  C4_4
REMARK    4  A    between atoms: C2_2  and  C6_6
REMARK    5  A    between atoms: C7_7  and  O3_21
REMARK    6  A    between atoms: C9_9  and  C11_13
REMARK    7  A    between atoms: C12_14  and  C13_15
REMARK    8  A    between atoms: O3_21  and  C19_22
REMARK                            x       y       z     vdW  Elec       q    Type
REMARK                         _______ _______ _______ _____ _____    ______ ____
ROOT
ATOM      3  C   UNL     1      47.901  12.680  16.658  0.00  0.00    -0.250 A 
ATOM      4  C   UNL     1      49.210  13.076  16.427  0.00  0.00    +0.215 A 
ATOM      7  C   UNL     1      49.562  14.418  16.655  0.00  0.00    -0.112 A 
ATOM      8  C   UNL     1      48.606  15.304  17.101  0.00  0.00    +0.197 A 
ATOM     17  O   UNL     1      47.339  14.897  17.318  0.00  0.00    -0.267 OA
ATOM     18  C   UNL     1      46.969  13.622  17.105  0.00  0.00    +0.510 A 
ATOM     19  O   UNL     1      45.815  13.284  17.306  0.00  0.00    -0.458 OA
ENDROOT
BRANCH   3   2
ATOM      1  C   UNL     1      47.803  10.417  17.669  0.00  0.00    +0.041 C 
ATOM      2  C   UNL     1      47.487  11.250  16.424  0.00  0.00    +0.036 C 
ATOM     22  C   UNL     1      48.251  10.686  15.225  0.00  0.00    +0.057 C 
BRANCH   2  20
ATOM     20  C   UNL     1      46.007  11.195  16.147  0.00  0.00    -0.047 C 
ATOM     21  C   UNL     1      45.541  10.385  15.229  0.00  0.00    +0.025 C 
ENDBRANCH   2  20
ENDBRANCH   3   2
BRANCH   4   5
ATOM      5  O   UNL     1      50.132  12.187  15.989  0.00  0.00    -0.312 OA
ATOM      6  C   UNL     1      51.472  12.360  16.453  0.00  0.00    +0.241 C 
ENDBRANCH   4   5
BRANCH   8   9
ATOM      9  C   UNL     1      48.968  16.700  17.340  0.00  0.00    +0.004 C 
ATOM     10  C   UNL     1      50.202  17.141  17.016  0.00  0.00    +0.106 C 
BRANCH  10  11
ATOM     11  C   UNL     1      50.567  18.546  17.256  0.00  0.00    -0.082 A 
ATOM     12  C   UNL     1      50.013  19.242  18.336  0.00  0.00    +0.027 A 
ATOM     13  C   UNL     1      50.362  20.558  18.556  0.00  0.00    +0.005 A 
ATOM     14  C   UNL     1      51.257  21.191  17.710  0.00  0.00    +0.021 A 
ATOM     15  C   UNL     1      51.809  20.509  16.639  0.00  0.00    +0.006 A 
ATOM     16  C   UNL     1      51.475  19.191  16.410  0.00  0.00    +0.037 A 
ENDBRANCH  10  11
ENDBRANCH   8   9
TORSDOF 5
ENDMDL
MODEL 9
REMARK VINA RESULT:      -5.1      6.163      9.314
REMARK  Name = ZINC05230095
REMARK  8 active torsions:
REMARK  status: ('A' for Active; 'I' for Inactive)
REMARK    1  A    between atoms: C1_1  and  C2_2
REMARK    2  A    between atoms: C2_2  and  C3_3
REMARK    3  A    between atoms: C2_2  and  C4_4
REMARK    4  A    between atoms: C2_2  and  C6_6
REMARK    5  A    between atoms: C7_7  and  O3_21
REMARK    6  A    between atoms: C9_9  and  C11_13
REMARK    7  A    between atoms: C12_14  and  C13_15
REMARK    8  A    between atoms: O3_21  and  C19_22
REMARK                            x       y       z     vdW  Elec       q    Type
REMARK                         _______ _______ _______ _____ _____    ______ ____
ROOT
ATOM      3  C   UNL     1      50.889  18.978  17.573  0.00  0.00    -0.250 A 
ATOM      4  C   UNL     1      50.045  18.408  18.514  0.00  0.00    +0.215 A 
ATOM      7  C   UNL     1      49.641  17.073  18.343  0.00  0.00    -0.112 A 
ATOM      8  C   UNL     1      50.089  16.364  17.251  0.00  0.00    +0.197 A 
ATOM     17  O   UNL     1      50.909  16.937  16.348  0.00  0.00    -0.267 OA
ATOM     18  C   UNL     1      51.310  18.213  16.481  0.00  0.00    +0.510 A 
ATOM     19  O   UNL     1      52.049  18.707  15.644  0.00  0.00    -0.458 OA
ENDROOT
BRANCH   3   2
ATOM      1  C   UNL     1      50.227  21.231  18.368  0.00  0.00    +0.041 C 
ATOM      2  C   UNL     1      51.344  20.407  17.724  0.00  0.00    +0.036 C 
ATOM     22  C   UNL     1      51.676  20.985  16.347  0.00  0.00    +0.057 C 
BRANCH   2  20
ATOM     20  C   UNL     1      52.570  20.454  18.598  0.00  0.00    -0.047 C 
ATOM     21  C   UNL     1      52.587  21.217  19.663  0.00  0.00    +0.025 C 
ENDBRANCH   2  20
ENDBRANCH   3   2
BRANCH   4   5
ATOM      5  O   UNL     1      49.618  19.126  19.580  0.00  0.00    -0.312 OA
ATOM      6  C   UNL     1      49.772  18.530  20.869  0.00  0.00    +0.241 C 
ENDBRANCH   4   5
BRANCH   8   9
ATOM      9  C   UNL     1      49.671  14.974  17.069  0.00  0.00    +0.004 C 
ATOM     10  C   UNL     1      48.375  14.686  16.831  0.00  0.00    +0.106 C 
BRANCH  10  11
ATOM     11  C   UNL     1      47.954  13.287  16.648  0.00  0.00    -0.082 A 
ATOM     12  C   UNL     1      47.723  12.472  17.760  0.00  0.00    +0.027 A 
ATOM     13  C   UNL     1      47.327  11.163  17.581  0.00  0.00    +0.005 A 
ATOM     14  C   UNL     1      47.159  10.656  16.303  0.00  0.00    +0.021 A 
ATOM     15  C   UNL     1      47.386  11.456  15.197  0.00  0.00    +0.006 A 
ATOM     16  C   UNL     1      47.777  12.769  15.361  0.00  0.00    +0.037 A 
ENDBRANCH  10  11
ENDBRANCH   8   9
TORSDOF 5
ENDMDL
