MODEL 1
REMARK VINA RESULT:      -7.2      0.000      0.000
REMARK  Name = ZINC95486077
REMARK  5 active torsions:
REMARK  status: ('A' for Active; 'I' for Inactive)
REMARK    1  A    between atoms: C1_1  and  C2_2
REMARK    2  A    between atoms: C2_2  and  C20_25
REMARK    3  A    between atoms: C3_3  and  C4_4
REMARK    4  A    between atoms: C4_4  and  C5_5
REMARK    5  A    between atoms: C17_20  and  O3_24
REMARK                            x       y       z     vdW  Elec       q    Type
REMARK                         _______ _______ _______ _____ _____    ______ ____
ROOT
ATOM      6  C   UNL     1      48.437  19.875  20.054  0.00  0.00    -0.101 A 
ATOM      7  C   UNL     1      48.652  18.729  20.798  0.00  0.00    +0.056 A 
ATOM      8  C   UNL     1      47.635  17.819  20.993  0.00  0.00    -0.007 A 
ATOM      9  C   UNL     1      46.378  18.046  20.448  0.00  0.00    +0.137 A 
ATOM     10  C   UNL     1      46.171  19.221  19.712  0.00  0.00    -0.157 A 
ATOM     11  C   UNL     1      44.776  19.405  19.214  0.00  0.00    +0.222 C 
ATOM     12  C   UNL     1      43.901  19.022  20.458  0.00  0.00    -0.016 C 
ATOM     13  C   UNL     1      42.613  19.644  20.070  0.00  0.00    -0.161 A 
ATOM     14  C   UNL     1      41.303  19.383  20.409  0.00  0.00    +0.096 A 
ATOM     15  C   UNL     1      40.324  20.197  19.854  0.00  0.00    -0.033 A 
ATOM     16  C   UNL     1      40.650  21.230  18.992  0.00  0.00    +0.142 A 
ATOM     19  C   UNL     1      41.968  21.499  18.637  0.00  0.00    -0.011 A 
ATOM     20  C   UNL     1      42.955  20.687  19.182  0.00  0.00    +0.113 A 
ATOM     21  C   UNL     1      44.001  17.526  20.612  0.00  0.00    +0.275 C 
ATOM     22  O   UNL     1      44.307  20.721  18.948  0.00  0.00    -0.279 OA
ATOM     23  O   UNL     1      45.382  17.144  20.612  0.00  0.00    -0.323 OA
ATOM     24  C   UNL     1      47.185  20.120  19.514  0.00  0.00    +0.073 A 
ENDROOT
BRANCH  16  17
ATOM     17  O   UNL     1      39.656  22.003  18.480  0.00  0.00    -0.497 OA
ATOM     18  H   UNL     1      39.911  22.923  18.330  0.00  0.00    +0.396 HD
ENDBRANCH  16  17
BRANCH   6   5
ATOM      5  C   UNL     1      49.559  20.858  19.838  0.00  0.00    +0.111 C 
BRANCH   5   4
ATOM      1  C   UNL     1      52.274  21.092  19.110  0.00  0.00    +0.074 C 
ATOM      2  C   UNL     1      51.209  21.028  18.046  0.00  0.00    -0.130 C 
ATOM      3  C   UNL     1      51.587  21.153  16.592  0.00  0.00    +0.073 C 
ATOM      4  C   UNL     1      49.953  20.860  18.384  0.00  0.00    -0.054 C 
ENDBRANCH   5   4
ENDBRANCH   6   5
TORSDOF 3
ENDMDL
MODEL 2
REMARK VINA RESULT:      -6.8      4.324      7.496
REMARK  Name = ZINC95486077
REMARK  5 active torsions:
REMARK  status: ('A' for Active; 'I' for Inactive)
REMARK    1  A    between atoms: C1_1  and  C2_2
REMARK    2  A    between atoms: C2_2  and  C20_25
REMARK    3  A    between atoms: C3_3  and  C4_4
REMARK    4  A    between atoms: C4_4  and  C5_5
REMARK    5  A    between atoms: C17_20  and  O3_24
REMARK                            x       y       z     vdW  Elec       q    Type
REMARK                         _______ _______ _______ _____ _____    ______ ____
ROOT
ATOM      6  C   UNL     1      43.379  18.794  20.649  0.00  0.00    -0.101 A 
ATOM      7  C   UNL     1      42.850  18.190  21.775  0.00  0.00    +0.056 A 
ATOM      8  C   UNL     1      43.306  16.956  22.189  0.00  0.00    -0.007 A 
ATOM      9  C   UNL     1      44.301  16.302  21.475  0.00  0.00    +0.137 A 
ATOM     10  C   UNL     1      44.814  16.919  20.326  0.00  0.00    -0.157 A 
ATOM     11  C   UNL     1      45.838  16.117  19.595  0.00  0.00    +0.222 C 
ATOM     12  C   UNL     1      45.214  14.678  19.574  0.00  0.00    -0.016 C 
ATOM     13  C   UNL     1      46.011  14.066  18.485  0.00  0.00    -0.161 A 
ATOM     14  C   UNL     1      46.349  12.764  18.185  0.00  0.00    +0.096 A 
ATOM     15  C   UNL     1      47.117  12.547  17.049  0.00  0.00    -0.033 A 
ATOM     16  C   UNL     1      47.530  13.599  16.247  0.00  0.00    +0.142 A 
ATOM     19  C   UNL     1      47.201  14.918  16.544  0.00  0.00    -0.011 A 
ATOM     20  C   UNL     1      46.437  15.146  17.682  0.00  0.00    +0.113 A 
ATOM     21  C   UNL     1      45.318  14.142  20.979  0.00  0.00    +0.275 C 
ATOM     22  O   UNL     1      46.031  16.347  18.205  0.00  0.00    -0.279 OA
ATOM     23  O   UNL     1      44.774  15.104  21.891  0.00  0.00    -0.323 OA
ATOM     24  C   UNL     1      44.365  18.148  19.921  0.00  0.00    +0.073 A 
ENDROOT
BRANCH  16  17
ATOM     17  O   UNL     1      48.276  13.335  15.142  0.00  0.00    -0.497 OA
ATOM     18  H   UNL     1      47.863  13.611  14.314  0.00  0.00    +0.396 HD
ENDBRANCH  16  17
BRANCH   6   5
ATOM      5  C   UNL     1      42.881  20.148  20.212  0.00  0.00    +0.111 C 
BRANCH   5   4
ATOM      1  C   UNL     1      41.757  22.332  18.827  0.00  0.00    +0.074 C 
ATOM      2  C   UNL     1      41.014  21.023  18.903  0.00  0.00    -0.130 C 
ATOM      3  C   UNL     1      39.641  20.899  18.296  0.00  0.00    +0.073 C 
ATOM      4  C   UNL     1      41.564  19.992  19.497  0.00  0.00    -0.054 C 
ENDBRANCH   5   4
ENDBRANCH   6   5
TORSDOF 3
ENDMDL
MODEL 3
REMARK VINA RESULT:      -6.5      2.748      3.332
REMARK  Name = ZINC95486077
REMARK  5 active torsions:
REMARK  status: ('A' for Active; 'I' for Inactive)
REMARK    1  A    between atoms: C1_1  and  C2_2
REMARK    2  A    between atoms: C2_2  and  C20_25
REMARK    3  A    between atoms: C3_3  and  C4_4
REMARK    4  A    between atoms: C4_4  and  C5_5
REMARK    5  A    between atoms: C17_20  and  O3_24
REMARK                            x       y       z     vdW  Elec       q    Type
REMARK                         _______ _______ _______ _____ _____    ______ ____
ROOT
ATOM      6  C   UNL     1      50.115  16.676  17.229  0.00  0.00    -0.101 A 
ATOM      7  C   UNL     1      50.152  15.363  17.661  0.00  0.00    +0.056 A 
ATOM      8  C   UNL     1      49.010  14.745  18.126  0.00  0.00    -0.007 A 
ATOM      9  C   UNL     1      47.808  15.438  18.171  0.00  0.00    +0.137 A 
ATOM     10  C   UNL     1      47.791  16.775  17.747  0.00  0.00    -0.157 A 
ATOM     11  C   UNL     1      46.468  17.453  17.884  0.00  0.00    +0.222 C 
ATOM     12  C   UNL     1      45.990  17.014  19.312  0.00  0.00    -0.016 C 
ATOM     13  C   UNL     1      44.952  18.041  19.564  0.00  0.00    -0.161 A 
ATOM     14  C   UNL     1      43.831  18.068  20.366  0.00  0.00    +0.096 A 
ATOM     15  C   UNL     1      43.074  19.232  20.369  0.00  0.00    -0.033 A 
ATOM     16  C   UNL     1      43.430  20.325  19.596  0.00  0.00    +0.142 A 
ATOM     19  C   UNL     1      44.556  20.307  18.778  0.00  0.00    -0.011 A 
ATOM     20  C   UNL     1      45.317  19.145  18.763  0.00  0.00    +0.113 A 
ATOM     21  C   UNL     1      45.605  15.560  19.209  0.00  0.00    +0.275 C 
ATOM     22  O   UNL     1      46.430  18.869  18.010  0.00  0.00    -0.279 OA
ATOM     23  O   UNL     1      46.676  14.831  18.600  0.00  0.00    -0.323 OA
ATOM     24  C   UNL     1      48.924  17.384  17.279  0.00  0.00    +0.073 A 
ENDROOT
BRANCH  16  17
ATOM     17  O   UNL     1      42.659  21.444  19.638  0.00  0.00    -0.497 OA
ATOM     18  H   UNL     1      41.800  21.314  20.059  0.00  0.00    +0.396 HD
ENDBRANCH  16  17
BRANCH   6   5
ATOM      5  C   UNL     1      51.366  17.338  16.713  0.00  0.00    +0.111 C 
BRANCH   5   4
ATOM      1  C   UNL     1      52.694  19.374  18.143  0.00  0.00    +0.074 C 
ATOM      2  C   UNL     1      51.655  19.730  17.112  0.00  0.00    -0.130 C 
ATOM      3  C   UNL     1      51.276  21.171  16.889  0.00  0.00    +0.073 C 
ATOM      4  C   UNL     1      51.081  18.785  16.406  0.00  0.00    -0.054 C 
ENDBRANCH   5   4
ENDBRANCH   6   5
TORSDOF 3
ENDMDL
MODEL 4
REMARK VINA RESULT:      -6.3      1.880      2.702
REMARK  Name = ZINC95486077
REMARK  5 active torsions:
REMARK  status: ('A' for Active; 'I' for Inactive)
REMARK    1  A    between atoms: C1_1  and  C2_2
REMARK    2  A    between atoms: C2_2  and  C20_25
REMARK    3  A    between atoms: C3_3  and  C4_4
REMARK    4  A    between atoms: C4_4  and  C5_5
REMARK    5  A    between atoms: C17_20  and  O3_24
REMARK                            x       y       z     vdW  Elec       q    Type
REMARK                         _______ _______ _______ _____ _____    ______ ____
ROOT
ATOM      6  C   UNL     1      49.166  19.145  19.538  0.00  0.00    -0.101 A 
ATOM      7  C   UNL     1      49.834  20.176  20.175  0.00  0.00    +0.056 A 
ATOM      8  C   UNL     1      49.132  21.175  20.817  0.00  0.00    -0.007 A 
ATOM      9  C   UNL     1      47.744  21.160  20.827  0.00  0.00    +0.137 A 
ATOM     10  C   UNL     1      47.082  20.118  20.162  0.00  0.00    -0.157 A 
ATOM     11  C   UNL     1      45.593  20.217  20.180  0.00  0.00    +0.222 C 
ATOM     12  C   UNL     1      45.333  21.728  19.852  0.00  0.00    -0.016 C 
ATOM     13  C   UNL     1      43.911  21.663  19.440  0.00  0.00    -0.161 A 
ATOM     14  C   UNL     1      42.891  22.590  19.433  0.00  0.00    +0.096 A 
ATOM     15  C   UNL     1      41.655  22.177  18.953  0.00  0.00    -0.033 A 
ATOM     16  C   UNL     1      41.453  20.884  18.500  0.00  0.00    +0.142 A 
ATOM     19  C   UNL     1      42.473  19.938  18.508  0.00  0.00    -0.011 A 
ATOM     20  C   UNL     1      43.713  20.339  18.992  0.00  0.00    +0.113 A 
ATOM     21  C   UNL     1      45.729  22.510  21.078  0.00  0.00    +0.275 C 
ATOM     22  O   UNL     1      44.848  19.585  19.146  0.00  0.00    -0.279 OA
ATOM     23  O   UNL     1      47.049  22.121  21.479  0.00  0.00    -0.323 OA
ATOM     24  C   UNL     1      47.781  19.124  19.531  0.00  0.00    +0.073 A 
ENDROOT
BRANCH  16  17
ATOM     17  O   UNL     1      40.226  20.530  18.034  0.00  0.00    -0.497 OA
ATOM     18  H   UNL     1      39.498  20.770  18.621  0.00  0.00    +0.396 HD
ENDBRANCH  16  17
BRANCH   6   5
ATOM      5  C   UNL     1      49.943  18.053  18.849  0.00  0.00    +0.111 C 
BRANCH   5   4
ATOM      1  C   UNL     1      52.597  18.787  18.239  0.00  0.00    +0.074 C 
ATOM      2  C   UNL     1      51.523  18.892  17.186  0.00  0.00    -0.130 C 
ATOM      3  C   UNL     1      51.852  19.450  15.826  0.00  0.00    +0.073 C 
ATOM      4  C   UNL     1      50.302  18.495  17.454  0.00  0.00    -0.054 C 
ENDBRANCH   5   4
ENDBRANCH   6   5
TORSDOF 3
ENDMDL
MODEL 5
REMARK VINA RESULT:      -6.2      3.994      6.909
REMARK  Name = ZINC95486077
REMARK  5 active torsions:
REMARK  status: ('A' for Active; 'I' for Inactive)
REMARK    1  A    between atoms: C1_1  and  C2_2
REMARK    2  A    between atoms: C2_2  and  C20_25
REMARK    3  A    between atoms: C3_3  and  C4_4
REMARK    4  A    between atoms: C4_4  and  C5_5
REMARK    5  A    between atoms: C17_20  and  O3_24
REMARK                            x       y       z     vdW  Elec       q    Type
REMARK                         _______ _______ _______ _____ _____    ______ ____
ROOT
ATOM      6  C   UNL     1      43.851  18.412  20.649  0.00  0.00    -0.101 A 
ATOM      7  C   UNL     1      43.326  17.830  21.789  0.00  0.00    +0.056 A 
ATOM      8  C   UNL     1      43.701  16.556  22.162  0.00  0.00    -0.007 A 
ATOM      9  C   UNL     1      44.608  15.840  21.392  0.00  0.00    +0.137 A 
ATOM     10  C   UNL     1      45.117  16.437  20.229  0.00  0.00    -0.157 A 
ATOM     11  C   UNL     1      46.041  15.571  19.439  0.00  0.00    +0.222 C 
ATOM     12  C   UNL     1      45.304  14.186  19.425  0.00  0.00    -0.016 C 
ATOM     13  C   UNL     1      46.001  13.535  18.290  0.00  0.00    -0.161 A 
ATOM     14  C   UNL     1      46.220  12.216  17.955  0.00  0.00    +0.096 A 
ATOM     15  C   UNL     1      46.918  11.963  16.781  0.00  0.00    -0.033 A 
ATOM     16  C   UNL     1      47.376  12.994  15.978  0.00  0.00    +0.142 A 
ATOM     19  C   UNL     1      47.165  14.329  16.310  0.00  0.00    -0.011 A 
ATOM     20  C   UNL     1      46.474  14.594  17.485  0.00  0.00    +0.113 A 
ATOM     21  C   UNL     1      45.428  13.617  20.815  0.00  0.00    +0.275 C 
ATOM     22  O   UNL     1      46.189  15.813  18.045  0.00  0.00    -0.279 OA
ATOM     23  O   UNL     1      45.004  14.600  21.766  0.00  0.00    -0.323 OA
ATOM     24  C   UNL     1      44.748  17.705  19.865  0.00  0.00    +0.073 A 
ENDROOT
BRANCH  16  17
ATOM     17  O   UNL     1      48.048  12.694  14.835  0.00  0.00    -0.497 OA
ATOM     18  H   UNL     1      48.578  11.888  14.890  0.00  0.00    +0.396 HD
ENDBRANCH  16  17
BRANCH   6   5
ATOM      5  C   UNL     1      43.442  19.808  20.256  0.00  0.00    +0.111 C 
BRANCH   5   4
ATOM      1  C   UNL     1      45.454  21.239  18.893  0.00  0.00    +0.074 C 
ATOM      2  C   UNL     1      45.264  21.430  20.376  0.00  0.00    -0.130 C 
ATOM      3  C   UNL     1      46.190  22.336  21.145  0.00  0.00    +0.073 C 
ATOM      4  C   UNL     1      44.290  20.808  20.997  0.00  0.00    -0.054 C 
ENDBRANCH   5   4
ENDBRANCH   6   5
TORSDOF 3
ENDMDL
MODEL 6
REMARK VINA RESULT:      -5.8      4.833      8.186
REMARK  Name = ZINC95486077
REMARK  5 active torsions:
REMARK  status: ('A' for Active; 'I' for Inactive)
REMARK    1  A    between atoms: C1_1  and  C2_2
REMARK    2  A    between atoms: C2_2  and  C20_25
REMARK    3  A    between atoms: C3_3  and  C4_4
REMARK    4  A    between atoms: C4_4  and  C5_5
REMARK    5  A    between atoms: C17_20  and  O3_24
REMARK                            x       y       z     vdW  Elec       q    Type
REMARK                         _______ _______ _______ _____ _____    ______ ____
ROOT
ATOM      6  C   UNL     1      47.846  13.689  18.217  0.00  0.00    -0.101 A 
ATOM      7  C   UNL     1      46.985  13.820  19.291  0.00  0.00    +0.056 A 
ATOM      8  C   UNL     1      46.632  15.069  19.759  0.00  0.00    -0.007 A 
ATOM      9  C   UNL     1      47.142  16.211  19.157  0.00  0.00    +0.137 A 
ATOM     10  C   UNL     1      48.028  16.061  18.081  0.00  0.00    -0.157 A 
ATOM     11  C   UNL     1      48.567  17.342  17.537  0.00  0.00    +0.222 C 
ATOM     12  C   UNL     1      48.937  18.150  18.829  0.00  0.00    -0.016 C 
ATOM     13  C   UNL     1      49.853  19.161  18.249  0.00  0.00    -0.161 A 
ATOM     14  C   UNL     1      50.222  20.429  18.642  0.00  0.00    +0.096 A 
ATOM     15  C   UNL     1      51.138  21.104  17.846  0.00  0.00    -0.033 A 
ATOM     16  C   UNL     1      51.660  20.526  16.700  0.00  0.00    +0.142 A 
ATOM     19  C   UNL     1      51.290  19.249  16.291  0.00  0.00    -0.011 A 
ATOM     20  C   UNL     1      50.369  18.567  17.077  0.00  0.00    +0.113 A 
ATOM     21  C   UNL     1      47.635  18.580  19.456  0.00  0.00    +0.275 C 
ATOM     22  O   UNL     1      49.817  17.331  16.858  0.00  0.00    -0.279 OA
ATOM     23  O   UNL     1      46.778  17.441  19.592  0.00  0.00    -0.323 OA
ATOM     24  C   UNL     1      48.372  14.820  17.614  0.00  0.00    +0.073 A 
ENDROOT
BRANCH  16  17
ATOM     17  O   UNL     1      52.559  21.225  15.957  0.00  0.00    -0.497 OA
ATOM     18  H   UNL     1      52.466  21.096  15.005  0.00  0.00    +0.396 HD
ENDBRANCH  16  17
BRANCH   6   5
ATOM      5  C   UNL     1      48.217  12.319  17.708  0.00  0.00    +0.111 C 
BRANCH   5   4
ATOM      1  C   UNL     1      47.544  11.851  15.010  0.00  0.00    +0.074 C 
ATOM      2  C   UNL     1      46.623  11.388  16.110  0.00  0.00    -0.130 C 
ATOM      3  C   UNL     1      45.311  10.731  15.768  0.00  0.00    +0.073 C 
ATOM      4  C   UNL     1      46.966  11.554  17.364  0.00  0.00    -0.054 C 
ENDBRANCH   5   4
ENDBRANCH   6   5
TORSDOF 3
ENDMDL
MODEL 7
REMARK VINA RESULT:      -5.8      3.495      7.303
REMARK  Name = ZINC95486077
REMARK  5 active torsions:
REMARK  status: ('A' for Active; 'I' for Inactive)
REMARK    1  A    between atoms: C1_1  and  C2_2
REMARK    2  A    between atoms: C2_2  and  C20_25
REMARK    3  A    between atoms: C3_3  and  C4_4
REMARK    4  A    between atoms: C4_4  and  C5_5
REMARK    5  A    between atoms: C17_20  and  O3_24
REMARK                            x       y       z     vdW  Elec       q    Type
REMARK                         _______ _______ _______ _____ _____    ______ ____
ROOT
ATOM      6  C   UNL     1      45.253  20.294  20.032  0.00  0.00    -0.101 A 
ATOM      7  C   UNL     1      46.338  21.005  20.514  0.00  0.00    +0.056 A 
ATOM      8  C   UNL     1      47.609  20.749  20.044  0.00  0.00    -0.007 A 
ATOM      9  C   UNL     1      47.815  19.770  19.082  0.00  0.00    +0.137 A 
ATOM     10  C   UNL     1      46.708  19.046  18.616  0.00  0.00    -0.157 A 
ATOM     11  C   UNL     1      47.036  17.979  17.626  0.00  0.00    +0.222 C 
ATOM     12  C   UNL     1      48.295  17.286  18.254  0.00  0.00    -0.016 C 
ATOM     13  C   UNL     1      48.287  16.006  17.505  0.00  0.00    -0.161 A 
ATOM     14  C   UNL     1      49.274  15.099  17.184  0.00  0.00    +0.096 A 
ATOM     15  C   UNL     1      48.897  13.972  16.465  0.00  0.00    -0.033 A 
ATOM     16  C   UNL     1      47.581  13.767  16.084  0.00  0.00    +0.142 A 
ATOM     19  C   UNL     1      46.578  14.680  16.397  0.00  0.00    -0.011 A 
ATOM     20  C   UNL     1      46.945  15.813  17.111  0.00  0.00    +0.113 A 
ATOM     21  C   UNL     1      49.444  18.249  18.092  0.00  0.00    +0.275 C 
ATOM     22  O   UNL     1      46.156  16.869  17.492  0.00  0.00    -0.279 OA
ATOM     23  O   UNL     1      49.056  19.533  18.594  0.00  0.00    -0.323 OA
ATOM     24  C   UNL     1      45.446  19.306  19.080  0.00  0.00    +0.073 A 
ENDROOT
BRANCH  16  17
ATOM     17  O   UNL     1      47.261  12.645  15.386  0.00  0.00    -0.497 OA
ATOM     18  H   UNL     1      47.910  12.403  14.713  0.00  0.00    +0.396 HD
ENDBRANCH  16  17
BRANCH   6   5
ATOM      5  C   UNL     1      43.867  20.588  20.545  0.00  0.00    +0.111 C 
BRANCH   5   4
ATOM      1  C   UNL     1      41.421  19.185  20.536  0.00  0.00    +0.074 C 
ATOM      2  C   UNL     1      41.810  20.033  19.353  0.00  0.00    -0.130 C 
ATOM      3  C   UNL     1      40.923  20.082  18.135  0.00  0.00    +0.073 C 
ATOM      4  C   UNL     1      42.920  20.731  19.383  0.00  0.00    -0.054 C 
ENDBRANCH   5   4
ENDBRANCH   6   5
TORSDOF 3
ENDMDL
MODEL 8
REMARK VINA RESULT:      -5.8      3.094      4.700
REMARK  Name = ZINC95486077
REMARK  5 active torsions:
REMARK  status: ('A' for Active; 'I' for Inactive)
REMARK    1  A    between atoms: C1_1  and  C2_2
REMARK    2  A    between atoms: C2_2  and  C20_25
REMARK    3  A    between atoms: C3_3  and  C4_4
REMARK    4  A    between atoms: C4_4  and  C5_5
REMARK    5  A    between atoms: C17_20  and  O3_24
REMARK                            x       y       z     vdW  Elec       q    Type
REMARK                         _______ _______ _______ _____ _____    ______ ____
ROOT
ATOM      6  C   UNL     1      51.155  17.671  16.831  0.00  0.00    -0.101 A 
ATOM      7  C   UNL     1      51.652  16.390  16.672  0.00  0.00    +0.056 A 
ATOM      8  C   UNL     1      50.846  15.292  16.894  0.00  0.00    -0.007 A 
ATOM      9  C   UNL     1      49.525  15.462  17.286  0.00  0.00    +0.137 A 
ATOM     10  C   UNL     1      49.041  16.767  17.461  0.00  0.00    -0.157 A 
ATOM     11  C   UNL     1      47.629  16.847  17.936  0.00  0.00    +0.222 C 
ATOM     12  C   UNL     1      47.574  15.767  19.071  0.00  0.00    -0.016 C 
ATOM     13  C   UNL     1      46.348  16.201  19.783  0.00  0.00    -0.161 A 
ATOM     14  C   UNL     1      45.438  15.539  20.578  0.00  0.00    +0.096 A 
ATOM     15  C   UNL     1      44.390  16.281  21.105  0.00  0.00    -0.033 A 
ATOM     16  C   UNL     1      44.262  17.635  20.843  0.00  0.00    +0.142 A 
ATOM     19  C   UNL     1      45.171  18.313  20.037  0.00  0.00    -0.011 A 
ATOM     20  C   UNL     1      46.221  17.578  19.499  0.00  0.00    +0.113 A 
ATOM     21  C   UNL     1      47.616  14.422  18.390  0.00  0.00    +0.275 C 
ATOM     22  O   UNL     1      47.205  18.005  18.644  0.00  0.00    -0.279 OA
ATOM     23  O   UNL     1      48.720  14.391  17.478  0.00  0.00    -0.323 OA
ATOM     24  C   UNL     1      49.841  17.855  17.233  0.00  0.00    +0.073 A 
ENDROOT
BRANCH  16  17
ATOM     17  O   UNL     1      43.221  18.319  21.388  0.00  0.00    -0.497 OA
ATOM     18  H   UNL     1      42.424  17.789  21.511  0.00  0.00    +0.396 HD
ENDBRANCH  16  17
BRANCH   6   5
ATOM      5  C   UNL     1      52.041  18.863  16.576  0.00  0.00    +0.111 C 
BRANCH   5   4
ATOM      1  C   UNL     1      50.978  21.294  17.532  0.00  0.00    +0.074 C 
ATOM      2  C   UNL     1      52.062  20.587  18.305  0.00  0.00    -0.130 C 
ATOM      3  C   UNL     1      52.625  21.211  19.556  0.00  0.00    +0.073 C 
ATOM      4  C   UNL     1      52.513  19.429  17.890  0.00  0.00    -0.054 C 
ENDBRANCH   5   4
ENDBRANCH   6   5
TORSDOF 3
ENDMDL
MODEL 9
REMARK VINA RESULT:      -5.7     19.999     22.788
REMARK  Name = ZINC95486077
REMARK  5 active torsions:
REMARK  status: ('A' for Active; 'I' for Inactive)
REMARK    1  A    between atoms: C1_1  and  C2_2
REMARK    2  A    between atoms: C2_2  and  C20_25
REMARK    3  A    between atoms: C3_3  and  C4_4
REMARK    4  A    between atoms: C4_4  and  C5_5
REMARK    5  A    between atoms: C17_20  and  O3_24
REMARK                            x       y       z     vdW  Elec       q    Type
REMARK                         _______ _______ _______ _____ _____    ______ ____
ROOT
ATOM      6  C   UNL     1      56.630  31.643   1.099  0.00  0.00    -0.101 A 
ATOM      7  C   UNL     1      57.869  32.185   1.390  0.00  0.00    +0.056 A 
ATOM      8  C   UNL     1      58.133  32.697   2.644  0.00  0.00    -0.007 A 
ATOM      9  C   UNL     1      57.154  32.678   3.628  0.00  0.00    +0.137 A 
ATOM     10  C   UNL     1      55.898  32.141   3.312  0.00  0.00    -0.157 A 
ATOM     11  C   UNL     1      54.895  32.215   4.415  0.00  0.00    +0.222 C 
ATOM     12  C   UNL     1      55.077  33.673   4.963  0.00  0.00    -0.016 C 
ATOM     13  C   UNL     1      53.801  33.834   5.700  0.00  0.00    -0.161 A 
ATOM     14  C   UNL     1      53.423  34.626   6.763  0.00  0.00    +0.096 A 
ATOM     15  C   UNL     1      52.107  34.527   7.198  0.00  0.00    -0.033 A 
ATOM     16  C   UNL     1      51.210  33.665   6.589  0.00  0.00    +0.142 A 
ATOM     19  C   UNL     1      51.583  32.856   5.520  0.00  0.00    -0.011 A 
ATOM     20  C   UNL     1      52.898  32.943   5.081  0.00  0.00    +0.113 A 
ATOM     21  C   UNL     1      56.387  33.693   5.708  0.00  0.00    +0.275 C 
ATOM     22  O   UNL     1      53.511  32.221   4.088  0.00  0.00    -0.279 OA
ATOM     23  O   UNL     1      57.415  33.153   4.869  0.00  0.00    -0.323 OA
ATOM     24  C   UNL     1      55.640  31.628   2.069  0.00  0.00    +0.073 A 
ENDROOT
BRANCH  16  17
ATOM     17  O   UNL     1      49.932  33.608   7.048  0.00  0.00    -0.497 OA
ATOM     18  H   UNL     1      49.693  32.760   7.443  0.00  0.00    +0.396 HD
ENDBRANCH  16  17
BRANCH   6   5
ATOM      5  C   UNL     1      56.355  31.077  -0.270  0.00  0.00    +0.111 C 
BRANCH   5   4
ATOM      1  C   UNL     1      55.230  29.138  -1.981  0.00  0.00    +0.074 C 
ATOM      2  C   UNL     1      56.432  28.796  -1.139  0.00  0.00    -0.130 C 
ATOM      3  C   UNL     1      56.996  27.399  -1.161  0.00  0.00    +0.073 C 
ATOM      4  C   UNL     1      56.989  29.715  -0.389  0.00  0.00    -0.054 C 
ENDBRANCH   5   4
ENDBRANCH   6   5
TORSDOF 3
ENDMDL
