MODEL 1
REMARK VINA RESULT:      -5.8      0.000      0.000
REMARK  Name = ZINC13359122
REMARK  12 active torsions:
REMARK  status: ('A' for Active; 'I' for Inactive)
REMARK    1  A    between atoms: C1_1  and  C2_2
REMARK    2  A    between atoms: C5_5  and  C14_16
REMARK    3  A    between atoms: C8_8  and  O2_14
REMARK    4  A    between atoms: C10_10  and  O1_12
REMARK    5  A    between atoms: O1_12  and  C12_13
REMARK    6  A    between atoms: O2_14  and  C13_15
REMARK    7  A    between atoms: C15_17  and  O4_31
REMARK    8  A    between atoms: C17_19  and  O3_29
REMARK    9  A    between atoms: C21_23  and  C24_28
REMARK   10  A    between atoms: C22_25  and  C23_27
REMARK   11  A    between atoms: O3_29  and  C25_30
REMARK   12  A    between atoms: O4_31  and  C26_32
REMARK                            x       y       z     vdW  Elec       q    Type
REMARK                         _______ _______ _______ _____ _____    ______ ____
ROOT
ATOM      6  C   UNL     1      48.132  18.723  18.609  0.00  0.00    -0.086 A 
ATOM      7  C   UNL     1      48.120  17.791  17.567  0.00  0.00    +0.211 A 
ATOM     10  C   UNL     1      49.286  17.124  17.232  0.00  0.00    -0.148 A 
ATOM     11  C   UNL     1      50.454  17.382  17.932  0.00  0.00    +0.202 A 
ATOM     14  C   UNL     1      50.467  18.308  18.973  0.00  0.00    -0.204 A 
ATOM     15  C   UNL     1      51.765  18.543  19.703  0.00  0.00    +0.247 C 
ATOM     16  N   UNL     1      51.714  19.805  20.455  0.00  0.00    -0.511 N 
ATOM     17  H   UNL     1      51.677  20.592  19.797  0.00  0.00    +0.433 HD
ATOM     18  H   UNL     1      52.554  19.886  21.040  0.00  0.00    +0.434 HD
ATOM     19  C   UNL     1      50.515  19.830  21.313  0.00  0.00    +0.172 C 
ATOM     20  C   UNL     1      50.609  21.008  22.285  0.00  0.00    +0.093 C 
ATOM     21  C   UNL     1      49.283  19.993  20.424  0.00  0.00    +0.138 C 
ATOM     22  C   UNL     1      52.015  17.385  20.672  0.00  0.00    +0.091 C 
ATOM     23  C   UNL     1      49.314  18.977  19.310  0.00  0.00    +0.002 A 
ENDROOT
BRANCH   6   5
ATOM      1  C   UNL     1      45.311  15.484  21.461  0.00  0.00    +0.093 C 
ATOM      2  C   UNL     1      45.112  16.899  20.977  0.00  0.00    -0.014 A 
ATOM      3  C   UNL     1      46.076  17.489  20.217  0.00  0.00    -0.052 A 
ATOM      4  C   UNL     1      45.901  18.804  19.763  0.00  0.00    +0.049 A 
ATOM      5  C   UNL     1      46.888  19.442  18.971  0.00  0.00    -0.102 A 
ATOM     24  C   UNL     1      46.685  20.742  18.543  0.00  0.00    +0.094 A 
ATOM     25  C   UNL     1      45.520  21.424  18.872  0.00  0.00    -0.114 A 
ATOM     26  C   UNL     1      44.545  20.829  19.641  0.00  0.00    +0.187 A 
ATOM     29  C   UNL     1      44.721  19.507  20.098  0.00  0.00    -0.105 A 
ATOM     30  C   UNL     1      43.739  18.873  20.885  0.00  0.00    +0.180 A 
ATOM     33  C   UNL     1      43.947  17.581  21.313  0.00  0.00    -0.110 A 
BRANCH  26  27
ATOM     27  O   UNL     1      43.414  21.513  19.956  0.00  0.00    -0.288 OA
ATOM     28  C   UNL     1      43.387  22.904  19.630  0.00  0.00    +0.245 C 
ENDBRANCH  26  27
BRANCH  30  31
ATOM     31  O   UNL     1      42.599  19.529  21.218  0.00  0.00    -0.289 OA
ATOM     32  C   UNL     1      41.372  18.809  21.084  0.00  0.00    +0.245 C 
ENDBRANCH  30  31
ENDBRANCH   6   5
BRANCH   7   8
ATOM      8  O   UNL     1      46.971  17.541  16.886  0.00  0.00    -0.291 OA
ATOM      9  C   UNL     1      46.598  16.172  16.722  0.00  0.00    +0.253 C 
ENDBRANCH   7   8
BRANCH  11  12
ATOM     12  O   UNL     1      51.595  16.724  17.600  0.00  0.00    -0.313 OA
ATOM     13  C   UNL     1      51.491  15.318  17.370  0.00  0.00    +0.261 C 
ENDBRANCH  11  12
TORSDOF 5
ENDMDL
MODEL 2
REMARK VINA RESULT:      -5.6      2.579      6.900
REMARK  Name = ZINC13359122
REMARK  12 active torsions:
REMARK  status: ('A' for Active; 'I' for Inactive)
REMARK    1  A    between atoms: C1_1  and  C2_2
REMARK    2  A    between atoms: C5_5  and  C14_16
REMARK    3  A    between atoms: C8_8  and  O2_14
REMARK    4  A    between atoms: C10_10  and  O1_12
REMARK    5  A    between atoms: O1_12  and  C12_13
REMARK    6  A    between atoms: O2_14  and  C13_15
REMARK    7  A    between atoms: C15_17  and  O4_31
REMARK    8  A    between atoms: C17_19  and  O3_29
REMARK    9  A    between atoms: C21_23  and  C24_28
REMARK   10  A    between atoms: C22_25  and  C23_27
REMARK   11  A    between atoms: O3_29  and  C25_30
REMARK   12  A    between atoms: O4_31  and  C26_32
REMARK                            x       y       z     vdW  Elec       q    Type
REMARK                         _______ _______ _______ _____ _____    ______ ____
ROOT
ATOM      6  C   UNL     1      47.203  19.276  21.152  0.00  0.00    -0.086 A 
ATOM      7  C   UNL     1      47.100  18.094  21.891  0.00  0.00    +0.211 A 
ATOM     10  C   UNL     1      45.861  17.676  22.344  0.00  0.00    -0.148 A 
ATOM     11  C   UNL     1      44.732  18.428  22.059  0.00  0.00    +0.202 A 
ATOM     14  C   UNL     1      44.832  19.605  21.320  0.00  0.00    -0.204 A 
ATOM     15  C   UNL     1      43.571  20.379  21.036  0.00  0.00    +0.247 C 
ATOM     16  N   UNL     1      43.889  21.756  20.632  0.00  0.00    -0.511 N 
ATOM     17  H   UNL     1      44.290  22.261  21.431  0.00  0.00    +0.433 HD
ATOM     18  H   UNL     1      43.029  22.227  20.326  0.00  0.00    +0.434 HD
ATOM     19  C   UNL     1      44.861  21.742  19.524  0.00  0.00    +0.172 C 
ATOM     20  C   UNL     1      44.979  23.149  18.932  0.00  0.00    +0.093 C 
ATOM     21  C   UNL     1      46.217  21.299  20.072  0.00  0.00    +0.138 C 
ATOM     22  C   UNL     1      42.797  19.687  19.912  0.00  0.00    +0.091 C 
ATOM     23  C   UNL     1      46.061  20.029  20.869  0.00  0.00    +0.002 A 
ENDROOT
BRANCH   6   5
ATOM      1  C   UNL     1      48.233  16.579  16.880  0.00  0.00    +0.093 C 
ATOM      2  C   UNL     1      48.971  17.647  17.648  0.00  0.00    -0.014 A 
ATOM      3  C   UNL     1      48.410  18.172  18.772  0.00  0.00    -0.052 A 
ATOM      4  C   UNL     1      49.087  19.166  19.493  0.00  0.00    +0.049 A 
ATOM      5  C   UNL     1      48.527  19.730  20.666  0.00  0.00    -0.102 A 
ATOM     24  C   UNL     1      49.221  20.712  21.351  0.00  0.00    +0.094 A 
ATOM     25  C   UNL     1      50.466  21.142  20.908  0.00  0.00    -0.114 A 
ATOM     26  C   UNL     1      51.034  20.611  19.771  0.00  0.00    +0.187 A 
ATOM     29  C   UNL     1      50.353  19.613  19.046  0.00  0.00    -0.105 A 
ATOM     30  C   UNL     1      50.910  19.052  17.879  0.00  0.00    +0.180 A 
ATOM     33  C   UNL     1      50.214  18.079  17.198  0.00  0.00    -0.110 A 
BRANCH  26  27
ATOM     27  O   UNL     1      52.250  21.048  19.350  0.00  0.00    -0.288 OA
ATOM     28  C   UNL     1      52.959  21.929  20.222  0.00  0.00    +0.245 C 
ENDBRANCH  26  27
BRANCH  30  31
ATOM     31  O   UNL     1      52.123  19.467  17.432  0.00  0.00    -0.289 OA
ATOM     32  C   UNL     1      52.207  19.874  16.065  0.00  0.00    +0.245 C 
ENDBRANCH  30  31
ENDBRANCH   6   5
BRANCH   7   8
ATOM      8  O   UNL     1      48.210  17.359  22.165  0.00  0.00    -0.291 OA
ATOM      9  C   UNL     1      48.173  15.974  21.819  0.00  0.00    +0.253 C 
ENDBRANCH   7   8
BRANCH  11  12
ATOM     12  O   UNL     1      43.518  18.014  22.505  0.00  0.00    -0.313 OA
ATOM     13  C   UNL     1      43.223  16.621  22.386  0.00  0.00    +0.261 C 
ENDBRANCH  11  12
TORSDOF 5
ENDMDL
MODEL 3
REMARK VINA RESULT:      -5.2      2.280      3.658
REMARK  Name = ZINC13359122
REMARK  12 active torsions:
REMARK  status: ('A' for Active; 'I' for Inactive)
REMARK    1  A    between atoms: C1_1  and  C2_2
REMARK    2  A    between atoms: C5_5  and  C14_16
REMARK    3  A    between atoms: C8_8  and  O2_14
REMARK    4  A    between atoms: C10_10  and  O1_12
REMARK    5  A    between atoms: O1_12  and  C12_13
REMARK    6  A    between atoms: O2_14  and  C13_15
REMARK    7  A    between atoms: C15_17  and  O4_31
REMARK    8  A    between atoms: C17_19  and  O3_29
REMARK    9  A    between atoms: C21_23  and  C24_28
REMARK   10  A    between atoms: C22_25  and  C23_27
REMARK   11  A    between atoms: O3_29  and  C25_30
REMARK   12  A    between atoms: O4_31  and  C26_32
REMARK                            x       y       z     vdW  Elec       q    Type
REMARK                         _______ _______ _______ _____ _____    ______ ____
ROOT
ATOM      6  C   UNL     1      48.689  17.100  19.184  0.00  0.00    -0.086 A 
ATOM      7  C   UNL     1      48.487  15.961  19.968  0.00  0.00    +0.211 A 
ATOM     10  C   UNL     1      49.490  15.012  20.067  0.00  0.00    -0.148 A 
ATOM     11  C   UNL     1      50.685  15.198  19.392  0.00  0.00    +0.202 A 
ATOM     14  C   UNL     1      50.890  16.335  18.612  0.00  0.00    -0.204 A 
ATOM     15  C   UNL     1      52.212  16.487  17.905  0.00  0.00    +0.247 C 
ATOM     16  N   UNL     1      52.112  17.483  16.829  0.00  0.00    -0.511 N 
ATOM     17  H   UNL     1      51.499  17.123  16.088  0.00  0.00    +0.433 HD
ATOM     18  H   UNL     1      53.047  17.661  16.443  0.00  0.00    +0.434 HD
ATOM     19  C   UNL     1      51.553  18.740  17.360  0.00  0.00    +0.172 C 
ATOM     20  C   UNL     1      51.704  19.846  16.313  0.00  0.00    +0.093 C 
ATOM     21  C   UNL     1      50.072  18.522  17.668  0.00  0.00    +0.138 C 
ATOM     22  C   UNL     1      53.274  16.934  18.913  0.00  0.00    +0.091 C 
ATOM     23  C   UNL     1      49.898  17.281  18.506  0.00  0.00    +0.002 A 
ENDROOT
BRANCH   6   5
ATOM      1  C   UNL     1      49.859  20.865  22.505  0.00  0.00    +0.093 C 
ATOM      2  C   UNL     1      48.728  20.641  21.534  0.00  0.00    -0.014 A 
ATOM      3  C   UNL     1      48.709  19.507  20.778  0.00  0.00    -0.052 A 
ATOM      4  C   UNL     1      47.663  19.289  19.870  0.00  0.00    +0.049 A 
ATOM      5  C   UNL     1      47.619  18.119  19.072  0.00  0.00    -0.102 A 
ATOM     24  C   UNL     1      46.574  17.937  18.183  0.00  0.00    +0.094 A 
ATOM     25  C   UNL     1      45.563  18.883  18.074  0.00  0.00    -0.114 A 
ATOM     26  C   UNL     1      45.581  20.029  18.837  0.00  0.00    +0.187 A 
ATOM     29  C   UNL     1      46.632  20.249  19.749  0.00  0.00    -0.105 A 
ATOM     30  C   UNL     1      46.676  21.413  20.543  0.00  0.00    +0.180 A 
ATOM     33  C   UNL     1      47.720  21.593  21.422  0.00  0.00    -0.110 A 
BRANCH  26  27
ATOM     27  O   UNL     1      44.585  20.946  18.713  0.00  0.00    -0.288 OA
ATOM     28  C   UNL     1      43.254  20.495  18.967  0.00  0.00    +0.245 C 
ENDBRANCH  26  27
BRANCH  30  31
ATOM     31  O   UNL     1      45.697  22.348  20.442  0.00  0.00    -0.289 OA
ATOM     32  C   UNL     1      45.033  22.726  21.650  0.00  0.00    +0.245 C 
ENDBRANCH  30  31
ENDBRANCH   6   5
BRANCH   7   8
ATOM      8  O   UNL     1      47.313  15.785  20.629  0.00  0.00    -0.291 OA
ATOM      9  C   UNL     1      46.862  14.441  20.804  0.00  0.00    +0.253 C 
ENDBRANCH   7   8
BRANCH  11  12
ATOM     12  O   UNL     1      51.666  14.264  19.492  0.00  0.00    -0.313 OA
ATOM     13  C   UNL     1      51.257  12.913  19.717  0.00  0.00    +0.261 C 
ENDBRANCH  11  12
TORSDOF 5
ENDMDL
MODEL 4
REMARK VINA RESULT:      -5.2      1.982      2.930
REMARK  Name = ZINC13359122
REMARK  12 active torsions:
REMARK  status: ('A' for Active; 'I' for Inactive)
REMARK    1  A    between atoms: C1_1  and  C2_2
REMARK    2  A    between atoms: C5_5  and  C14_16
REMARK    3  A    between atoms: C8_8  and  O2_14
REMARK    4  A    between atoms: C10_10  and  O1_12
REMARK    5  A    between atoms: O1_12  and  C12_13
REMARK    6  A    between atoms: O2_14  and  C13_15
REMARK    7  A    between atoms: C15_17  and  O4_31
REMARK    8  A    between atoms: C17_19  and  O3_29
REMARK    9  A    between atoms: C21_23  and  C24_28
REMARK   10  A    between atoms: C22_25  and  C23_27
REMARK   11  A    between atoms: O3_29  and  C25_30
REMARK   12  A    between atoms: O4_31  and  C26_32
REMARK                            x       y       z     vdW  Elec       q    Type
REMARK                         _______ _______ _______ _____ _____    ______ ____
ROOT
ATOM      6  C   UNL     1      48.291  15.787  17.697  0.00  0.00    -0.086 A 
ATOM      7  C   UNL     1      48.045  14.663  16.903  0.00  0.00    +0.211 A 
ATOM     10  C   UNL     1      49.101  13.861  16.508  0.00  0.00    -0.148 A 
ATOM     11  C   UNL     1      50.392  14.174  16.903  0.00  0.00    +0.202 A 
ATOM     14  C   UNL     1      50.639  15.293  17.697  0.00  0.00    -0.204 A 
ATOM     15  C   UNL     1      52.062  15.581  18.101  0.00  0.00    +0.247 C 
ATOM     16  N   UNL     1      52.198  16.971  18.558  0.00  0.00    -0.511 N 
ATOM     17  H   UNL     1      52.054  17.606  17.764  0.00  0.00    +0.433 HD
ATOM     18  H   UNL     1      53.140  17.112  18.943  0.00  0.00    +0.434 HD
ATOM     19  C   UNL     1      51.196  17.257  19.600  0.00  0.00    +0.172 C 
ATOM     20  C   UNL     1      51.514  18.602  20.259  0.00  0.00    +0.093 C 
ATOM     21  C   UNL     1      49.816  17.320  18.945  0.00  0.00    +0.138 C 
ATOM     22  C   UNL     1      52.466  14.634  19.233  0.00  0.00    +0.091 C 
ATOM     23  C   UNL     1      49.595  16.097  18.092  0.00  0.00    +0.002 A 
ENDROOT
BRANCH   6   5
ATOM      1  C   UNL     1      46.208  13.584  21.867  0.00  0.00    +0.093 C 
ATOM      2  C   UNL     1      45.902  14.833  21.080  0.00  0.00    -0.014 A 
ATOM      3  C   UNL     1      46.664  15.144  19.994  0.00  0.00    -0.052 A 
ATOM      4  C   UNL     1      46.389  16.304  19.256  0.00  0.00    +0.049 A 
ATOM      5  C   UNL     1      47.165  16.651  18.123  0.00  0.00    -0.102 A 
ATOM     24  C   UNL     1      46.869  17.806  17.419  0.00  0.00    +0.094 A 
ATOM     25  C   UNL     1      45.812  18.621  17.805  0.00  0.00    -0.114 A 
ATOM     26  C   UNL     1      45.042  18.308  18.903  0.00  0.00    +0.187 A 
ATOM     29  C   UNL     1      45.318  17.143  19.645  0.00  0.00    -0.105 A 
ATOM     30  C   UNL     1      44.546  16.797  20.773  0.00  0.00    +0.180 A 
ATOM     33  C   UNL     1      44.847  15.650  21.473  0.00  0.00    -0.110 A 
BRANCH  26  27
ATOM     27  O   UNL     1      44.016  19.120  19.269  0.00  0.00    -0.288 OA
ATOM     28  C   UNL     1      44.350  20.455  19.649  0.00  0.00    +0.245 C 
ENDBRANCH  26  27
BRANCH  30  31
ATOM     31  O   UNL     1      43.514  17.587  21.164  0.00  0.00    -0.289 OA
ATOM     32  C   UNL     1      43.040  17.421  22.502  0.00  0.00    +0.245 C 
ENDBRANCH  30  31
ENDBRANCH   6   5
BRANCH   7   8
ATOM      8  O   UNL     1      46.777  14.360  16.520  0.00  0.00    -0.291 OA
ATOM      9  C   UNL     1      46.232  13.129  16.999  0.00  0.00    +0.253 C 
ENDBRANCH   7   8
BRANCH  11  12
ATOM     12  O   UNL     1      51.425  13.384  16.512  0.00  0.00    -0.313 OA
ATOM     13  C   UNL     1      51.461  12.993  15.138  0.00  0.00    +0.261 C 
ENDBRANCH  11  12
TORSDOF 5
ENDMDL
MODEL 5
REMARK VINA RESULT:      -5.1      3.347      6.210
REMARK  Name = ZINC13359122
REMARK  12 active torsions:
REMARK  status: ('A' for Active; 'I' for Inactive)
REMARK    1  A    between atoms: C1_1  and  C2_2
REMARK    2  A    between atoms: C5_5  and  C14_16
REMARK    3  A    between atoms: C8_8  and  O2_14
REMARK    4  A    between atoms: C10_10  and  O1_12
REMARK    5  A    between atoms: O1_12  and  C12_13
REMARK    6  A    between atoms: O2_14  and  C13_15
REMARK    7  A    between atoms: C15_17  and  O4_31
REMARK    8  A    between atoms: C17_19  and  O3_29
REMARK    9  A    between atoms: C21_23  and  C24_28
REMARK   10  A    between atoms: C22_25  and  C23_27
REMARK   11  A    between atoms: O3_29  and  C25_30
REMARK   12  A    between atoms: O4_31  and  C26_32
REMARK                            x       y       z     vdW  Elec       q    Type
REMARK                         _______ _______ _______ _____ _____    ______ ____
ROOT
ATOM      6  C   UNL     1      48.717  16.216  18.013  0.00  0.00    -0.086 A 
ATOM      7  C   UNL     1      47.371  16.303  17.642  0.00  0.00    +0.211 A 
ATOM     10  C   UNL     1      46.531  15.224  17.857  0.00  0.00    -0.148 A 
ATOM     11  C   UNL     1      47.027  14.068  18.439  0.00  0.00    +0.202 A 
ATOM     14  C   UNL     1      48.368  13.980  18.812  0.00  0.00    -0.204 A 
ATOM     15  C   UNL     1      48.850  12.700  19.445  0.00  0.00    +0.247 C 
ATOM     16  N   UNL     1      50.316  12.616  19.389  0.00  0.00    -0.511 N 
ATOM     17  H   UNL     1      50.613  12.511  18.411  0.00  0.00    +0.433 HD
ATOM     18  H   UNL     1      50.630  11.803  19.931  0.00  0.00    +0.434 HD
ATOM     19  C   UNL     1      50.911  13.841  19.953  0.00  0.00    +0.172 C 
ATOM     20  C   UNL     1      52.416  13.636  20.142  0.00  0.00    +0.093 C 
ATOM     21  C   UNL     1      50.667  14.993  18.979  0.00  0.00    +0.138 C 
ATOM     22  C   UNL     1      48.395  12.659  20.906  0.00  0.00    +0.091 C 
ATOM     23  C   UNL     1      49.210  15.046  18.599  0.00  0.00    +0.002 A 
ENDROOT
BRANCH   6   5
ATOM      1  C   UNL     1      48.488  19.160  22.239  0.00  0.00    +0.093 C 
ATOM      2  C   UNL     1      49.241  19.254  20.936  0.00  0.00    -0.014 A 
ATOM      3  C   UNL     1      49.077  18.284  19.994  0.00  0.00    -0.052 A 
ATOM      4  C   UNL     1      49.774  18.362  18.780  0.00  0.00    +0.049 A 
ATOM      5  C   UNL     1      49.622  17.366  17.784  0.00  0.00    -0.102 A 
ATOM     24  C   UNL     1      50.328  17.472  16.599  0.00  0.00    +0.094 A 
ATOM     25  C   UNL     1      51.175  18.549  16.371  0.00  0.00    -0.114 A 
ATOM     26  C   UNL     1      51.343  19.531  17.322  0.00  0.00    +0.187 A 
ATOM     29  C   UNL     1      50.643  19.452  18.543  0.00  0.00    -0.105 A 
ATOM     30  C   UNL     1      50.794  20.443  19.534  0.00  0.00    +0.180 A 
ATOM     33  C   UNL     1      50.093  20.332  20.714  0.00  0.00    -0.110 A 
BRANCH  26  27
ATOM     27  O   UNL     1      52.179  20.574  17.084  0.00  0.00    -0.288 OA
ATOM     28  C   UNL     1      51.954  21.326  15.889  0.00  0.00    +0.245 C 
ENDBRANCH  26  27
BRANCH  30  31
ATOM     31  O   UNL     1      51.622  21.498  19.326  0.00  0.00    -0.289 OA
ATOM     32  C   UNL     1      52.538  21.821  20.375  0.00  0.00    +0.245 C 
ENDBRANCH  30  31
ENDBRANCH   6   5
BRANCH   7   8
ATOM      8  O   UNL     1      46.891  17.440  17.074  0.00  0.00    -0.291 OA
ATOM      9  C   UNL     1      45.988  18.224  17.856  0.00  0.00    +0.253 C 
ENDBRANCH   7   8
BRANCH  11  12
ATOM     12  O   UNL     1      46.199  13.012  18.648  0.00  0.00    -0.313 OA
ATOM     13  C   UNL     1      44.989  13.267  19.363  0.00  0.00    +0.261 C 
ENDBRANCH  11  12
TORSDOF 5
ENDMDL
MODEL 6
REMARK VINA RESULT:      -4.9      4.089      6.999
REMARK  Name = ZINC13359122
REMARK  12 active torsions:
REMARK  status: ('A' for Active; 'I' for Inactive)
REMARK    1  A    between atoms: C1_1  and  C2_2
REMARK    2  A    between atoms: C5_5  and  C14_16
REMARK    3  A    between atoms: C8_8  and  O2_14
REMARK    4  A    between atoms: C10_10  and  O1_12
REMARK    5  A    between atoms: O1_12  and  C12_13
REMARK    6  A    between atoms: O2_14  and  C13_15
REMARK    7  A    between atoms: C15_17  and  O4_31
REMARK    8  A    between atoms: C17_19  and  O3_29
REMARK    9  A    between atoms: C21_23  and  C24_28
REMARK   10  A    between atoms: C22_25  and  C23_27
REMARK   11  A    between atoms: O3_29  and  C25_30
REMARK   12  A    between atoms: O4_31  and  C26_32
REMARK                            x       y       z     vdW  Elec       q    Type
REMARK                         _______ _______ _______ _____ _____    ______ ____
ROOT
ATOM      6  C   UNL     1      51.010  16.593  19.366  0.00  0.00    -0.086 A 
ATOM      7  C   UNL     1      50.744  16.518  20.737  0.00  0.00    +0.211 A 
ATOM     10  C   UNL     1      50.873  17.650  21.522  0.00  0.00    -0.148 A 
ATOM     11  C   UNL     1      51.263  18.849  20.946  0.00  0.00    +0.202 A 
ATOM     14  C   UNL     1      51.526  18.927  19.580  0.00  0.00    -0.204 A 
ATOM     15  C   UNL     1      51.941  20.258  19.008  0.00  0.00    +0.247 C 
ATOM     16  N   UNL     1      52.569  20.082  17.691  0.00  0.00    -0.511 N 
ATOM     17  H   UNL     1      53.466  19.595  17.804  0.00  0.00    +0.433 HD
ATOM     18  H   UNL     1      52.731  21.003  17.266  0.00  0.00    +0.434 HD
ATOM     19  C   UNL     1      51.687  19.288  16.817  0.00  0.00    +0.172 C 
ATOM     20  C   UNL     1      52.213  19.339  15.381  0.00  0.00    +0.093 C 
ATOM     21  C   UNL     1      51.684  17.842  17.312  0.00  0.00    +0.138 C 
ATOM     22  C   UNL     1      50.706  21.152  18.866  0.00  0.00    +0.091 C 
ATOM     23  C   UNL     1      51.403  17.806  18.793  0.00  0.00    +0.002 A 
ENDROOT
BRANCH   6   5
ATOM      1  C   UNL     1      46.233  16.651  17.430  0.00  0.00    +0.093 C 
ATOM      2  C   UNL     1      47.404  15.711  17.299  0.00  0.00    -0.014 A 
ATOM      3  C   UNL     1      48.563  15.988  17.960  0.00  0.00    -0.052 A 
ATOM      4  C   UNL     1      49.659  15.121  17.844  0.00  0.00    +0.049 A 
ATOM      5  C   UNL     1      50.876  15.385  18.520  0.00  0.00    -0.102 A 
ATOM     24  C   UNL     1      51.939  14.510  18.380  0.00  0.00    +0.094 A 
ATOM     25  C   UNL     1      51.822  13.371  17.594  0.00  0.00    -0.114 A 
ATOM     26  C   UNL     1      50.651  13.090  16.925  0.00  0.00    +0.187 A 
ATOM     29  C   UNL     1      49.550  13.961  17.041  0.00  0.00    -0.105 A 
ATOM     30  C   UNL     1      48.340  13.699  16.368  0.00  0.00    +0.180 A 
ATOM     33  C   UNL     1      47.286  14.574  16.506  0.00  0.00    -0.110 A 
BRANCH  26  27
ATOM     27  O   UNL     1      50.557  11.974  16.156  0.00  0.00    -0.288 OA
ATOM     28  C   UNL     1      51.633  11.717  15.251  0.00  0.00    +0.245 C 
ENDBRANCH  26  27
BRANCH  30  31
ATOM     31  O   UNL     1      48.214  12.592  15.592  0.00  0.00    -0.289 OA
ATOM     32  C   UNL     1      47.904  12.798  14.212  0.00  0.00    +0.245 C 
ENDBRANCH  30  31
ENDBRANCH   6   5
BRANCH   7   8
ATOM      8  O   UNL     1      50.360  15.340  21.295  0.00  0.00    -0.291 OA
ATOM      9  C   UNL     1      49.003  15.239  21.729  0.00  0.00    +0.253 C 
ENDBRANCH   7   8
BRANCH  11  12
ATOM     12  O   UNL     1      51.389  19.957  21.721  0.00  0.00    -0.313 OA
ATOM     13  C   UNL     1      52.582  20.075  22.498  0.00  0.00    +0.261 C 
ENDBRANCH  11  12
TORSDOF 5
ENDMDL
MODEL 7
REMARK VINA RESULT:      -4.9      3.706      6.239
REMARK  Name = ZINC13359122
REMARK  12 active torsions:
REMARK  status: ('A' for Active; 'I' for Inactive)
REMARK    1  A    between atoms: C1_1  and  C2_2
REMARK    2  A    between atoms: C5_5  and  C14_16
REMARK    3  A    between atoms: C8_8  and  O2_14
REMARK    4  A    between atoms: C10_10  and  O1_12
REMARK    5  A    between atoms: O1_12  and  C12_13
REMARK    6  A    between atoms: O2_14  and  C13_15
REMARK    7  A    between atoms: C15_17  and  O4_31
REMARK    8  A    between atoms: C17_19  and  O3_29
REMARK    9  A    between atoms: C21_23  and  C24_28
REMARK   10  A    between atoms: C22_25  and  C23_27
REMARK   11  A    between atoms: O3_29  and  C25_30
REMARK   12  A    between atoms: O4_31  and  C26_32
REMARK                            x       y       z     vdW  Elec       q    Type
REMARK                         _______ _______ _______ _____ _____    ______ ____
ROOT
ATOM      6  C   UNL     1      49.337  15.988  18.227  0.00  0.00    -0.086 A 
ATOM      7  C   UNL     1      48.221  15.919  17.388  0.00  0.00    +0.211 A 
ATOM     10  C   UNL     1      48.033  14.804  16.590  0.00  0.00    -0.148 A 
ATOM     11  C   UNL     1      48.949  13.765  16.628  0.00  0.00    +0.202 A 
ATOM     14  C   UNL     1      50.061  13.831  17.465  0.00  0.00    -0.204 A 
ATOM     15  C   UNL     1      51.021  12.669  17.469  0.00  0.00    +0.247 C 
ATOM     16  N   UNL     1      52.308  13.063  18.059  0.00  0.00    -0.511 N 
ATOM     17  H   UNL     1      52.773  13.739  17.441  0.00  0.00    +0.433 HD
ATOM     18  H   UNL     1      52.902  12.232  18.165  0.00  0.00    +0.434 HD
ATOM     19  C   UNL     1      52.087  13.680  19.379  0.00  0.00    +0.172 C 
ATOM     20  C   UNL     1      53.429  13.837  20.099  0.00  0.00    +0.093 C 
ATOM     21  C   UNL     1      51.449  15.053  19.175  0.00  0.00    +0.138 C 
ATOM     22  C   UNL     1      50.420  11.522  18.285  0.00  0.00    +0.091 C 
ATOM     23  C   UNL     1      50.257  14.936  18.260  0.00  0.00    +0.002 A 
ENDROOT
BRANCH   6   5
ATOM      1  C   UNL     1      52.137  19.333  15.478  0.00  0.00    +0.093 C 
ATOM      2  C   UNL     1      51.549  19.352  16.867  0.00  0.00    -0.014 A 
ATOM      3  C   UNL     1      50.840  18.276  17.309  0.00  0.00    -0.052 A 
ATOM      4  C   UNL     1      50.288  18.284  18.598  0.00  0.00    +0.049 A 
ATOM      5  C   UNL     1      49.546  17.179  19.083  0.00  0.00    -0.102 A 
ATOM     24  C   UNL     1      49.012  17.221  20.359  0.00  0.00    +0.094 A 
ATOM     25  C   UNL     1      49.206  18.331  21.173  0.00  0.00    -0.114 A 
ATOM     26  C   UNL     1      49.922  19.419  20.727  0.00  0.00    +0.187 A 
ATOM     29  C   UNL     1      50.476  19.412  19.431  0.00  0.00    -0.105 A 
ATOM     30  C   UNL     1      51.215  20.511  18.949  0.00  0.00    +0.180 A 
ATOM     33  C   UNL     1      51.740  20.467  17.677  0.00  0.00    -0.110 A 
BRANCH  26  27
ATOM     27  O   UNL     1      50.097  20.497  21.535  0.00  0.00    -0.288 OA
ATOM     28  C   UNL     1      48.956  20.952  22.264  0.00  0.00    +0.245 C 
ENDBRANCH  26  27
BRANCH  30  31
ATOM     31  O   UNL     1      51.407  21.603  19.732  0.00  0.00    -0.289 OA
ATOM     32  C   UNL     1      52.756  21.923  20.080  0.00  0.00    +0.245 C 
ENDBRANCH  30  31
ENDBRANCH   6   5
BRANCH   7   8
ATOM      8  O   UNL     1      47.325  16.940  17.357  0.00  0.00    -0.291 OA
ATOM      9  C   UNL     1      46.059  16.712  17.980  0.00  0.00    +0.253 C 
ENDBRANCH   7   8
BRANCH  11  12
ATOM     12  O   UNL     1      48.760  12.674  15.842  0.00  0.00    -0.313 OA
ATOM     13  C   UNL     1      48.142  12.887  14.572  0.00  0.00    +0.261 C 
ENDBRANCH  11  12
TORSDOF 5
ENDMDL
MODEL 8
REMARK VINA RESULT:      -4.8      3.898      6.931
REMARK  Name = ZINC13359122
REMARK  12 active torsions:
REMARK  status: ('A' for Active; 'I' for Inactive)
REMARK    1  A    between atoms: C1_1  and  C2_2
REMARK    2  A    between atoms: C5_5  and  C14_16
REMARK    3  A    between atoms: C8_8  and  O2_14
REMARK    4  A    between atoms: C10_10  and  O1_12
REMARK    5  A    between atoms: O1_12  and  C12_13
REMARK    6  A    between atoms: O2_14  and  C13_15
REMARK    7  A    between atoms: C15_17  and  O4_31
REMARK    8  A    between atoms: C17_19  and  O3_29
REMARK    9  A    between atoms: C21_23  and  C24_28
REMARK   10  A    between atoms: C22_25  and  C23_27
REMARK   11  A    between atoms: O3_29  and  C25_30
REMARK   12  A    between atoms: O4_31  and  C26_32
REMARK                            x       y       z     vdW  Elec       q    Type
REMARK                         _______ _______ _______ _____ _____    ______ ____
ROOT
ATOM      6  C   UNL     1      49.198  13.074  17.996  0.00  0.00    -0.086 A 
ATOM      7  C   UNL     1      50.085  12.649  18.989  0.00  0.00    +0.211 A 
ATOM     10  C   UNL     1      51.055  11.709  18.683  0.00  0.00    -0.148 A 
ATOM     11  C   UNL     1      51.140  11.199  17.397  0.00  0.00    +0.202 A 
ATOM     14  C   UNL     1      50.258  11.624  16.405  0.00  0.00    -0.204 A 
ATOM     15  C   UNL     1      50.402  11.039  15.023  0.00  0.00    +0.247 C 
ATOM     16  N   UNL     1      49.179  11.261  14.238  0.00  0.00    -0.511 N 
ATOM     17  H   UNL     1      48.412  10.708  14.640  0.00  0.00    +0.433 HD
ATOM     18  H   UNL     1      49.341  10.967  13.268  0.00  0.00    +0.434 HD
ATOM     19  C   UNL     1      48.818  12.690  14.264  0.00  0.00    +0.172 C 
ATOM     20  C   UNL     1      47.717  12.956  13.235  0.00  0.00    +0.093 C 
ATOM     21  C   UNL     1      48.311  13.038  15.663  0.00  0.00    +0.138 C 
ATOM     22  C   UNL     1      51.586  11.703  14.316  0.00  0.00    +0.091 C 
ATOM     23  C   UNL     1      49.290  12.555  16.701  0.00  0.00    +0.002 A 
ENDROOT
BRANCH   6   5
ATOM      1  C   UNL     1      51.211  17.702  16.941  0.00  0.00    +0.093 C 
ATOM      2  C   UNL     1      49.877  17.236  17.468  0.00  0.00    -0.014 A 
ATOM      3  C   UNL     1      49.653  15.903  17.641  0.00  0.00    -0.052 A 
ATOM      4  C   UNL     1      48.416  15.458  18.129  0.00  0.00    +0.049 A 
ATOM      5  C   UNL     1      48.157  14.078  18.317  0.00  0.00    -0.102 A 
ATOM     24  C   UNL     1      46.923  13.674  18.797  0.00  0.00    +0.094 A 
ATOM     25  C   UNL     1      45.942  14.607  19.107  0.00  0.00    -0.114 A 
ATOM     26  C   UNL     1      46.167  15.955  18.933  0.00  0.00    +0.187 A 
ATOM     29  C   UNL     1      47.409  16.401  18.441  0.00  0.00    -0.105 A 
ATOM     30  C   UNL     1      47.667  17.774  18.254  0.00  0.00    +0.180 A 
ATOM     33  C   UNL     1      48.894  18.172  17.772  0.00  0.00    -0.110 A 
BRANCH  26  27
ATOM     27  O   UNL     1      45.193  16.852  19.236  0.00  0.00    -0.288 OA
ATOM     28  C   UNL     1      44.702  16.847  20.578  0.00  0.00    +0.245 C 
ENDBRANCH  26  27
BRANCH  30  31
ATOM     31  O   UNL     1      46.716  18.696  18.548  0.00  0.00    -0.289 OA
ATOM     32  C   UNL     1      47.150  19.896  19.191  0.00  0.00    +0.245 C 
ENDBRANCH  30  31
ENDBRANCH   6   5
BRANCH   7   8
ATOM      8  O   UNL     1      49.997  13.154  20.247  0.00  0.00    -0.291 OA
ATOM      9  C   UNL     1      51.040  14.037  20.665  0.00  0.00    +0.253 C 
ENDBRANCH   7   8
BRANCH  11  12
ATOM     12  O   UNL     1      52.093  10.277  17.101  0.00  0.00    -0.313 OA
ATOM     13  C   UNL     1      53.378  10.457  17.699  0.00  0.00    +0.261 C 
ENDBRANCH  11  12
TORSDOF 5
ENDMDL
MODEL 9
REMARK VINA RESULT:      -4.8      3.080      6.768
REMARK  Name = ZINC13359122
REMARK  12 active torsions:
REMARK  status: ('A' for Active; 'I' for Inactive)
REMARK    1  A    between atoms: C1_1  and  C2_2
REMARK    2  A    between atoms: C5_5  and  C14_16
REMARK    3  A    between atoms: C8_8  and  O2_14
REMARK    4  A    between atoms: C10_10  and  O1_12
REMARK    5  A    between atoms: O1_12  and  C12_13
REMARK    6  A    between atoms: O2_14  and  C13_15
REMARK    7  A    between atoms: C15_17  and  O4_31
REMARK    8  A    between atoms: C17_19  and  O3_29
REMARK    9  A    between atoms: C21_23  and  C24_28
REMARK   10  A    between atoms: C22_25  and  C23_27
REMARK   11  A    between atoms: O3_29  and  C25_30
REMARK   12  A    between atoms: O4_31  and  C26_32
REMARK                            x       y       z     vdW  Elec       q    Type
REMARK                         _______ _______ _______ _____ _____    ______ ____
ROOT
ATOM      6  C   UNL     1      48.386  16.863  18.875  0.00  0.00    -0.086 A 
ATOM      7  C   UNL     1      47.612  17.058  20.023  0.00  0.00    +0.211 A 
ATOM     10  C   UNL     1      47.834  18.171  20.816  0.00  0.00    -0.148 A 
ATOM     11  C   UNL     1      48.817  19.083  20.467  0.00  0.00    +0.202 A 
ATOM     14  C   UNL     1      49.587  18.892  19.321  0.00  0.00    -0.204 A 
ATOM     15  C   UNL     1      50.638  19.920  18.988  0.00  0.00    +0.247 C 
ATOM     16  N   UNL     1      51.608  19.375  18.028  0.00  0.00    -0.511 N 
ATOM     17  H   UNL     1      52.154  18.631  18.481  0.00  0.00    +0.433 HD
ATOM     18  H   UNL     1      52.240  20.124  17.721  0.00  0.00    +0.434 HD
ATOM     19  C   UNL     1      50.902  18.820  16.860  0.00  0.00    +0.172 C 
ATOM     20  C   UNL     1      51.913  18.506  15.755  0.00  0.00    +0.093 C 
ATOM     21  C   UNL     1      50.189  17.537  17.286  0.00  0.00    +0.138 C 
ATOM     22  C   UNL     1      49.962  21.152  18.381  0.00  0.00    +0.091 C 
ATOM     23  C   UNL     1      49.376  17.787  18.529  0.00  0.00    +0.002 A 
ENDROOT
BRANCH   6   5
ATOM      1  C   UNL     1      51.690  13.233  20.452  0.00  0.00    +0.093 C 
ATOM      2  C   UNL     1      50.632  13.291  19.378  0.00  0.00    -0.014 A 
ATOM      3  C   UNL     1      49.909  14.434  19.211  0.00  0.00    -0.052 A 
ATOM      4  C   UNL     1      48.922  14.498  18.217  0.00  0.00    +0.049 A 
ATOM      5  C   UNL     1      48.156  15.673  18.023  0.00  0.00    -0.102 A 
ATOM     24  C   UNL     1      47.187  15.702  17.035  0.00  0.00    +0.094 A 
ATOM     25  C   UNL     1      46.966  14.594  16.225  0.00  0.00    -0.114 A 
ATOM     26  C   UNL     1      47.696  13.438  16.393  0.00  0.00    +0.187 A 
ATOM     29  C   UNL     1      48.687  13.373  17.393  0.00  0.00    -0.105 A 
ATOM     30  C   UNL     1      49.450  12.204  17.587  0.00  0.00    +0.180 A 
ATOM     33  C   UNL     1      50.410  12.178  18.574  0.00  0.00    -0.110 A 
BRANCH  26  27
ATOM     27  O   UNL     1      47.462  12.363  15.596  0.00  0.00    -0.288 OA
ATOM     28  C   UNL     1      47.714  12.527  14.199  0.00  0.00    +0.245 C 
ENDBRANCH  26  27
BRANCH  30  31
ATOM     31  O   UNL     1      49.241  11.113  16.807  0.00  0.00    -0.289 OA
ATOM     32  C   UNL     1      50.374  10.288  16.526  0.00  0.00    +0.245 C 
ENDBRANCH  30  31
ENDBRANCH   6   5
BRANCH   7   8
ATOM      8  O   UNL     1      46.649  16.161  20.359  0.00  0.00    -0.291 OA
ATOM      9  C   UNL     1      45.291  16.583  20.218  0.00  0.00    +0.253 C 
ENDBRANCH   7   8
BRANCH  11  12
ATOM     12  O   UNL     1      49.030  20.173  21.248  0.00  0.00    -0.313 OA
ATOM     13  C   UNL     1      47.906  21.017  21.507  0.00  0.00    +0.261 C 
ENDBRANCH  11  12
TORSDOF 5
ENDMDL
