MODEL 1
REMARK VINA RESULT:      -6.2      0.000      0.000
REMARK  Name = ZINC95486176
REMARK  13 active torsions:
REMARK  status: ('A' for Active; 'I' for Inactive)
REMARK    1  A    between atoms: C1_1  and  C2_2
REMARK    2  A    between atoms: C6_7  and  C30_46
REMARK    3  A    between atoms: C7_8  and  C28_42
REMARK    4  A    between atoms: C9_11  and  C26_38
REMARK    5  A    between atoms: C10_13  and  C24_36
REMARK    6  A    between atoms: C10_13  and  C25_37
REMARK    7  A    between atoms: C13_17  and  O5_35
REMARK    8  A    between atoms: C14_19  and  C23_34
REMARK    9  A    between atoms: C18_27  and  C19_29
REMARK   10  A    between atoms: C26_38  and  O7_40
REMARK   11  A    between atoms: O7_40  and  C27_41
REMARK   12  A    between atoms: C28_42  and  O9_44
REMARK   13  A    between atoms: O9_44  and  C29_45
REMARK                            x       y       z     vdW  Elec       q    Type
REMARK                         _______ _______ _______ _____ _____    ______ ____
ROOT
ATOM      1  C   UNL     1      50.750  17.050  17.167  0.00  0.00    +0.051 C 
ATOM      2  C   UNL     1      50.912  16.957  18.693  0.00  0.00    -0.059 C 
ATOM      3  C   UNL     1      49.621  17.428  19.345  0.00  0.00    +0.048 C 
ATOM      4  C   UNL     1      48.460  16.464  19.197  0.00  0.00    +0.019 C 
ATOM      5  C   UNL     1      48.835  14.994  19.115  0.00  0.00    +0.019 C 
ATOM      6  C   UNL     1      47.707  14.061  19.489  0.00  0.00    -0.018 C 
ATOM      7  C   UNL     1      47.282  14.251  20.961  0.00  0.00    +0.043 C 
ATOM      8  C   UNL     1      46.428  14.256  18.670  0.00  0.00    +0.024 C 
ATOM     13  C   UNL     1      46.707  13.983  17.195  0.00  0.00    +0.079 C 
ATOM     14  C   UNL     1      46.924  12.471  17.079  0.00  0.00    +0.041 C 
ATOM     19  C   UNL     1      48.139  12.050  17.913  0.00  0.00    -0.034 C 
ATOM     20  C   UNL     1      49.395  12.409  17.120  0.00  0.00    +0.035 C 
ATOM     21  C   UNL     1      48.085  10.504  17.999  0.00  0.00    +0.027 C 
ATOM     22  C   UNL     1      48.129  12.600  19.320  0.00  0.00    +0.015 C 
ATOM     23  C   UNL     1      49.383  12.298  20.113  0.00  0.00    +0.014 C 
ATOM     24  C   UNL     1      50.532  13.267  19.935  0.00  0.00    +0.155 C 
ATOM     27  C   UNL     1      50.159  14.729  19.812  0.00  0.00    +0.009 C 
ATOM     28  C   UNL     1      50.158  15.298  21.248  0.00  0.00    +0.050 C 
ATOM     29  C   UNL     1      52.039  17.907  19.078  0.00  0.00    +0.275 C 
ATOM     35  O   UNL     1      53.330  17.417  18.775  0.00  0.00    -0.350 OA
ATOM     36  C   UNL     1      53.705  16.242  19.297  0.00  0.00    +0.507 C 
ATOM     37  O   UNL     1      54.812  16.085  19.748  0.00  0.00    -0.430 OA
ATOM     38  C   UNL     1      52.696  15.119  19.301  0.00  0.00    +0.102 C 
ATOM     39  O   UNL     1      52.032  14.811  18.078  0.00  0.00    -0.263 OA
ATOM     40  C   UNL     1      51.241  15.510  19.044  0.00  0.00    +0.064 C 
ENDROOT
BRANCH  29  30
ATOM     30  C   UNL     1      51.841  19.208  18.343  0.00  0.00    -0.189 A 
ATOM     31  C   UNL     1      52.266  19.507  17.028  0.00  0.00    -0.046 A 
ATOM     32  C   UNL     1      51.883  20.770  16.772  0.00  0.00    +0.170 A 
ATOM     33  O   UNL     1      51.252  21.251  17.855  0.00  0.00    -0.172 OA
ATOM     34  C   UNL     1      51.217  20.307  18.808  0.00  0.00    +0.209 A 
ENDBRANCH  29  30
BRANCH   8   9
ATOM      9  C   UNL     1      45.727  15.550  18.890  0.00  0.00    +0.477 C 
ATOM     12  O   UNL     1      45.803  16.427  18.061  0.00  0.00    -0.499 OA
BRANCH   9  10
ATOM     10  O   UNL     1      45.012  15.745  20.008  0.00  0.00    -0.346 OA
ATOM     11  C   UNL     1      44.727  17.099  20.369  0.00  0.00    +0.251 C 
ENDBRANCH   9  10
ENDBRANCH   8   9
BRANCH  14  15
ATOM     15  C   UNL     1      47.157  12.106  15.636  0.00  0.00    +0.472 C 
ATOM     18  O   UNL     1      47.661  12.908  14.885  0.00  0.00    -0.495 OA
BRANCH  15  16
ATOM     16  O   UNL     1      46.808  10.892  15.186  0.00  0.00    -0.349 OA
ATOM     17  C   UNL     1      45.445  10.499  15.369  0.00  0.00    +0.256 C 
ENDBRANCH  15  16
ENDBRANCH  14  15
BRANCH  24  25
ATOM     25  O   UNL     1      51.426  12.804  18.928  0.00  0.00    -0.537 OA
ATOM     26  H   UNL     1      51.181  11.948  18.550  0.00  0.00    +0.375 HD
ENDBRANCH  24  25
TORSDOF 6
ENDMDL
MODEL 2
REMARK VINA RESULT:      -6.0      1.943      2.938
REMARK  Name = ZINC95486176
REMARK  13 active torsions:
REMARK  status: ('A' for Active; 'I' for Inactive)
REMARK    1  A    between atoms: C1_1  and  C2_2
REMARK    2  A    between atoms: C6_7  and  C30_46
REMARK    3  A    between atoms: C7_8  and  C28_42
REMARK    4  A    between atoms: C9_11  and  C26_38
REMARK    5  A    between atoms: C10_13  and  C24_36
REMARK    6  A    between atoms: C10_13  and  C25_37
REMARK    7  A    between atoms: C13_17  and  O5_35
REMARK    8  A    between atoms: C14_19  and  C23_34
REMARK    9  A    between atoms: C18_27  and  C19_29
REMARK   10  A    between atoms: C26_38  and  O7_40
REMARK   11  A    between atoms: O7_40  and  C27_41
REMARK   12  A    between atoms: C28_42  and  O9_44
REMARK   13  A    between atoms: O9_44  and  C29_45
REMARK                            x       y       z     vdW  Elec       q    Type
REMARK                         _______ _______ _______ _____ _____    ______ ____
ROOT
ATOM      1  C   UNL     1      50.078  17.421  17.554  0.00  0.00    +0.051 C 
ATOM      2  C   UNL     1      50.446  18.027  18.918  0.00  0.00    -0.059 C 
ATOM      3  C   UNL     1      49.424  19.098  19.263  0.00  0.00    +0.048 C 
ATOM      4  C   UNL     1      48.056  18.559  19.634  0.00  0.00    +0.019 C 
ATOM      5  C   UNL     1      48.049  17.191  20.296  0.00  0.00    +0.019 C 
ATOM      6  C   UNL     1      46.801  16.918  21.103  0.00  0.00    -0.018 C 
ATOM      7  C   UNL     1      46.668  17.900  22.286  0.00  0.00    +0.043 C 
ATOM      8  C   UNL     1      45.496  17.054  20.315  0.00  0.00    +0.024 C 
ATOM     13  C   UNL     1      45.469  16.043  19.172  0.00  0.00    +0.079 C 
ATOM     14  C   UNL     1      45.295  14.669  19.828  0.00  0.00    +0.041 C 
ATOM     19  C   UNL     1      46.487  14.371  20.745  0.00  0.00    -0.034 C 
ATOM     20  C   UNL     1      47.655  13.931  19.861  0.00  0.00    +0.035 C 
ATOM     21  C   UNL     1      46.076  13.143  21.596  0.00  0.00    +0.027 C 
ATOM     22  C   UNL     1      46.828  15.503  21.685  0.00  0.00    +0.015 C 
ATOM     23  C   UNL     1      48.079  15.272  22.505  0.00  0.00    +0.014 C 
ATOM     24  C   UNL     1      49.386  15.663  21.850  0.00  0.00    +0.155 C 
ATOM     27  C   UNL     1      49.362  16.926  21.015  0.00  0.00    +0.009 C 
ATOM     28  C   UNL     1      49.720  18.085  21.970  0.00  0.00    +0.050 C 
ATOM     29  C   UNL     1      51.815  18.678  18.758  0.00  0.00    +0.275 C 
ATOM     35  O   UNL     1      52.887  17.756  18.725  0.00  0.00    -0.350 OA
ATOM     36  C   UNL     1      53.044  16.922  19.761  0.00  0.00    +0.507 C 
ATOM     37  O   UNL     1      54.136  16.691  20.216  0.00  0.00    -0.430 OA
ATOM     38  C   UNL     1      51.808  16.280  20.342  0.00  0.00    +0.102 C 
ATOM     39  O   UNL     1      50.908  15.630  19.448  0.00  0.00    -0.263 OA
ATOM     40  C   UNL     1      50.468  16.898  19.944  0.00  0.00    +0.064 C 
ENDROOT
BRANCH  29  30
ATOM     30  C   UNL     1      51.824  19.464  17.472  0.00  0.00    -0.189 A 
ATOM     31  C   UNL     1      51.558  20.844  17.326  0.00  0.00    -0.046 A 
ATOM     32  C   UNL     1      51.677  21.128  16.016  0.00  0.00    +0.170 A 
ATOM     33  O   UNL     1      52.000  19.998  15.365  0.00  0.00    -0.172 OA
ATOM     34  C   UNL     1      52.096  18.988  16.243  0.00  0.00    +0.209 A 
ENDBRANCH  29  30
BRANCH   8   9
ATOM      9  C   UNL     1      45.171  18.435  19.864  0.00  0.00    +0.477 C 
ATOM     12  O   UNL     1      45.325  18.745  18.706  0.00  0.00    -0.499 OA
BRANCH   9  10
ATOM     10  O   UNL     1      44.706  19.336  20.744  0.00  0.00    -0.346 OA
ATOM     11  C   UNL     1      43.335  19.218  21.129  0.00  0.00    +0.251 C 
ENDBRANCH   9  10
ENDBRANCH   8   9
BRANCH  14  15
ATOM     15  C   UNL     1      45.208  13.610  18.761  0.00  0.00    +0.472 C 
ATOM     18  O   UNL     1      44.520  12.632  18.936  0.00  0.00    -0.495 OA
BRANCH  15  16
ATOM     16  O   UNL     1      45.893  13.754  17.616  0.00  0.00    -0.349 OA
ATOM     17  C   UNL     1      46.257  12.557  16.924  0.00  0.00    +0.256 C 
ENDBRANCH  15  16
ENDBRANCH  14  15
BRANCH  24  25
ATOM     25  O   UNL     1      49.975  14.542  21.199  0.00  0.00    -0.537 OA
ATOM     26  H   UNL     1      49.343  13.993  20.715  0.00  0.00    +0.375 HD
ENDBRANCH  24  25
TORSDOF 6
ENDMDL
MODEL 3
REMARK VINA RESULT:      -5.9      2.382      6.914
REMARK  Name = ZINC95486176
REMARK  13 active torsions:
REMARK  status: ('A' for Active; 'I' for Inactive)
REMARK    1  A    between atoms: C1_1  and  C2_2
REMARK    2  A    between atoms: C6_7  and  C30_46
REMARK    3  A    between atoms: C7_8  and  C28_42
REMARK    4  A    between atoms: C9_11  and  C26_38
REMARK    5  A    between atoms: C10_13  and  C24_36
REMARK    6  A    between atoms: C10_13  and  C25_37
REMARK    7  A    between atoms: C13_17  and  O5_35
REMARK    8  A    between atoms: C14_19  and  C23_34
REMARK    9  A    between atoms: C18_27  and  C19_29
REMARK   10  A    between atoms: C26_38  and  O7_40
REMARK   11  A    between atoms: O7_40  and  C27_41
REMARK   12  A    between atoms: C28_42  and  O9_44
REMARK   13  A    between atoms: O9_44  and  C29_45
REMARK                            x       y       z     vdW  Elec       q    Type
REMARK                         _______ _______ _______ _____ _____    ______ ____
ROOT
ATOM      1  C   UNL     1      47.399  17.501  20.436  0.00  0.00    +0.051 C 
ATOM      2  C   UNL     1      47.227  16.761  19.100  0.00  0.00    -0.059 C 
ATOM      3  C   UNL     1      47.802  17.626  17.990  0.00  0.00    +0.048 C 
ATOM      4  C   UNL     1      49.316  17.715  17.989  0.00  0.00    +0.019 C 
ATOM      5  C   UNL     1      50.044  16.491  18.520  0.00  0.00    +0.019 C 
ATOM      6  C   UNL     1      51.473  16.384  18.040  0.00  0.00    -0.018 C 
ATOM      7  C   UNL     1      51.542  16.217  16.507  0.00  0.00    +0.043 C 
ATOM      8  C   UNL     1      52.339  17.607  18.355  0.00  0.00    +0.024 C 
ATOM     13  C   UNL     1      52.433  17.805  19.865  0.00  0.00    +0.079 C 
ATOM     14  C   UNL     1      53.307  16.661  20.387  0.00  0.00    +0.041 C 
ATOM     19  C   UNL     1      52.640  15.313  20.091  0.00  0.00    -0.034 C 
ATOM     20  C   UNL     1      51.538  15.101  21.129  0.00  0.00    +0.035 C 
ATOM     21  C   UNL     1      53.721  14.234  20.352  0.00  0.00    +0.027 C 
ATOM     22  C   UNL     1      52.167  15.171  18.664  0.00  0.00    +0.015 C 
ATOM     23  C   UNL     1      51.394  13.898  18.390  0.00  0.00    +0.014 C 
ATOM     24  C   UNL     1      49.910  13.944  18.687  0.00  0.00    +0.155 C 
ATOM     27  C   UNL     1      49.202  15.238  18.348  0.00  0.00    +0.009 C 
ATOM     28  C   UNL     1      48.707  15.093  16.892  0.00  0.00    +0.050 C 
ATOM     29  C   UNL     1      45.729  16.594  18.875  0.00  0.00    +0.275 C 
ATOM     35  O   UNL     1      45.140  15.582  19.668  0.00  0.00    -0.350 OA
ATOM     36  C   UNL     1      45.623  14.336  19.573  0.00  0.00    +0.507 C 
ATOM     37  O   UNL     1      44.885  13.383  19.536  0.00  0.00    -0.430 OA
ATOM     38  C   UNL     1      47.121  14.163  19.516  0.00  0.00    +0.102 C 
ATOM     39  O   UNL     1      47.909  14.815  20.509  0.00  0.00    -0.263 OA
ATOM     40  C   UNL     1      47.940  15.417  19.212  0.00  0.00    +0.064 C 
ENDROOT
BRANCH  29  30
ATOM     30  C   UNL     1      45.049  17.901  19.192  0.00  0.00    -0.189 A 
ATOM     31  C   UNL     1      45.092  19.083  18.418  0.00  0.00    -0.046 A 
ATOM     32  C   UNL     1      44.349  20.000  19.065  0.00  0.00    +0.170 A 
ATOM     33  O   UNL     1      43.861  19.438  20.183  0.00  0.00    -0.172 OA
ATOM     34  C   UNL     1      44.277  18.165  20.263  0.00  0.00    +0.209 A 
ENDBRANCH  29  30
BRANCH   8   9
ATOM      9  C   UNL     1      51.957  18.853  17.637  0.00  0.00    +0.477 C 
ATOM     12  O   UNL     1      52.168  18.957  16.451  0.00  0.00    -0.499 OA
BRANCH   9  10
ATOM     10  O   UNL     1      51.379  19.863  18.305  0.00  0.00    -0.346 OA
ATOM     11  C   UNL     1      51.116  21.061  17.571  0.00  0.00    +0.251 C 
ENDBRANCH   9  10
ENDBRANCH   8   9
BRANCH  14  15
ATOM     15  C   UNL     1      53.494  16.811  21.874  0.00  0.00    +0.472 C 
ATOM     18  O   UNL     1      52.786  17.566  22.498  0.00  0.00    -0.495 OA
BRANCH  15  16
ATOM     16  O   UNL     1      54.444  16.105  22.505  0.00  0.00    -0.349 OA
ATOM     17  C   UNL     1      55.775  16.625  22.461  0.00  0.00    +0.256 C 
ENDBRANCH  15  16
ENDBRANCH  14  15
BRANCH  24  25
ATOM     25  O   UNL     1      49.647  13.459  20.000  0.00  0.00    -0.537 OA
ATOM     26  H   UNL     1      48.916  12.828  20.046  0.00  0.00    +0.375 HD
ENDBRANCH  24  25
TORSDOF 6
ENDMDL
MODEL 4
REMARK VINA RESULT:      -5.8      3.009      7.100
REMARK  Name = ZINC95486176
REMARK  13 active torsions:
REMARK  status: ('A' for Active; 'I' for Inactive)
REMARK    1  A    between atoms: C1_1  and  C2_2
REMARK    2  A    between atoms: C6_7  and  C30_46
REMARK    3  A    between atoms: C7_8  and  C28_42
REMARK    4  A    between atoms: C9_11  and  C26_38
REMARK    5  A    between atoms: C10_13  and  C24_36
REMARK    6  A    between atoms: C10_13  and  C25_37
REMARK    7  A    between atoms: C13_17  and  O5_35
REMARK    8  A    between atoms: C14_19  and  C23_34
REMARK    9  A    between atoms: C18_27  and  C19_29
REMARK   10  A    between atoms: C26_38  and  O7_40
REMARK   11  A    between atoms: O7_40  and  C27_41
REMARK   12  A    between atoms: C28_42  and  O9_44
REMARK   13  A    between atoms: O9_44  and  C29_45
REMARK                            x       y       z     vdW  Elec       q    Type
REMARK                         _______ _______ _______ _____ _____    ______ ____
ROOT
ATOM      1  C   UNL     1      48.084  19.383  21.547  0.00  0.00    +0.051 C 
ATOM      2  C   UNL     1      47.412  19.014  20.214  0.00  0.00    -0.059 C 
ATOM      3  C   UNL     1      48.023  19.867  19.113  0.00  0.00    +0.048 C 
ATOM      4  C   UNL     1      49.444  19.488  18.746  0.00  0.00    +0.019 C 
ATOM      5  C   UNL     1      49.797  18.020  18.921  0.00  0.00    +0.019 C 
ATOM      6  C   UNL     1      50.979  17.581  18.089  0.00  0.00    -0.018 C 
ATOM      7  C   UNL     1      50.689  17.712  16.580  0.00  0.00    +0.043 C 
ATOM      8  C   UNL     1      52.256  18.391  18.329  0.00  0.00    +0.024 C 
ATOM     13  C   UNL     1      52.703  18.244  19.780  0.00  0.00    +0.079 C 
ATOM     14  C   UNL     1      53.216  16.807  19.920  0.00  0.00    +0.041 C 
ATOM     19  C   UNL     1      52.083  15.816  19.633  0.00  0.00    -0.034 C 
ATOM     20  C   UNL     1      51.199  15.746  20.879  0.00  0.00    +0.035 C 
ATOM     21  C   UNL     1      52.756  14.429  19.479  0.00  0.00    +0.027 C 
ATOM     22  C   UNL     1      51.323  16.114  18.363  0.00  0.00    +0.015 C 
ATOM     23  C   UNL     1      50.122  15.220  18.134  0.00  0.00    +0.014 C 
ATOM     24  C   UNL     1      48.832  15.656  18.795  0.00  0.00    +0.155 C 
ATOM     27  C   UNL     1      48.559  17.145  18.808  0.00  0.00    +0.009 C 
ATOM     28  C   UNL     1      47.772  17.454  17.515  0.00  0.00    +0.050 C 
ATOM     29  C   UNL     1      45.935  19.361  20.351  0.00  0.00    +0.275 C 
ATOM     35  O   UNL     1      45.200  18.439  21.132  0.00  0.00    -0.350 OA
ATOM     36  C   UNL     1      45.198  17.151  20.765  0.00  0.00    +0.507 C 
ATOM     37  O   UNL     1      44.186  16.497  20.793  0.00  0.00    -0.430 OA
ATOM     38  C   UNL     1      46.504  16.545  20.314  0.00  0.00    +0.102 C 
ATOM     39  O   UNL     1      47.645  16.711  21.153  0.00  0.00    -0.263 OA
ATOM     40  C   UNL     1      47.628  17.523  19.975  0.00  0.00    +0.064 C 
ENDROOT
BRANCH  29  30
ATOM     30  C   UNL     1      45.820  20.722  20.989  0.00  0.00    -0.189 A 
ATOM     31  C   UNL     1      45.945  21.971  20.339  0.00  0.00    -0.046 A 
ATOM     32  C   UNL     1      45.770  22.918  21.278  0.00  0.00    +0.170 A 
ATOM     33  O   UNL     1      45.547  22.312  22.456  0.00  0.00    -0.172 OA
ATOM     34  C   UNL     1      45.570  20.982  22.286  0.00  0.00    +0.209 A 
ENDBRANCH  29  30
BRANCH   8   9
ATOM      9  C   UNL     1      52.194  19.812  17.891  0.00  0.00    +0.477 C 
ATOM     12  O   UNL     1      52.136  20.696  18.713  0.00  0.00    -0.499 OA
BRANCH   9  10
ATOM     10  O   UNL     1      52.201  20.112  16.583  0.00  0.00    -0.346 OA
ATOM     11  C   UNL     1      51.554  21.326  16.192  0.00  0.00    +0.251 C 
ENDBRANCH   9  10
ENDBRANCH   8   9
BRANCH  14  15
ATOM     15  C   UNL     1      53.727  16.591  21.321  0.00  0.00    +0.472 C 
ATOM     18  O   UNL     1      53.390  17.339  22.208  0.00  0.00    -0.495 OA
BRANCH  15  16
ATOM     16  O   UNL     1      54.555  15.568  21.582  0.00  0.00    -0.349 OA
ATOM     17  C   UNL     1      55.953  15.863  21.637  0.00  0.00    +0.256 C 
ENDBRANCH  15  16
ENDBRANCH  14  15
BRANCH  24  25
ATOM     25  O   UNL     1      48.679  15.021  20.060  0.00  0.00    -0.537 OA
ATOM     26  H   UNL     1      49.464  15.072  20.622  0.00  0.00    +0.375 HD
ENDBRANCH  24  25
TORSDOF 6
ENDMDL
MODEL 5
REMARK VINA RESULT:      -5.8      2.021      7.416
REMARK  Name = ZINC95486176
REMARK  13 active torsions:
REMARK  status: ('A' for Active; 'I' for Inactive)
REMARK    1  A    between atoms: C1_1  and  C2_2
REMARK    2  A    between atoms: C6_7  and  C30_46
REMARK    3  A    between atoms: C7_8  and  C28_42
REMARK    4  A    between atoms: C9_11  and  C26_38
REMARK    5  A    between atoms: C10_13  and  C24_36
REMARK    6  A    between atoms: C10_13  and  C25_37
REMARK    7  A    between atoms: C13_17  and  O5_35
REMARK    8  A    between atoms: C14_19  and  C23_34
REMARK    9  A    between atoms: C18_27  and  C19_29
REMARK   10  A    between atoms: C26_38  and  O7_40
REMARK   11  A    between atoms: O7_40  and  C27_41
REMARK   12  A    between atoms: C28_42  and  O9_44
REMARK   13  A    between atoms: O9_44  and  C29_45
REMARK                            x       y       z     vdW  Elec       q    Type
REMARK                         _______ _______ _______ _____ _____    ______ ____
ROOT
ATOM      1  C   UNL     1      51.217  13.967  16.012  0.00  0.00    +0.051 C 
ATOM      2  C   UNL     1      50.582  13.259  17.220  0.00  0.00    -0.059 C 
ATOM      3  C   UNL     1      51.662  13.026  18.266  0.00  0.00    +0.048 C 
ATOM      4  C   UNL     1      52.124  14.284  18.976  0.00  0.00    +0.019 C 
ATOM      5  C   UNL     1      51.076  15.375  19.124  0.00  0.00    +0.019 C 
ATOM      6  C   UNL     1      51.372  16.347  20.242  0.00  0.00    -0.018 C 
ATOM      7  C   UNL     1      51.369  15.645  21.616  0.00  0.00    +0.043 C 
ATOM      8  C   UNL     1      52.737  17.032  20.139  0.00  0.00    +0.024 C 
ATOM     13  C   UNL     1      52.813  17.855  18.856  0.00  0.00    +0.079 C 
ATOM     14  C   UNL     1      51.880  19.051  19.066  0.00  0.00    +0.041 C 
ATOM     19  C   UNL     1      50.441  18.564  19.274  0.00  0.00    -0.034 C 
ATOM     20  C   UNL     1      49.868  18.207  17.903  0.00  0.00    +0.035 C 
ATOM     21  C   UNL     1      49.645  19.788  19.793  0.00  0.00    +0.027 C 
ATOM     22  C   UNL     1      50.318  17.456  20.293  0.00  0.00    +0.015 C 
ATOM     23  C   UNL     1      48.923  16.878  20.415  0.00  0.00    +0.014 C 
ATOM     24  C   UNL     1      48.571  15.776  19.440  0.00  0.00    +0.155 C 
ATOM     27  C   UNL     1      49.674  14.789  19.123  0.00  0.00    +0.009 C 
ATOM     28  C   UNL     1      49.545  13.648  20.157  0.00  0.00    +0.050 C 
ATOM     29  C   UNL     1      50.070  11.912  16.726  0.00  0.00    +0.275 C 
ATOM     35  O   UNL     1      48.875  11.994  15.975  0.00  0.00    -0.350 OA
ATOM     36  C   UNL     1      47.802  12.561  16.543  0.00  0.00    +0.507 C 
ATOM     37  O   UNL     1      46.703  12.081  16.416  0.00  0.00    -0.430 OA
ATOM     38  C   UNL     1      48.013  13.820  17.347  0.00  0.00    +0.102 C 
ATOM     39  O   UNL     1      48.746  14.884  16.746  0.00  0.00    -0.263 OA
ATOM     40  C   UNL     1      49.454  14.141  17.743  0.00  0.00    +0.064 C 
ENDROOT
BRANCH  29  30
ATOM     30  C   UNL     1      51.132  11.283  15.861  0.00  0.00    -0.189 A 
ATOM     31  C   UNL     1      52.354  10.724  16.299  0.00  0.00    -0.046 A 
ATOM     32  C   UNL     1      52.994  10.277  15.203  0.00  0.00    +0.170 A 
ATOM     33  O   UNL     1      52.228  10.536  14.130  0.00  0.00    -0.172 OA
ATOM     34  C   UNL     1      51.096  11.140  14.523  0.00  0.00    +0.209 A 
ENDBRANCH  29  30
BRANCH   8   9
ATOM      9  C   UNL     1      53.910  16.133  20.313  0.00  0.00    +0.477 C 
ATOM     12  O   UNL     1      54.144  15.646  21.394  0.00  0.00    -0.499 OA
BRANCH   9  10
ATOM     10  O   UNL     1      54.708  15.862  19.268  0.00  0.00    -0.346 OA
ATOM     11  C   UNL     1      55.982  15.281  19.559  0.00  0.00    +0.251 C 
ENDBRANCH   9  10
ENDBRANCH   8   9
BRANCH  14  15
ATOM     15  C   UNL     1      51.934  19.948  17.857  0.00  0.00    +0.472 C 
ATOM     18  O   UNL     1      51.588  21.102  17.946  0.00  0.00    -0.495 OA
BRANCH  15  16
ATOM     16  O   UNL     1      52.367  19.465  16.683  0.00  0.00    -0.349 OA
ATOM     17  C   UNL     1      51.869  20.094  15.499  0.00  0.00    +0.256 C 
ENDBRANCH  15  16
ENDBRANCH  14  15
BRANCH  24  25
ATOM     25  O   UNL     1      47.918  16.311  18.293  0.00  0.00    -0.537 OA
ATOM     26  H   UNL     1      47.218  16.945  18.501  0.00  0.00    +0.375 HD
ENDBRANCH  24  25
TORSDOF 6
ENDMDL
MODEL 6
REMARK VINA RESULT:      -5.5      2.381      6.619
REMARK  Name = ZINC95486176
REMARK  13 active torsions:
REMARK  status: ('A' for Active; 'I' for Inactive)
REMARK    1  A    between atoms: C1_1  and  C2_2
REMARK    2  A    between atoms: C6_7  and  C30_46
REMARK    3  A    between atoms: C7_8  and  C28_42
REMARK    4  A    between atoms: C9_11  and  C26_38
REMARK    5  A    between atoms: C10_13  and  C24_36
REMARK    6  A    between atoms: C10_13  and  C25_37
REMARK    7  A    between atoms: C13_17  and  O5_35
REMARK    8  A    between atoms: C14_19  and  C23_34
REMARK    9  A    between atoms: C18_27  and  C19_29
REMARK   10  A    between atoms: C26_38  and  O7_40
REMARK   11  A    between atoms: O7_40  and  C27_41
REMARK   12  A    between atoms: C28_42  and  O9_44
REMARK   13  A    between atoms: O9_44  and  C29_45
REMARK                            x       y       z     vdW  Elec       q    Type
REMARK                         _______ _______ _______ _____ _____    ______ ____
ROOT
ATOM      1  C   UNL     1      48.379  14.677  16.526  0.00  0.00    +0.051 C 
ATOM      2  C   UNL     1      48.531  13.533  17.541  0.00  0.00    -0.059 C 
ATOM      3  C   UNL     1      49.704  13.851  18.455  0.00  0.00    +0.048 C 
ATOM      4  C   UNL     1      49.442  14.974  19.440  0.00  0.00    +0.019 C 
ATOM      5  C   UNL     1      48.000  15.123  19.894  0.00  0.00    +0.019 C 
ATOM      6  C   UNL     1      47.854  15.854  21.208  0.00  0.00    -0.018 C 
ATOM      7  C   UNL     1      48.526  15.081  22.363  0.00  0.00    +0.043 C 
ATOM      8  C   UNL     1      48.489  17.247  21.230  0.00  0.00    +0.024 C 
ATOM     13  C   UNL     1      47.819  18.142  20.192  0.00  0.00    +0.079 C 
ATOM     14  C   UNL     1      46.414  18.432  20.728  0.00  0.00    +0.041 C 
ATOM     19  C   UNL     1      45.623  17.126  20.860  0.00  0.00    -0.034 C 
ATOM     20  C   UNL     1      45.137  16.732  19.465  0.00  0.00    +0.035 C 
ATOM     21  C   UNL     1      44.365  17.469  21.698  0.00  0.00    +0.027 C 
ATOM     22  C   UNL     1      46.378  16.029  21.574  0.00  0.00    +0.015 C 
ATOM     23  C   UNL     1      45.660  14.696  21.599  0.00  0.00    +0.014 C 
ATOM     24  C   UNL     1      45.866  13.806  20.392  0.00  0.00    +0.155 C 
ATOM     27  C   UNL     1      47.258  13.800  19.798  0.00  0.00    +0.009 C 
ATOM     28  C   UNL     1      48.031  12.672  20.518  0.00  0.00    +0.050 C 
ATOM     29  C   UNL     1      48.847  12.274  16.745  0.00  0.00    +0.275 C 
ATOM     35  O   UNL     1      47.728  11.718  16.083  0.00  0.00    -0.350 OA
ATOM     36  C   UNL     1      46.657  11.380  16.813  0.00  0.00    +0.507 C 
ATOM     37  O   UNL     1      46.065  10.350  16.611  0.00  0.00    -0.430 OA
ATOM     38  C   UNL     1      46.216  12.331  17.899  0.00  0.00    +0.102 C 
ATOM     39  O   UNL     1      46.039  13.703  17.556  0.00  0.00    -0.263 OA
ATOM     40  C   UNL     1      47.219  13.408  18.309  0.00  0.00    +0.064 C 
ENDROOT
BRANCH  29  30
ATOM     30  C   UNL     1      49.892  12.610  15.712  0.00  0.00    -0.189 A 
ATOM     31  C   UNL     1      51.274  12.797  15.940  0.00  0.00    -0.046 A 
ATOM     32  C   UNL     1      51.832  13.077  14.749  0.00  0.00    +0.170 A 
ATOM     33  O   UNL     1      50.866  13.069  13.816  0.00  0.00    -0.172 OA
ATOM     34  C   UNL     1      49.689  12.781  14.392  0.00  0.00    +0.209 A 
ENDBRANCH  29  30
BRANCH   8   9
ATOM      9  C   UNL     1      49.974  17.267  21.130  0.00  0.00    +0.477 C 
ATOM     12  O   UNL     1      50.647  16.875  22.054  0.00  0.00    -0.499 OA
BRANCH   9  10
ATOM     10  O   UNL     1      50.565  17.719  20.013  0.00  0.00    -0.346 OA
ATOM     11  C   UNL     1      51.656  18.628  20.179  0.00  0.00    +0.251 C 
ENDBRANCH   9  10
ENDBRANCH   8   9
BRANCH  14  15
ATOM     15  C   UNL     1      45.696  19.357  19.781  0.00  0.00    +0.472 C 
ATOM     18  O   UNL     1      46.087  19.480  18.644  0.00  0.00    -0.495 OA
BRANCH  15  16
ATOM     16  O   UNL     1      44.622  20.044  20.198  0.00  0.00    -0.349 OA
ATOM     17  C   UNL     1      43.578  20.260  19.245  0.00  0.00    +0.256 C 
ENDBRANCH  15  16
ENDBRANCH  14  15
BRANCH  24  25
ATOM     25  O   UNL     1      44.825  14.003  19.441  0.00  0.00    -0.537 OA
ATOM     26  H   UNL     1      44.894  13.436  18.661  0.00  0.00    +0.375 HD
ENDBRANCH  24  25
TORSDOF 6
ENDMDL
MODEL 7
REMARK VINA RESULT:      -5.5      2.289      3.892
REMARK  Name = ZINC95486176
REMARK  13 active torsions:
REMARK  status: ('A' for Active; 'I' for Inactive)
REMARK    1  A    between atoms: C1_1  and  C2_2
REMARK    2  A    between atoms: C6_7  and  C30_46
REMARK    3  A    between atoms: C7_8  and  C28_42
REMARK    4  A    between atoms: C9_11  and  C26_38
REMARK    5  A    between atoms: C10_13  and  C24_36
REMARK    6  A    between atoms: C10_13  and  C25_37
REMARK    7  A    between atoms: C13_17  and  O5_35
REMARK    8  A    between atoms: C14_19  and  C23_34
REMARK    9  A    between atoms: C18_27  and  C19_29
REMARK   10  A    between atoms: C26_38  and  O7_40
REMARK   11  A    between atoms: O7_40  and  C27_41
REMARK   12  A    between atoms: C28_42  and  O9_44
REMARK   13  A    between atoms: O9_44  and  C29_45
REMARK                            x       y       z     vdW  Elec       q    Type
REMARK                         _______ _______ _______ _____ _____    ______ ____
ROOT
ATOM      1  C   UNL     1      47.553  18.207  18.152  0.00  0.00    +0.051 C 
ATOM      2  C   UNL     1      48.526  18.392  19.328  0.00  0.00    -0.059 C 
ATOM      3  C   UNL     1      48.027  17.565  20.503  0.00  0.00    +0.048 C 
ATOM      4  C   UNL     1      48.192  16.068  20.327  0.00  0.00    +0.019 C 
ATOM      5  C   UNL     1      49.375  15.634  19.477  0.00  0.00    +0.019 C 
ATOM      6  C   UNL     1      49.817  14.214  19.740  0.00  0.00    -0.018 C 
ATOM      7  C   UNL     1      50.320  14.037  21.188  0.00  0.00    +0.043 C 
ATOM      8  C   UNL     1      48.715  13.166  19.562  0.00  0.00    +0.024 C 
ATOM     13  C   UNL     1      48.214  13.174  18.121  0.00  0.00    +0.079 C 
ATOM     14  C   UNL     1      49.346  12.582  17.277  0.00  0.00    +0.041 C 
ATOM     19  C   UNL     1      50.597  13.461  17.386  0.00  0.00    -0.034 C 
ATOM     20  C   UNL     1      50.396  14.673  16.477  0.00  0.00    +0.035 C 
ATOM     21  C   UNL     1      51.758  12.630  16.782  0.00  0.00    +0.027 C 
ATOM     22  C   UNL     1      50.964  13.819  18.807  0.00  0.00    +0.015 C 
ATOM     23  C   UNL     1      52.121  14.790  18.922  0.00  0.00    +0.014 C 
ATOM     24  C   UNL     1      51.768  16.259  18.833  0.00  0.00    +0.155 C 
ATOM     27  C   UNL     1      50.479  16.678  19.507  0.00  0.00    +0.009 C 
ATOM     28  C   UNL     1      50.851  17.056  20.958  0.00  0.00    +0.050 C 
ATOM     29  C   UNL     1      48.488  19.867  19.706  0.00  0.00    +0.275 C 
ATOM     35  O   UNL     1      49.195  20.706  18.813  0.00  0.00    -0.350 OA
ATOM     36  C   UNL     1      50.493  20.459  18.598  0.00  0.00    +0.507 C 
ATOM     37  O   UNL     1      51.297  21.356  18.543  0.00  0.00    -0.430 OA
ATOM     38  C   UNL     1      50.919  19.022  18.428  0.00  0.00    +0.102 C 
ATOM     39  O   UNL     1      50.207  18.219  17.489  0.00  0.00    -0.263 OA
ATOM     40  C   UNL     1      49.913  17.957  18.865  0.00  0.00    +0.064 C 
ENDROOT
BRANCH  29  30
ATOM     30  C   UNL     1      47.049  20.316  19.741  0.00  0.00    -0.189 A 
ATOM     31  C   UNL     1      46.352  20.991  18.714  0.00  0.00    -0.046 A 
ATOM     32  C   UNL     1      45.100  21.197  19.162  0.00  0.00    +0.170 A 
ATOM     33  O   UNL     1      45.003  20.684  20.400  0.00  0.00    -0.172 OA
ATOM     34  C   UNL     1      46.180  20.144  20.754  0.00  0.00    +0.209 A 
ENDBRANCH  29  30
BRANCH   8   9
ATOM      9  C   UNL     1      47.608  13.239  20.554  0.00  0.00    +0.477 C 
ATOM     12  O   UNL     1      47.808  12.940  21.707  0.00  0.00    -0.499 OA
BRANCH   9  10
ATOM     10  O   UNL     1      46.386  13.637  20.167  0.00  0.00    -0.346 OA
ATOM     11  C   UNL     1      45.357  13.631  21.159  0.00  0.00    +0.251 C 
ENDBRANCH   9  10
ENDBRANCH   8   9
BRANCH  14  15
ATOM     15  C   UNL     1      48.912  12.507  15.836  0.00  0.00    +0.472 C 
ATOM     18  O   UNL     1      48.010  13.207  15.441  0.00  0.00    -0.495 OA
BRANCH  15  16
ATOM     16  O   UNL     1      49.527  11.665  14.993  0.00  0.00    -0.349 OA
ATOM     17  C   UNL     1      49.207  10.277  15.114  0.00  0.00    +0.256 C 
ENDBRANCH  15  16
ENDBRANCH  14  15
BRANCH  24  25
ATOM     25  O   UNL     1      51.908  16.727  17.496  0.00  0.00    -0.537 OA
ATOM     26  H   UNL     1      51.068  16.853  17.034  0.00  0.00    +0.375 HD
ENDBRANCH  24  25
TORSDOF 6
ENDMDL
MODEL 8
REMARK VINA RESULT:      -5.5      4.159      7.408
REMARK  Name = ZINC95486176
REMARK  13 active torsions:
REMARK  status: ('A' for Active; 'I' for Inactive)
REMARK    1  A    between atoms: C1_1  and  C2_2
REMARK    2  A    between atoms: C6_7  and  C30_46
REMARK    3  A    between atoms: C7_8  and  C28_42
REMARK    4  A    between atoms: C9_11  and  C26_38
REMARK    5  A    between atoms: C10_13  and  C24_36
REMARK    6  A    between atoms: C10_13  and  C25_37
REMARK    7  A    between atoms: C13_17  and  O5_35
REMARK    8  A    between atoms: C14_19  and  C23_34
REMARK    9  A    between atoms: C18_27  and  C19_29
REMARK   10  A    between atoms: C26_38  and  O7_40
REMARK   11  A    between atoms: O7_40  and  C27_41
REMARK   12  A    between atoms: C28_42  and  O9_44
REMARK   13  A    between atoms: O9_44  and  C29_45
REMARK                            x       y       z     vdW  Elec       q    Type
REMARK                         _______ _______ _______ _____ _____    ______ ____
ROOT
ATOM      1  C   UNL     1      47.411  18.995  18.022  0.00  0.00    +0.051 C 
ATOM      2  C   UNL     1      47.904  19.073  19.476  0.00  0.00    -0.059 C 
ATOM      3  C   UNL     1      47.997  20.537  19.876  0.00  0.00    +0.048 C 
ATOM      4  C   UNL     1      46.656  21.217  20.071  0.00  0.00    +0.019 C 
ATOM      5  C   UNL     1      45.529  20.317  20.551  0.00  0.00    +0.019 C 
ATOM      6  C   UNL     1      44.402  21.068  21.221  0.00  0.00    -0.018 C 
ATOM      7  C   UNL     1      44.880  21.777  22.505  0.00  0.00    +0.043 C 
ATOM      8  C   UNL     1      43.776  22.167  20.359  0.00  0.00    +0.024 C 
ATOM     13  C   UNL     1      43.167  21.560  19.099  0.00  0.00    +0.079 C 
ATOM     14  C   UNL     1      41.929  20.784  19.560  0.00  0.00    +0.041 C 
ATOM     19  C   UNL     1      42.342  19.661  20.519  0.00  0.00    -0.034 C 
ATOM     20  C   UNL     1      42.895  18.510  19.677  0.00  0.00    +0.035 C 
ATOM     21  C   UNL     1      41.032  19.154  21.173  0.00  0.00    +0.027 C 
ATOM     22  C   UNL     1      43.273  20.113  21.618  0.00  0.00    +0.015 C 
ATOM     23  C   UNL     1      43.789  18.992  22.495  0.00  0.00    +0.014 C 
ATOM     24  C   UNL     1      45.021  18.269  21.995  0.00  0.00    +0.155 C 
ATOM     27  C   UNL     1      46.074  19.129  21.327  0.00  0.00    +0.009 C 
ATOM     28  C   UNL     1      47.035  19.586  22.447  0.00  0.00    +0.050 C 
ATOM     29  C   UNL     1      49.299  18.461  19.504  0.00  0.00    +0.275 C 
ATOM     35  O   UNL     1      49.305  17.048  19.435  0.00  0.00    -0.350 OA
ATOM     36  C   UNL     1      48.631  16.361  20.366  0.00  0.00    +0.507 C 
ATOM     37  O   UNL     1      49.097  15.369  20.868  0.00  0.00    -0.430 OA
ATOM     38  C   UNL     1      47.267  16.868  20.765  0.00  0.00    +0.102 C 
ATOM     39  O   UNL     1      46.328  17.152  19.730  0.00  0.00    -0.263 OA
ATOM     40  C   UNL     1      46.923  18.298  20.348  0.00  0.00    +0.064 C 
ENDROOT
BRANCH  29  30
ATOM     30  C   UNL     1      50.082  18.996  18.332  0.00  0.00    -0.189 A 
ATOM     31  C   UNL     1      50.486  18.273  17.187  0.00  0.00    -0.046 A 
ATOM     32  C   UNL     1      51.155  19.133  16.398  0.00  0.00    +0.170 A 
ATOM     33  O   UNL     1      51.177  20.333  17.002  0.00  0.00    -0.172 OA
ATOM     34  C   UNL     1      50.524  20.258  18.171  0.00  0.00    +0.209 A 
ENDBRANCH  29  30
BRANCH   8   9
ATOM      9  C   UNL     1      44.666  23.323  20.065  0.00  0.00    +0.477 C 
ATOM     12  O   UNL     1      45.397  23.758  20.923  0.00  0.00    -0.499 OA
BRANCH   9  10
ATOM     10  O   UNL     1      44.658  23.883  18.845  0.00  0.00    -0.346 OA
ATOM     11  C   UNL     1      44.994  25.270  18.766  0.00  0.00    +0.251 C 
ENDBRANCH   9  10
ENDBRANCH   8   9
BRANCH  14  15
ATOM     15  C   UNL     1      41.235  20.189  18.363  0.00  0.00    +0.472 C 
ATOM     18  O   UNL     1      41.884  19.687  17.476  0.00  0.00    -0.495 OA
BRANCH  15  16
ATOM     16  O   UNL     1      39.896  20.216  18.283  0.00  0.00    -0.349 OA
ATOM     17  C   UNL     1      39.249  21.443  18.631  0.00  0.00    +0.256 C 
ENDBRANCH  15  16
ENDBRANCH  14  15
BRANCH  24  25
ATOM     25  O   UNL     1      44.656  17.110  21.253  0.00  0.00    -0.537 OA
ATOM     26  H   UNL     1      43.774  17.158  20.860  0.00  0.00    +0.375 HD
ENDBRANCH  24  25
TORSDOF 6
ENDMDL
MODEL 9
REMARK VINA RESULT:      -5.4      1.649      7.712
REMARK  Name = ZINC95486176
REMARK  13 active torsions:
REMARK  status: ('A' for Active; 'I' for Inactive)
REMARK    1  A    between atoms: C1_1  and  C2_2
REMARK    2  A    between atoms: C6_7  and  C30_46
REMARK    3  A    between atoms: C7_8  and  C28_42
REMARK    4  A    between atoms: C9_11  and  C26_38
REMARK    5  A    between atoms: C10_13  and  C24_36
REMARK    6  A    between atoms: C10_13  and  C25_37
REMARK    7  A    between atoms: C13_17  and  O5_35
REMARK    8  A    between atoms: C14_19  and  C23_34
REMARK    9  A    between atoms: C18_27  and  C19_29
REMARK   10  A    between atoms: C26_38  and  O7_40
REMARK   11  A    between atoms: O7_40  and  C27_41
REMARK   12  A    between atoms: C28_42  and  O9_44
REMARK   13  A    between atoms: O9_44  and  C29_45
REMARK                            x       y       z     vdW  Elec       q    Type
REMARK                         _______ _______ _______ _____ _____    ______ ____
ROOT
ATOM      1  C   UNL     1      47.869  15.291  17.814  0.00  0.00    +0.051 C 
ATOM      2  C   UNL     1      47.803  15.155  19.344  0.00  0.00    -0.059 C 
ATOM      3  C   UNL     1      49.018  14.370  19.813  0.00  0.00    +0.048 C 
ATOM      4  C   UNL     1      50.326  15.133  19.725  0.00  0.00    +0.019 C 
ATOM      5  C   UNL     1      50.218  16.639  19.901  0.00  0.00    +0.019 C 
ATOM      6  C   UNL     1      51.513  17.291  20.326  0.00  0.00    -0.018 C 
ATOM      7  C   UNL     1      51.969  16.790  21.713  0.00  0.00    +0.043 C 
ATOM      8  C   UNL     1      52.693  17.021  19.389  0.00  0.00    +0.024 C 
ATOM     13  C   UNL     1      52.395  17.579  18.000  0.00  0.00    +0.079 C 
ATOM     14  C   UNL     1      52.449  19.104  18.138  0.00  0.00    +0.041 C 
ATOM     19  C   UNL     1      51.373  19.580  19.120  0.00  0.00    -0.034 C 
ATOM     20  C   UNL     1      50.034  19.576  18.381  0.00  0.00    +0.035 C 
ATOM     21  C   UNL     1      51.709  21.058  19.439  0.00  0.00    +0.027 C 
ATOM     22  C   UNL     1      51.353  18.810  20.419  0.00  0.00    +0.015 C 
ATOM     23  C   UNL     1      50.215  19.184  21.345  0.00  0.00    +0.014 C 
ATOM     24  C   UNL     1      48.903  18.468  21.109  0.00  0.00    +0.155 C 
ATOM     27  C   UNL     1      49.000  17.005  20.733  0.00  0.00    +0.009 C 
ATOM     28  C   UNL     1      48.970  16.213  22.059  0.00  0.00    +0.050 C 
ATOM     29  C   UNL     1      46.544  14.359  19.664  0.00  0.00    +0.275 C 
ATOM     35  O   UNL     1      45.348  15.105  19.543  0.00  0.00    -0.350 OA
ATOM     36  C   UNL     1      45.218  16.223  20.268  0.00  0.00    +0.507 C 
ATOM     37  O   UNL     1      44.181  16.489  20.824  0.00  0.00    -0.430 OA
ATOM     38  C   UNL     1      46.411  17.142  20.367  0.00  0.00    +0.102 C 
ATOM     39  O   UNL     1      47.059  17.531  19.158  0.00  0.00    -0.263 OA
ATOM     40  C   UNL     1      47.758  16.558  19.940  0.00  0.00    +0.064 C 
ENDROOT
BRANCH  29  30
ATOM     30  C   UNL     1      46.467  13.184  18.723  0.00  0.00    -0.189 A 
ATOM     31  C   UNL     1      47.432  12.162  18.571  0.00  0.00    -0.046 A 
ATOM     32  C   UNL     1      46.963  11.320  17.632  0.00  0.00    +0.170 A 
ATOM     33  O   UNL     1      45.772  11.776  17.210  0.00  0.00    -0.172 OA
ATOM     34  C   UNL     1      45.464  12.902  17.871  0.00  0.00    +0.209 A 
ENDBRANCH  29  30
BRANCH   8   9
ATOM      9  C   UNL     1      53.159  15.608  19.350  0.00  0.00    +0.477 C 
ATOM     12  O   UNL     1      52.739  14.856  18.502  0.00  0.00    -0.499 OA
BRANCH   9  10
ATOM     10  O   UNL     1      54.045  15.168  20.257  0.00  0.00    -0.346 OA
ATOM     11  C   UNL     1      55.421  15.478  20.024  0.00  0.00    +0.251 C 
ENDBRANCH   9  10
ENDBRANCH   8   9
BRANCH  14  15
ATOM     15  C   UNL     1      52.213  19.737  16.792  0.00  0.00    +0.472 C 
ATOM     18  O   UNL     1      51.890  19.052  15.850  0.00  0.00    -0.495 OA
BRANCH  15  16
ATOM     16  O   UNL     1      52.362  21.062  16.639  0.00  0.00    -0.349 OA
ATOM     17  C   UNL     1      51.464  21.716  15.739  0.00  0.00    +0.256 C 
ENDBRANCH  15  16
ENDBRANCH  14  15
BRANCH  24  25
ATOM     25  O   UNL     1      48.058  19.237  20.259  0.00  0.00    -0.537 OA
ATOM     26  H   UNL     1      48.401  20.119  20.060  0.00  0.00    +0.375 HD
ENDBRANCH  24  25
TORSDOF 6
ENDMDL
