MODEL 1
REMARK VINA RESULT:      -6.2      0.000      0.000
REMARK  Name = ZINC95099511
REMARK  13 active torsions:
REMARK  status: ('A' for Active; 'I' for Inactive)
REMARK    1  A    between atoms: C1_1  and  C2_2
REMARK    2  A    between atoms: C5_5  and  C8_8
REMARK    3  A    between atoms: C11_12  and  C22_26
REMARK    4  A    between atoms: C12_13  and  O4_25
REMARK    5  A    between atoms: C13_14  and  C17_20
REMARK    6  A    between atoms: C14_15  and  O3_19
REMARK    7  A    between atoms: C17_20  and  C18_21
REMARK    8  A    between atoms: C19_22  and  C20_23
REMARK    9  A    between atoms: C19_22  and  C21_24
REMARK   10  A    between atoms: C22_26  and  C23_27
REMARK   11  A    between atoms: C23_27  and  C24_29
REMARK   12  A    between atoms: C23_27  and  O5_32
REMARK   13  A    between atoms: C24_29  and  C26_31
REMARK                            x       y       z     vdW  Elec       q    Type
REMARK                         _______ _______ _______ _____ _____    ______ ____
ROOT
ATOM      6  C   UNL     1      46.672  15.550  18.381  0.00  0.00    -0.236 A 
ATOM      7  C   UNL     1      45.547  16.173  18.822  0.00  0.00    +0.322 A 
ATOM      8  O   UNL     1      45.576  17.332  19.482  0.00  0.00    -0.214 OA
ATOM      9  C   UNL     1      46.671  18.117  19.489  0.00  0.00    +0.168 A 
ATOM     10  C   UNL     1      46.589  19.441  19.897  0.00  0.00    -0.134 A 
ATOM     18  C   UNL     1      47.723  20.237  19.910  0.00  0.00    +0.200 A 
ATOM     21  C   UNL     1      48.955  19.725  19.519  0.00  0.00    -0.152 A 
ATOM     27  C   UNL     1      49.061  18.409  19.107  0.00  0.00    +0.214 A 
ATOM     30  C   UNL     1      47.916  17.602  19.084  0.00  0.00    -0.253 A 
ATOM     31  C   UNL     1      47.973  16.198  18.639  0.00  0.00    +0.433 A 
ATOM     32  O   UNL     1      49.030  15.609  18.488  0.00  0.00    -0.437 OA
ENDROOT
BRANCH   6   5
ATOM      1  C   UNL     1      46.366  10.514  15.607  0.00  0.00    +0.089 C 
ATOM      2  C   UNL     1      46.446  11.832  16.333  0.00  0.00    -0.080 A 
ATOM      3  C   UNL     1      45.751  12.009  17.515  0.00  0.00    +0.004 A 
ATOM      4  C   UNL     1      45.821  13.215  18.186  0.00  0.00    +0.020 A 
ATOM      5  C   UNL     1      46.594  14.252  17.668  0.00  0.00    -0.036 A 
ATOM     33  C   UNL     1      47.292  14.067  16.476  0.00  0.00    +0.039 A 
ATOM     34  C   UNL     1      47.220  12.856  15.819  0.00  0.00    +0.005 A 
ENDBRANCH   6   5
BRANCH  18  19
ATOM     19  O   UNL     1      47.630  21.530  20.309  0.00  0.00    -0.483 OA
ATOM     20  H   UNL     1      48.393  22.074  20.067  0.00  0.00    +0.399 HD
ENDBRANCH  18  19
BRANCH  27  28
ATOM     28  O   UNL     1      50.261  17.904  18.727  0.00  0.00    -0.471 OA
ATOM     29  H   UNL     1      50.541  17.131  19.236  0.00  0.00    +0.401 HD
ENDBRANCH  27  28
BRANCH  10  11
ATOM     11  C   UNL     1      45.262  20.015  20.325  0.00  0.00    +0.082 C 
BRANCH  11  12
ATOM     12  C   UNL     1      44.572  20.656  19.119  0.00  0.00    +0.256 C 
BRANCH  12  15
ATOM     15  C   UNL     1      43.717  21.807  19.584  0.00  0.00    -0.164 C 
ATOM     16  C   UNL     1      42.254  21.852  19.226  0.00  0.00    +0.079 C 
ATOM     17  C   UNL     1      44.245  22.769  20.300  0.00  0.00    +0.030 C 
ENDBRANCH  12  15
BRANCH  12  13
ATOM     13  O   UNL     1      43.750  19.685  18.469  0.00  0.00    -0.555 OA
ATOM     14  H   UNL     1      44.227  19.119  17.848  0.00  0.00    +0.372 HD
ENDBRANCH  12  13
ENDBRANCH  11  12
ENDBRANCH  10  11
BRANCH  21  22
ATOM     22  C   UNL     1      50.179  20.604  19.545  0.00  0.00    +0.136 C 
BRANCH  22  23
ATOM     23  C   UNL     1      50.426  21.162  18.166  0.00  0.00    -0.061 C 
ATOM     24  C   UNL     1      51.554  20.910  17.551  0.00  0.00    -0.122 C 
ATOM     25  C   UNL     1      51.748  21.351  16.123  0.00  0.00    +0.074 C 
ATOM     26  C   UNL     1      52.659  20.179  18.270  0.00  0.00    +0.076 C 
ENDBRANCH  22  23
ENDBRANCH  21  22
TORSDOF 9
ENDMDL
MODEL 2
REMARK VINA RESULT:      -6.1      4.173      6.428
REMARK  Name = ZINC95099511
REMARK  13 active torsions:
REMARK  status: ('A' for Active; 'I' for Inactive)
REMARK    1  A    between atoms: C1_1  and  C2_2
REMARK    2  A    between atoms: C5_5  and  C8_8
REMARK    3  A    between atoms: C11_12  and  C22_26
REMARK    4  A    between atoms: C12_13  and  O4_25
REMARK    5  A    between atoms: C13_14  and  C17_20
REMARK    6  A    between atoms: C14_15  and  O3_19
REMARK    7  A    between atoms: C17_20  and  C18_21
REMARK    8  A    between atoms: C19_22  and  C20_23
REMARK    9  A    between atoms: C19_22  and  C21_24
REMARK   10  A    between atoms: C22_26  and  C23_27
REMARK   11  A    between atoms: C23_27  and  C24_29
REMARK   12  A    between atoms: C23_27  and  O5_32
REMARK   13  A    between atoms: C24_29  and  C26_31
REMARK                            x       y       z     vdW  Elec       q    Type
REMARK                         _______ _______ _______ _____ _____    ______ ____
ROOT
ATOM      6  C   UNL     1      50.718  12.617  13.879  0.00  0.00    -0.236 A 
ATOM      7  C   UNL     1      49.683  12.125  14.611  0.00  0.00    +0.322 A 
ATOM      8  O   UNL     1      49.394  12.565  15.837  0.00  0.00    -0.214 OA
ATOM      9  C   UNL     1      49.896  13.722  16.313  0.00  0.00    +0.168 A 
ATOM     10  C   UNL     1      49.346  14.320  17.438  0.00  0.00    -0.134 A 
ATOM     18  C   UNL     1      49.877  15.504  17.925  0.00  0.00    +0.200 A 
ATOM     21  C   UNL     1      50.962  16.107  17.299  0.00  0.00    -0.152 A 
ATOM     27  C   UNL     1      51.524  15.530  16.176  0.00  0.00    +0.214 A 
ATOM     30  C   UNL     1      50.988  14.338  15.674  0.00  0.00    -0.253 A 
ATOM     31  C   UNL     1      51.541  13.690  14.472  0.00  0.00    +0.433 A 
ATOM     32  O   UNL     1      52.611  14.023  13.991  0.00  0.00    -0.437 OA
ENDROOT
BRANCH   6   5
ATOM      1  C   UNL     1      51.866  10.553   8.628  0.00  0.00    +0.089 C 
ATOM      2  C   UNL     1      51.565  11.093  10.003  0.00  0.00    -0.080 A 
ATOM      3  C   UNL     1      51.708  10.277  11.109  0.00  0.00    +0.004 A 
ATOM      4  C   UNL     1      51.435  10.766  12.371  0.00  0.00    +0.020 A 
ATOM      5  C   UNL     1      51.015  12.086  12.527  0.00  0.00    -0.036 A 
ATOM     33  C   UNL     1      50.873  12.904  11.408  0.00  0.00    +0.039 A 
ATOM     34  C   UNL     1      51.155  12.405  10.153  0.00  0.00    +0.005 A 
ENDBRANCH   6   5
BRANCH  18  19
ATOM     19  O   UNL     1      49.330  16.081  19.024  0.00  0.00    -0.483 OA
ATOM     20  H   UNL     1      48.385  16.275  18.939  0.00  0.00    +0.399 HD
ENDBRANCH  18  19
BRANCH  27  28
ATOM     28  O   UNL     1      52.585  16.113  15.564  0.00  0.00    -0.471 OA
ATOM     29  H   UNL     1      52.501  16.171  14.602  0.00  0.00    +0.401 HD
ENDBRANCH  27  28
BRANCH  10  11
ATOM     11  C   UNL     1      48.169  13.682  18.131  0.00  0.00    +0.082 C 
BRANCH  11  12
ATOM     12  C   UNL     1      46.870  14.259  17.564  0.00  0.00    +0.256 C 
BRANCH  12  15
ATOM     15  C   UNL     1      45.811  14.256  18.636  0.00  0.00    -0.164 C 
ATOM     16  C   UNL     1      45.532  15.510  19.423  0.00  0.00    +0.079 C 
ATOM     17  C   UNL     1      45.131  13.164  18.883  0.00  0.00    +0.030 C 
ENDBRANCH  12  15
BRANCH  12  13
ATOM     13  O   UNL     1      46.435  13.460  16.463  0.00  0.00    -0.555 OA
ATOM     14  H   UNL     1      47.135  12.929  16.060  0.00  0.00    +0.372 HD
ENDBRANCH  12  13
ENDBRANCH  11  12
ENDBRANCH  10  11
BRANCH  21  22
ATOM     22  C   UNL     1      51.528  17.393  17.846  0.00  0.00    +0.136 C 
BRANCH  22  23
ATOM     23  C   UNL     1      51.194  18.527  16.912  0.00  0.00    -0.061 C 
ATOM     24  C   UNL     1      51.743  19.703  17.088  0.00  0.00    -0.122 C 
ATOM     25  C   UNL     1      51.516  20.799  16.078  0.00  0.00    +0.074 C 
ATOM     26  C   UNL     1      52.600  19.961  18.300  0.00  0.00    +0.076 C 
ENDBRANCH  22  23
ENDBRANCH  21  22
TORSDOF 9
ENDMDL
MODEL 3
REMARK VINA RESULT:      -5.9      3.199      7.402
REMARK  Name = ZINC95099511
REMARK  13 active torsions:
REMARK  status: ('A' for Active; 'I' for Inactive)
REMARK    1  A    between atoms: C1_1  and  C2_2
REMARK    2  A    between atoms: C5_5  and  C8_8
REMARK    3  A    between atoms: C11_12  and  C22_26
REMARK    4  A    between atoms: C12_13  and  O4_25
REMARK    5  A    between atoms: C13_14  and  C17_20
REMARK    6  A    between atoms: C14_15  and  O3_19
REMARK    7  A    between atoms: C17_20  and  C18_21
REMARK    8  A    between atoms: C19_22  and  C20_23
REMARK    9  A    between atoms: C19_22  and  C21_24
REMARK   10  A    between atoms: C22_26  and  C23_27
REMARK   11  A    between atoms: C23_27  and  C24_29
REMARK   12  A    between atoms: C23_27  and  O5_32
REMARK   13  A    between atoms: C24_29  and  C26_31
REMARK                            x       y       z     vdW  Elec       q    Type
REMARK                         _______ _______ _______ _____ _____    ______ ____
ROOT
ATOM      6  C   UNL     1      48.194  19.121  19.547  0.00  0.00    -0.236 A 
ATOM      7  C   UNL     1      48.239  18.007  20.326  0.00  0.00    +0.322 A 
ATOM      8  O   UNL     1      47.249  17.665  21.153  0.00  0.00    -0.214 OA
ATOM      9  C   UNL     1      46.021  18.212  21.053  0.00  0.00    +0.168 A 
ATOM     10  C   UNL     1      44.935  17.629  21.692  0.00  0.00    -0.134 A 
ATOM     18  C   UNL     1      43.679  18.205  21.592  0.00  0.00    +0.200 A 
ATOM     21  C   UNL     1      43.487  19.369  20.856  0.00  0.00    -0.152 A 
ATOM     27  C   UNL     1      44.553  19.965  20.210  0.00  0.00    +0.214 A 
ATOM     30  C   UNL     1      45.824  19.384  20.301  0.00  0.00    -0.253 A 
ATOM     31  C   UNL     1      46.991  19.972  19.619  0.00  0.00    +0.433 A 
ATOM     32  O   UNL     1      46.963  21.093  19.139  0.00  0.00    -0.437 OA
ENDROOT
BRANCH   6   5
ATOM      1  C   UNL     1      52.590  20.481  16.086  0.00  0.00    +0.089 C 
ATOM      2  C   UNL     1      51.439  20.125  16.992  0.00  0.00    -0.080 A 
ATOM      3  C   UNL     1      50.930  21.071  17.861  0.00  0.00    +0.004 A 
ATOM      4  C   UNL     1      49.875  20.751  18.693  0.00  0.00    +0.020 A 
ATOM      5  C   UNL     1      49.326  19.471  18.655  0.00  0.00    -0.036 A 
ATOM     33  C   UNL     1      49.843  18.522  17.776  0.00  0.00    +0.039 A 
ATOM     34  C   UNL     1      50.893  18.855  16.945  0.00  0.00    +0.005 A 
ENDBRANCH   6   5
BRANCH  18  19
ATOM     19  O   UNL     1      42.624  17.625  22.219  0.00  0.00    -0.483 OA
ATOM     20  H   UNL     1      42.509  16.687  22.011  0.00  0.00    +0.399 HD
ENDBRANCH  18  19
BRANCH  27  28
ATOM     28  O   UNL     1      44.371  21.102  19.493  0.00  0.00    -0.471 OA
ATOM     29  H   UNL     1      45.183  21.455  19.103  0.00  0.00    +0.401 HD
ENDBRANCH  27  28
BRANCH  10  11
ATOM     11  C   UNL     1      45.123  16.367  22.495  0.00  0.00    +0.082 C 
BRANCH  11  12
ATOM     12  C   UNL     1      44.926  15.152  21.587  0.00  0.00    +0.256 C 
BRANCH  12  15
ATOM     15  C   UNL     1      45.814  14.027  22.054  0.00  0.00    -0.164 C 
ATOM     16  C   UNL     1      47.312  14.179  22.004  0.00  0.00    +0.079 C 
ATOM     17  C   UNL     1      45.284  12.917  22.505  0.00  0.00    +0.030 C 
ENDBRANCH  12  15
BRANCH  12  13
ATOM     13  O   UNL     1      45.267  15.500  20.244  0.00  0.00    -0.555 OA
ATOM     14  H   UNL     1      46.054  16.057  20.169  0.00  0.00    +0.372 HD
ENDBRANCH  12  13
ENDBRANCH  11  12
ENDBRANCH  10  11
BRANCH  21  22
ATOM     22  C   UNL     1      42.113  19.982  20.763  0.00  0.00    +0.136 C 
BRANCH  22  23
ATOM     23  C   UNL     1      41.343  19.324  19.646  0.00  0.00    -0.061 C 
ATOM     24  C   UNL     1      40.855  20.051  18.672  0.00  0.00    -0.122 C 
ATOM     25  C   UNL     1      40.205  19.382  17.488  0.00  0.00    +0.074 C 
ATOM     26  C   UNL     1      40.943  21.554  18.735  0.00  0.00    +0.076 C 
ENDBRANCH  22  23
ENDBRANCH  21  22
TORSDOF 9
ENDMDL
MODEL 4
REMARK VINA RESULT:      -5.9      2.796      6.621
REMARK  Name = ZINC95099511
REMARK  13 active torsions:
REMARK  status: ('A' for Active; 'I' for Inactive)
REMARK    1  A    between atoms: C1_1  and  C2_2
REMARK    2  A    between atoms: C5_5  and  C8_8
REMARK    3  A    between atoms: C11_12  and  C22_26
REMARK    4  A    between atoms: C12_13  and  O4_25
REMARK    5  A    between atoms: C13_14  and  C17_20
REMARK    6  A    between atoms: C14_15  and  O3_19
REMARK    7  A    between atoms: C17_20  and  C18_21
REMARK    8  A    between atoms: C19_22  and  C20_23
REMARK    9  A    between atoms: C19_22  and  C21_24
REMARK   10  A    between atoms: C22_26  and  C23_27
REMARK   11  A    between atoms: C23_27  and  C24_29
REMARK   12  A    between atoms: C23_27  and  O5_32
REMARK   13  A    between atoms: C24_29  and  C26_31
REMARK                            x       y       z     vdW  Elec       q    Type
REMARK                         _______ _______ _______ _____ _____    ______ ____
ROOT
ATOM      6  C   UNL     1      46.613  19.593  19.461  0.00  0.00    -0.236 A 
ATOM      7  C   UNL     1      47.363  20.711  19.650  0.00  0.00    +0.322 A 
ATOM      8  O   UNL     1      48.688  20.726  19.490  0.00  0.00    -0.214 OA
ATOM      9  C   UNL     1      49.335  19.739  18.839  0.00  0.00    +0.168 A 
ATOM     10  C   UNL     1      50.641  19.918  18.404  0.00  0.00    -0.134 A 
ATOM     18  C   UNL     1      51.301  18.894  17.744  0.00  0.00    +0.200 A 
ATOM     21  C   UNL     1      50.671  17.677  17.510  0.00  0.00    -0.152 A 
ATOM     27  C   UNL     1      49.370  17.477  17.933  0.00  0.00    +0.214 A 
ATOM     30  C   UNL     1      48.695  18.511  18.593  0.00  0.00    -0.253 A 
ATOM     31  C   UNL     1      47.302  18.354  19.050  0.00  0.00    +0.433 A 
ATOM     32  O   UNL     1      46.750  17.267  19.083  0.00  0.00    -0.437 OA
ENDROOT
BRANCH   6   5
ATOM      1  C   UNL     1      40.912  19.692  20.263  0.00  0.00    +0.089 C 
ATOM      2  C   UNL     1      42.405  19.666  20.053  0.00  0.00    -0.080 A 
ATOM      3  C   UNL     1      43.238  19.270  21.083  0.00  0.00    +0.004 A 
ATOM      4  C   UNL     1      44.606  19.244  20.897  0.00  0.00    +0.020 A 
ATOM      5  C   UNL     1      45.145  19.617  19.667  0.00  0.00    -0.036 A 
ATOM     33  C   UNL     1      44.301  20.015  18.633  0.00  0.00    +0.039 A 
ATOM     34  C   UNL     1      42.935  20.032  18.829  0.00  0.00    +0.005 A 
ENDBRANCH   6   5
BRANCH  18  19
ATOM     19  O   UNL     1      52.577  19.081  17.322  0.00  0.00    -0.483 OA
ATOM     20  H   UNL     1      52.863  18.456  16.641  0.00  0.00    +0.399 HD
ENDBRANCH  18  19
BRANCH  27  28
ATOM     28  O   UNL     1      48.751  16.291  17.709  0.00  0.00    -0.471 OA
ATOM     29  H   UNL     1      48.399  16.193  16.814  0.00  0.00    +0.401 HD
ENDBRANCH  27  28
BRANCH  10  11
ATOM     11  C   UNL     1      51.342  21.230  18.649  0.00  0.00    +0.082 C 
BRANCH  11  12
ATOM     12  C   UNL     1      52.536  21.004  19.579  0.00  0.00    +0.256 C 
BRANCH  12  15
ATOM     15  C   UNL     1      52.040  20.618  20.948  0.00  0.00    -0.164 C 
ATOM     16  C   UNL     1      52.284  19.228  21.475  0.00  0.00    +0.079 C 
ATOM     17  C   UNL     1      51.395  21.492  21.682  0.00  0.00    +0.030 C 
ENDBRANCH  12  15
BRANCH  12  13
ATOM     13  O   UNL     1      53.303  22.206  19.671  0.00  0.00    -0.555 OA
ATOM     14  H   UNL     1      53.696  22.488  18.834  0.00  0.00    +0.372 HD
ENDBRANCH  12  13
ENDBRANCH  11  12
ENDBRANCH  10  11
BRANCH  21  22
ATOM     22  C   UNL     1      51.406  16.573  16.795  0.00  0.00    +0.136 C 
BRANCH  22  23
ATOM     23  C   UNL     1      51.844  15.531  17.793  0.00  0.00    -0.061 C 
ATOM     24  C   UNL     1      51.625  14.263  17.553  0.00  0.00    -0.122 C 
ATOM     25  C   UNL     1      52.181  13.214  18.482  0.00  0.00    +0.074 C 
ATOM     26  C   UNL     1      50.818  13.851  16.348  0.00  0.00    +0.076 C 
ENDBRANCH  22  23
ENDBRANCH  21  22
TORSDOF 9
ENDMDL
MODEL 5
REMARK VINA RESULT:      -5.8      2.270      6.879
REMARK  Name = ZINC95099511
REMARK  13 active torsions:
REMARK  status: ('A' for Active; 'I' for Inactive)
REMARK    1  A    between atoms: C1_1  and  C2_2
REMARK    2  A    between atoms: C5_5  and  C8_8
REMARK    3  A    between atoms: C11_12  and  C22_26
REMARK    4  A    between atoms: C12_13  and  O4_25
REMARK    5  A    between atoms: C13_14  and  C17_20
REMARK    6  A    between atoms: C14_15  and  O3_19
REMARK    7  A    between atoms: C17_20  and  C18_21
REMARK    8  A    between atoms: C19_22  and  C20_23
REMARK    9  A    between atoms: C19_22  and  C21_24
REMARK   10  A    between atoms: C22_26  and  C23_27
REMARK   11  A    between atoms: C23_27  and  C24_29
REMARK   12  A    between atoms: C23_27  and  O5_32
REMARK   13  A    between atoms: C24_29  and  C26_31
REMARK                            x       y       z     vdW  Elec       q    Type
REMARK                         _______ _______ _______ _____ _____    ______ ____
ROOT
ATOM      6  C   UNL     1      46.014  18.461  19.033  0.00  0.00    -0.236 A 
ATOM      7  C   UNL     1      46.955  19.393  18.727  0.00  0.00    +0.322 A 
ATOM      8  O   UNL     1      48.221  19.075  18.450  0.00  0.00    -0.214 OA
ATOM      9  C   UNL     1      48.587  17.813  18.150  0.00  0.00    +0.168 A 
ATOM     10  C   UNL     1      49.816  17.555  17.560  0.00  0.00    -0.134 A 
ATOM     18  C   UNL     1      50.187  16.253  17.265  0.00  0.00    +0.200 A 
ATOM     21  C   UNL     1      49.339  15.190  17.555  0.00  0.00    -0.152 A 
ATOM     27  C   UNL     1      48.108  15.424  18.140  0.00  0.00    +0.214 A 
ATOM     30  C   UNL     1      47.725  16.738  18.434  0.00  0.00    -0.253 A 
ATOM     31  C   UNL     1      46.418  17.041  19.044  0.00  0.00    +0.433 A 
ATOM     32  O   UNL     1      45.711  16.172  19.526  0.00  0.00    -0.437 OA
ENDROOT
BRANCH   6   5
ATOM      1  C   UNL     1      40.611  20.018  20.272  0.00  0.00    +0.089 C 
ATOM      2  C   UNL     1      42.025  19.610  19.948  0.00  0.00    -0.080 A 
ATOM      3  C   UNL     1      42.694  18.727  20.776  0.00  0.00    +0.004 A 
ATOM      4  C   UNL     1      43.990  18.349  20.483  0.00  0.00    +0.020 A 
ATOM      5  C   UNL     1      44.622  18.861  19.352  0.00  0.00    -0.036 A 
ATOM     33  C   UNL     1      43.943  19.751  18.521  0.00  0.00    +0.039 A 
ATOM     34  C   UNL     1      42.647  20.116  18.820  0.00  0.00    +0.005 A 
ENDBRANCH   6   5
BRANCH  18  19
ATOM     19  O   UNL     1      51.390  16.013  16.686  0.00  0.00    -0.483 OA
ATOM     20  H   UNL     1      51.963  15.425  17.198  0.00  0.00    +0.399 HD
ENDBRANCH  18  19
BRANCH  27  28
ATOM     28  O   UNL     1      47.279  14.389  18.428  0.00  0.00    -0.471 OA
ATOM     29  H   UNL     1      46.984  13.894  17.651  0.00  0.00    +0.401 HD
ENDBRANCH  27  28
BRANCH  10  11
ATOM     11  C   UNL     1      50.750  18.694  17.238  0.00  0.00    +0.082 C 
BRANCH  11  12
ATOM     12  C   UNL     1      51.611  19.008  18.463  0.00  0.00    +0.256 C 
BRANCH  12  15
ATOM     15  C   UNL     1      51.738  20.502  18.619  0.00  0.00    -0.164 C 
ATOM     16  C   UNL     1      52.622  21.076  19.694  0.00  0.00    +0.079 C 
ATOM     17  C   UNL     1      51.078  21.302  17.818  0.00  0.00    +0.030 C 
ENDBRANCH  12  15
BRANCH  12  13
ATOM     13  O   UNL     1      52.909  18.436  18.293  0.00  0.00    -0.555 OA
ATOM     14  H   UNL     1      53.635  19.059  18.436  0.00  0.00    +0.372 HD
ENDBRANCH  12  13
ENDBRANCH  11  12
ENDBRANCH  10  11
BRANCH  21  22
ATOM     22  C   UNL     1      49.761  13.780  17.231  0.00  0.00    +0.136 C 
BRANCH  22  23
ATOM     23  C   UNL     1      49.412  13.467  15.798  0.00  0.00    -0.061 C 
ATOM     24  C   UNL     1      50.304  12.916  15.013  0.00  0.00    -0.122 C 
ATOM     25  C   UNL     1      49.917  12.479  13.623  0.00  0.00    +0.074 C 
ATOM     26  C   UNL     1      51.718  12.719  15.499  0.00  0.00    +0.076 C 
ENDBRANCH  22  23
ENDBRANCH  21  22
TORSDOF 9
ENDMDL
MODEL 6
REMARK VINA RESULT:      -5.5      2.104      6.437
REMARK  Name = ZINC95099511
REMARK  13 active torsions:
REMARK  status: ('A' for Active; 'I' for Inactive)
REMARK    1  A    between atoms: C1_1  and  C2_2
REMARK    2  A    between atoms: C5_5  and  C8_8
REMARK    3  A    between atoms: C11_12  and  C22_26
REMARK    4  A    between atoms: C12_13  and  O4_25
REMARK    5  A    between atoms: C13_14  and  C17_20
REMARK    6  A    between atoms: C14_15  and  O3_19
REMARK    7  A    between atoms: C17_20  and  C18_21
REMARK    8  A    between atoms: C19_22  and  C20_23
REMARK    9  A    between atoms: C19_22  and  C21_24
REMARK   10  A    between atoms: C22_26  and  C23_27
REMARK   11  A    between atoms: C23_27  and  C24_29
REMARK   12  A    between atoms: C23_27  and  O5_32
REMARK   13  A    between atoms: C24_29  and  C26_31
REMARK                            x       y       z     vdW  Elec       q    Type
REMARK                         _______ _______ _______ _____ _____    ______ ____
ROOT
ATOM      6  C   UNL     1      45.382  17.332  19.506  0.00  0.00    -0.236 A 
ATOM      7  C   UNL     1      45.482  16.029  19.133  0.00  0.00    +0.322 A 
ATOM      8  O   UNL     1      46.571  15.529  18.545  0.00  0.00    -0.214 OA
ATOM      9  C   UNL     1      47.749  16.185  18.558  0.00  0.00    +0.168 A 
ATOM     10  C   UNL     1      48.927  15.527  18.234  0.00  0.00    -0.134 A 
ATOM     18  C   UNL     1      50.131  16.213  18.240  0.00  0.00    +0.200 A 
ATOM     21  C   UNL     1      50.177  17.564  18.568  0.00  0.00    -0.152 A 
ATOM     27  C   UNL     1      49.016  18.239  18.896  0.00  0.00    +0.214 A 
ATOM     30  C   UNL     1      47.798  17.549  18.899  0.00  0.00    -0.253 A 
ATOM     31  C   UNL     1      46.535  18.219  19.256  0.00  0.00    +0.433 A 
ATOM     32  O   UNL     1      46.447  19.432  19.343  0.00  0.00    -0.437 OA
ENDROOT
BRANCH   6   5
ATOM      1  C   UNL     1      40.578  19.333  21.971  0.00  0.00    +0.089 C 
ATOM      2  C   UNL     1      41.835  18.809  21.325  0.00  0.00    -0.080 A 
ATOM      3  C   UNL     1      42.212  19.271  20.077  0.00  0.00    +0.004 A 
ATOM      4  C   UNL     1      43.363  18.795  19.482  0.00  0.00    +0.020 A 
ATOM      5  C   UNL     1      44.145  17.848  20.141  0.00  0.00    -0.036 A 
ATOM     33  C   UNL     1      43.760  17.387  21.398  0.00  0.00    +0.039 A 
ATOM     34  C   UNL     1      42.611  17.875  21.986  0.00  0.00    +0.005 A 
ENDBRANCH   6   5
BRANCH  18  19
ATOM     19  O   UNL     1      51.277  15.559  17.923  0.00  0.00    -0.483 OA
ATOM     20  H   UNL     1      51.994  16.140  17.633  0.00  0.00    +0.399 HD
ENDBRANCH  18  19
BRANCH  27  28
ATOM     28  O   UNL     1      49.057  19.557  19.213  0.00  0.00    -0.471 OA
ATOM     29  H   UNL     1      49.351  20.127  18.490  0.00  0.00    +0.401 HD
ENDBRANCH  27  28
BRANCH  10  11
ATOM     11  C   UNL     1      48.897  14.063  17.875  0.00  0.00    +0.082 C 
BRANCH  11  12
ATOM     12  C   UNL     1      48.774  13.913  16.358  0.00  0.00    +0.256 C 
BRANCH  12  15
ATOM     15  C   UNL     1      47.863  12.755  16.040  0.00  0.00    -0.164 C 
ATOM     16  C   UNL     1      46.647  12.497  16.892  0.00  0.00    +0.079 C 
ATOM     17  C   UNL     1      48.127  11.973  15.023  0.00  0.00    +0.030 C 
ENDBRANCH  12  15
BRANCH  12  13
ATOM     13  O   UNL     1      50.065  13.669  15.797  0.00  0.00    -0.555 OA
ATOM     14  H   UNL     1      50.545  14.472  15.551  0.00  0.00    +0.372 HD
ENDBRANCH  12  13
ENDBRANCH  11  12
ENDBRANCH  10  11
BRANCH  21  22
ATOM     22  C   UNL     1      51.496  18.294  18.564  0.00  0.00    +0.136 C 
BRANCH  22  23
ATOM     23  C   UNL     1      51.665  19.020  17.254  0.00  0.00    -0.061 C 
ATOM     24  C   UNL     1      51.866  20.314  17.245  0.00  0.00    -0.122 C 
ATOM     25  C   UNL     1      52.171  21.019  15.948  0.00  0.00    +0.074 C 
ATOM     26  C   UNL     1      51.792  21.099  18.530  0.00  0.00    +0.076 C 
ENDBRANCH  22  23
ENDBRANCH  21  22
TORSDOF 9
ENDMDL
MODEL 7
REMARK VINA RESULT:      -5.4      2.316      6.376
REMARK  Name = ZINC95099511
REMARK  13 active torsions:
REMARK  status: ('A' for Active; 'I' for Inactive)
REMARK    1  A    between atoms: C1_1  and  C2_2
REMARK    2  A    between atoms: C5_5  and  C8_8
REMARK    3  A    between atoms: C11_12  and  C22_26
REMARK    4  A    between atoms: C12_13  and  O4_25
REMARK    5  A    between atoms: C13_14  and  C17_20
REMARK    6  A    between atoms: C14_15  and  O3_19
REMARK    7  A    between atoms: C17_20  and  C18_21
REMARK    8  A    between atoms: C19_22  and  C20_23
REMARK    9  A    between atoms: C19_22  and  C21_24
REMARK   10  A    between atoms: C22_26  and  C23_27
REMARK   11  A    between atoms: C23_27  and  C24_29
REMARK   12  A    between atoms: C23_27  and  O5_32
REMARK   13  A    between atoms: C24_29  and  C26_31
REMARK                            x       y       z     vdW  Elec       q    Type
REMARK                         _______ _______ _______ _____ _____    ______ ____
ROOT
ATOM      6  C   UNL     1      44.088  18.711  19.802  0.00  0.00    -0.236 A 
ATOM      7  C   UNL     1      44.113  17.518  20.452  0.00  0.00    +0.322 A 
ATOM      8  O   UNL     1      45.237  16.822  20.639  0.00  0.00    -0.214 OA
ATOM      9  C   UNL     1      46.453  17.381  20.480  0.00  0.00    +0.168 A 
ATOM     10  C   UNL     1      47.587  16.758  20.979  0.00  0.00    -0.134 A 
ATOM     18  C   UNL     1      48.834  17.336  20.801  0.00  0.00    +0.200 A 
ATOM     21  C   UNL     1      48.967  18.542  20.122  0.00  0.00    -0.152 A 
ATOM     27  C   UNL     1      47.850  19.182  19.618  0.00  0.00    +0.214 A 
ATOM     30  C   UNL     1      46.587  18.606  19.801  0.00  0.00    -0.253 A 
ATOM     31  C   UNL     1      45.364  19.256  19.297  0.00  0.00    +0.433 A 
ATOM     32  O   UNL     1      45.402  20.189  18.512  0.00  0.00    -0.437 OA
ENDROOT
BRANCH   6   5
ATOM      1  C   UNL     1      39.137  21.545  19.020  0.00  0.00    +0.089 C 
ATOM      2  C   UNL     1      40.433  20.803  19.224  0.00  0.00    -0.080 A 
ATOM      3  C   UNL     1      41.484  20.999  18.347  0.00  0.00    +0.004 A 
ATOM      4  C   UNL     1      42.674  20.323  18.530  0.00  0.00    +0.020 A 
ATOM      5  C   UNL     1      42.814  19.442  19.601  0.00  0.00    -0.036 A 
ATOM     33  C   UNL     1      41.751  19.249  20.482  0.00  0.00    +0.039 A 
ATOM     34  C   UNL     1      40.569  19.935  20.292  0.00  0.00    +0.005 A 
ENDBRANCH   6   5
BRANCH  18  19
ATOM     19  O   UNL     1      49.936  16.719  21.295  0.00  0.00    -0.483 OA
ATOM     20  H   UNL     1      50.053  16.825  22.250  0.00  0.00    +0.399 HD
ENDBRANCH  18  19
BRANCH  27  28
ATOM     28  O   UNL     1      47.976  20.357  18.952  0.00  0.00    -0.471 OA
ATOM     29  H   UNL     1      48.009  21.134  19.528  0.00  0.00    +0.401 HD
ENDBRANCH  27  28
BRANCH  10  11
ATOM     11  C   UNL     1      47.464  15.449  21.718  0.00  0.00    +0.082 C 
BRANCH  11  12
ATOM     12  C   UNL     1      47.387  14.301  20.710  0.00  0.00    +0.256 C 
BRANCH  12  15
ATOM     15  C   UNL     1      46.007  13.696  20.743  0.00  0.00    -0.164 C 
ATOM     16  C   UNL     1      45.284  13.397  19.455  0.00  0.00    +0.079 C 
ATOM     17  C   UNL     1      45.436  13.428  21.892  0.00  0.00    +0.030 C 
ENDBRANCH  12  15
BRANCH  12  13
ATOM     13  O   UNL     1      48.352  13.304  21.049  0.00  0.00    -0.555 OA
ATOM     14  H   UNL     1      48.113  12.412  20.761  0.00  0.00    +0.372 HD
ENDBRANCH  12  13
ENDBRANCH  11  12
ENDBRANCH  10  11
BRANCH  21  22
ATOM     22  C   UNL     1      50.332  19.154  19.934  0.00  0.00    +0.136 C 
BRANCH  22  23
ATOM     23  C   UNL     1      50.889  18.739  18.595  0.00  0.00    -0.061 C 
ATOM     24  C   UNL     1      51.353  19.645  17.772  0.00  0.00    -0.122 C 
ATOM     25  C   UNL     1      52.032  19.223  16.494  0.00  0.00    +0.074 C 
ATOM     26  C   UNL     1      51.207  21.109  18.100  0.00  0.00    +0.076 C 
ENDBRANCH  22  23
ENDBRANCH  21  22
TORSDOF 9
ENDMDL
MODEL 8
REMARK VINA RESULT:      -5.2      2.188      6.384
REMARK  Name = ZINC95099511
REMARK  13 active torsions:
REMARK  status: ('A' for Active; 'I' for Inactive)
REMARK    1  A    between atoms: C1_1  and  C2_2
REMARK    2  A    between atoms: C5_5  and  C8_8
REMARK    3  A    between atoms: C11_12  and  C22_26
REMARK    4  A    between atoms: C12_13  and  O4_25
REMARK    5  A    between atoms: C13_14  and  C17_20
REMARK    6  A    between atoms: C14_15  and  O3_19
REMARK    7  A    between atoms: C17_20  and  C18_21
REMARK    8  A    between atoms: C19_22  and  C20_23
REMARK    9  A    between atoms: C19_22  and  C21_24
REMARK   10  A    between atoms: C22_26  and  C23_27
REMARK   11  A    between atoms: C23_27  and  C24_29
REMARK   12  A    between atoms: C23_27  and  O5_32
REMARK   13  A    between atoms: C24_29  and  C26_31
REMARK                            x       y       z     vdW  Elec       q    Type
REMARK                         _______ _______ _______ _____ _____    ______ ____
ROOT
ATOM      6  C   UNL     1      45.407  18.414  19.193  0.00  0.00    -0.236 A 
ATOM      7  C   UNL     1      45.673  17.262  18.523  0.00  0.00    +0.322 A 
ATOM      8  O   UNL     1      46.838  17.036  17.912  0.00  0.00    -0.214 OA
ATOM      9  C   UNL     1      47.931  17.781  18.171  0.00  0.00    +0.168 A 
ATOM     10  C   UNL     1      49.191  17.346  17.784  0.00  0.00    -0.134 A 
ATOM     18  C   UNL     1      50.307  18.124  18.045  0.00  0.00    +0.200 A 
ATOM     21  C   UNL     1      50.183  19.348  18.694  0.00  0.00    -0.152 A 
ATOM     27  C   UNL     1      48.939  19.800  19.091  0.00  0.00    +0.214 A 
ATOM     30  C   UNL     1      47.808  19.014  18.836  0.00  0.00    -0.253 A 
ATOM     31  C   UNL     1      46.462  19.445  19.252  0.00  0.00    +0.433 A 
ATOM     32  O   UNL     1      46.232  20.583  19.626  0.00  0.00    -0.437 OA
ENDROOT
BRANCH   6   5
ATOM      1  C   UNL     1      40.297  19.248  21.713  0.00  0.00    +0.089 C 
ATOM      2  C   UNL     1      41.634  19.030  21.053  0.00  0.00    -0.080 A 
ATOM      3  C   UNL     1      41.913  19.640  19.844  0.00  0.00    +0.004 A 
ATOM      4  C   UNL     1      43.137  19.444  19.235  0.00  0.00    +0.020 A 
ATOM      5  C   UNL     1      44.091  18.630  19.843  0.00  0.00    -0.036 A 
ATOM     33  C   UNL     1      43.805  18.018  21.061  0.00  0.00    +0.039 A 
ATOM     34  C   UNL     1      42.580  18.226  21.663  0.00  0.00    +0.005 A 
ENDBRANCH   6   5
BRANCH  18  19
ATOM     19  O   UNL     1      51.533  17.687  17.664  0.00  0.00    -0.483 OA
ATOM     20  H   UNL     1      51.684  17.721  16.708  0.00  0.00    +0.399 HD
ENDBRANCH  18  19
BRANCH  27  28
ATOM     28  O   UNL     1      48.813  20.995  19.722  0.00  0.00    -0.471 OA
ATOM     29  H   UNL     1      48.397  21.682  19.184  0.00  0.00    +0.401 HD
ENDBRANCH  27  28
BRANCH  10  11
ATOM     11  C   UNL     1      49.345  16.022  17.078  0.00  0.00    +0.082 C 
BRANCH  11  12
ATOM     12  C   UNL     1      49.558  14.915  18.112  0.00  0.00    +0.256 C 
BRANCH  12  15
ATOM     15  C   UNL     1      48.924  13.639  17.620  0.00  0.00    -0.164 C 
ATOM     16  C   UNL     1      49.791  12.494  17.166  0.00  0.00    +0.079 C 
ATOM     17  C   UNL     1      47.619  13.526  17.587  0.00  0.00    +0.030 C 
ENDBRANCH  12  15
BRANCH  12  13
ATOM     13  O   UNL     1      48.956  15.298  19.350  0.00  0.00    -0.555 OA
ATOM     14  H   UNL     1      49.012  14.622  20.040  0.00  0.00    +0.372 HD
ENDBRANCH  12  13
ENDBRANCH  11  12
ENDBRANCH  10  11
BRANCH  21  22
ATOM     22  C   UNL     1      51.409  20.182  18.966  0.00  0.00    +0.136 C 
BRANCH  22  23
ATOM     23  C   UNL     1      51.881  19.938  20.376  0.00  0.00    -0.061 C 
ATOM     24  C   UNL     1      52.449  20.905  21.053  0.00  0.00    -0.122 C 
ATOM     25  C   UNL     1      52.797  20.704  22.505  0.00  0.00    +0.074 C 
ATOM     26  C   UNL     1      52.755  22.218  20.379  0.00  0.00    +0.076 C 
ENDBRANCH  22  23
ENDBRANCH  21  22
TORSDOF 9
ENDMDL
MODEL 9
REMARK VINA RESULT:      -5.0      4.585      6.782
REMARK  Name = ZINC95099511
REMARK  13 active torsions:
REMARK  status: ('A' for Active; 'I' for Inactive)
REMARK    1  A    between atoms: C1_1  and  C2_2
REMARK    2  A    between atoms: C5_5  and  C8_8
REMARK    3  A    between atoms: C11_12  and  C22_26
REMARK    4  A    between atoms: C12_13  and  O4_25
REMARK    5  A    between atoms: C13_14  and  C17_20
REMARK    6  A    between atoms: C14_15  and  O3_19
REMARK    7  A    between atoms: C17_20  and  C18_21
REMARK    8  A    between atoms: C19_22  and  C20_23
REMARK    9  A    between atoms: C19_22  and  C21_24
REMARK   10  A    between atoms: C22_26  and  C23_27
REMARK   11  A    between atoms: C23_27  and  C24_29
REMARK   12  A    between atoms: C23_27  and  O5_32
REMARK   13  A    between atoms: C24_29  and  C26_31
REMARK                            x       y       z     vdW  Elec       q    Type
REMARK                         _______ _______ _______ _____ _____    ______ ____
ROOT
ATOM      6  C   UNL     1      50.199  12.251  14.152  0.00  0.00    -0.236 A 
ATOM      7  C   UNL     1      48.934  12.725  14.299  0.00  0.00    +0.322 A 
ATOM      8  O   UNL     1      48.415  13.040  15.488  0.00  0.00    -0.214 OA
ATOM      9  C   UNL     1      49.190  13.206  16.578  0.00  0.00    +0.168 A 
ATOM     10  C   UNL     1      48.691  13.836  17.709  0.00  0.00    -0.134 A 
ATOM     18  C   UNL     1      49.492  13.993  18.829  0.00  0.00    +0.200 A 
ATOM     21  C   UNL     1      50.801  13.524  18.837  0.00  0.00    -0.152 A 
ATOM     27  C   UNL     1      51.320  12.896  17.720  0.00  0.00    +0.214 A 
ATOM     30  C   UNL     1      50.518  12.741  16.583  0.00  0.00    -0.253 A 
ATOM     31  C   UNL     1      51.028  12.092  15.362  0.00  0.00    +0.433 A 
ATOM     32  O   UNL     1      52.074  11.465  15.351  0.00  0.00    -0.437 OA
ENDROOT
BRANCH   6   5
ATOM      1  C   UNL     1      52.258  10.878   8.953  0.00  0.00    +0.089 C 
ATOM      2  C   UNL     1      51.719  11.237  10.313  0.00  0.00    -0.080 A 
ATOM      3  C   UNL     1      51.278  12.524  10.561  0.00  0.00    +0.004 A 
ATOM      4  C   UNL     1      50.783  12.859  11.805  0.00  0.00    +0.020 A 
ATOM      5  C   UNL     1      50.728  11.897  12.812  0.00  0.00    -0.036 A 
ATOM     33  C   UNL     1      51.174  10.602  12.557  0.00  0.00    +0.039 A 
ATOM     34  C   UNL     1      51.661  10.277  11.307  0.00  0.00    +0.005 A 
ENDBRANCH   6   5
BRANCH  18  19
ATOM     19  O   UNL     1      48.994  14.611  19.928  0.00  0.00    -0.483 OA
ATOM     20  H   UNL     1      48.059  14.425  20.096  0.00  0.00    +0.399 HD
ENDBRANCH  18  19
BRANCH  27  28
ATOM     28  O   UNL     1      52.596  12.434  17.724  0.00  0.00    -0.471 OA
ATOM     29  H   UNL     1      52.795  11.822  17.003  0.00  0.00    +0.401 HD
ENDBRANCH  27  28
BRANCH  10  11
ATOM     11  C   UNL     1      47.274  14.350  17.720  0.00  0.00    +0.082 C 
BRANCH  11  12
ATOM     12  C   UNL     1      47.238  15.756  17.118  0.00  0.00    +0.256 C 
BRANCH  12  15
ATOM     15  C   UNL     1      46.411  16.658  17.997  0.00  0.00    -0.164 C 
ATOM     16  C   UNL     1      46.332  18.133  17.701  0.00  0.00    +0.079 C 
ATOM     17  C   UNL     1      45.760  16.160  19.019  0.00  0.00    +0.030 C 
ENDBRANCH  12  15
BRANCH  12  13
ATOM     13  O   UNL     1      46.657  15.701  15.813  0.00  0.00    -0.555 OA
ATOM     14  H   UNL     1      46.834  14.877  15.339  0.00  0.00    +0.372 HD
ENDBRANCH  12  13
ENDBRANCH  11  12
ENDBRANCH  10  11
BRANCH  21  22
ATOM     22  C   UNL     1      51.656  13.700  20.065  0.00  0.00    +0.136 C 
BRANCH  22  23
ATOM     23  C   UNL     1      52.549  14.902  19.889  0.00  0.00    -0.061 C 
ATOM     24  C   UNL     1      53.844  14.783  20.039  0.00  0.00    -0.122 C 
ATOM     25  C   UNL     1      54.749  15.948  19.730  0.00  0.00    +0.074 C 
ATOM     26  C   UNL     1      54.431  13.481  20.521  0.00  0.00    +0.076 C 
ENDBRANCH  22  23
ENDBRANCH  21  22
TORSDOF 9
ENDMDL
