MODEL 1
REMARK VINA RESULT:      -6.9      0.000      0.000
REMARK  Name = ZINC05085289
REMARK  13 active torsions:
REMARK  status: ('A' for Active; 'I' for Inactive)
REMARK    1  A    between atoms: C3_3  and  O12_47
REMARK    2  A    between atoms: C4_4  and  O11_46
REMARK    3  A    between atoms: C6_6  and  C7_7
REMARK    4  A    between atoms: C8_9  and  O10_45
REMARK    5  A    between atoms: C11_13  and  O9_44
REMARK    6  A    between atoms: C13_15  and  O8_43
REMARK    7  A    between atoms: C14_16  and  C16_19
REMARK    8  A    between atoms: C18_22  and  O7_42
REMARK    9  A    between atoms: C20_24  and  O6_41
REMARK   10  A    between atoms: C23_28  and  C25_33
REMARK   11  A    between atoms: C24_30  and  O3_32
REMARK   12  A    between atoms: C28_36  and  O5_40
REMARK   13  A    between atoms: C29_37  and  O4_39
REMARK                            x       y       z     vdW  Elec       q    Type
REMARK                         _______ _______ _______ _____ _____    ______ ____
ROOT
ATOM     11  C   UNL     1      46.108  16.694  21.397  0.00  0.00    +0.238 C 
ATOM     12  C   UNL     1      44.651  16.212  21.421  0.00  0.00    +0.154 C 
ATOM     15  C   UNL     1      43.760  17.395  21.810  0.00  0.00    +0.073 C 
ATOM     16  C   UNL     1      44.126  18.600  20.981  0.00  0.00    -0.196 A 
ATOM     17  C   UNL     1      43.223  19.653  20.898  0.00  0.00    +0.158 A 
ATOM     20  C   UNL     1      43.527  20.778  20.150  0.00  0.00    -0.069 A 
ATOM     21  C   UNL     1      44.739  20.854  19.479  0.00  0.00    +0.202 A 
ATOM     24  C   UNL     1      45.639  19.805  19.560  0.00  0.00    -0.108 A 
ATOM     51  C   UNL     1      45.334  18.674  20.310  0.00  0.00    +0.163 A 
ATOM     52  O   UNL     1      46.244  17.666  20.359  0.00  0.00    -0.299 OA
ENDROOT
BRANCH  24  25
ATOM     25  C   UNL     1      46.957  19.889  18.832  0.00  0.00    +0.133 C 
ATOM     26  C   UNL     1      47.284  18.546  18.230  0.00  0.00    -0.178 A 
ATOM     27  C   UNL     1      46.267  17.825  17.613  0.00  0.00    +0.155 A 
ATOM     30  C   UNL     1      46.533  16.589  17.047  0.00  0.00    -0.068 A 
ATOM     31  C   UNL     1      47.817  16.069  17.096  0.00  0.00    +0.157 A 
ATOM     34  C   UNL     1      48.829  16.786  17.712  0.00  0.00    -0.046 A 
ATOM     35  C   UNL     1      48.564  18.026  18.282  0.00  0.00    +0.182 A 
ATOM     36  O   UNL     1      49.585  18.694  18.880  0.00  0.00    -0.291 OA
ATOM     37  C   UNL     1      49.414  20.090  19.131  0.00  0.00    +0.196 C 
ATOM     48  C   UNL     1      48.056  20.295  19.816  0.00  0.00    +0.161 C 
BRANCH  37  38
ATOM     38  C   UNL     1      50.517  20.583  20.032  0.00  0.00    -0.086 A 
ATOM     39  C   UNL     1      50.558  20.185  21.355  0.00  0.00    +0.055 A 
ATOM     40  C   UNL     1      51.568  20.635  22.185  0.00  0.00    +0.011 A 
ATOM     41  C   UNL     1      52.542  21.487  21.690  0.00  0.00    +0.090 A 
ATOM     44  C   UNL     1      52.501  21.887  20.358  0.00  0.00    +0.083 A 
ATOM     47  C   UNL     1      51.489  21.428  19.531  0.00  0.00    +0.021 A 
BRANCH  41  42
ATOM     42  O   UNL     1      53.535  21.931  22.505  0.00  0.00    -0.487 OA
ATOM     43  H   UNL     1      53.501  21.568  23.402  0.00  0.00    +0.390 HD
ENDBRANCH  41  42
BRANCH  44  45
ATOM     45  O   UNL     1      53.455  22.724  19.869  0.00  0.00    -0.486 OA
ATOM     46  H   UNL     1      53.284  23.031  18.968  0.00  0.00    +0.390 HD
ENDBRANCH  44  45
ENDBRANCH  37  38
BRANCH  27  28
ATOM     28  O   UNL     1      45.009  18.336  17.565  0.00  0.00    -0.483 OA
ATOM     29  H   UNL     1      44.977  19.302  17.545  0.00  0.00    +0.389 HD
ENDBRANCH  27  28
BRANCH  31  32
ATOM     32  O   UNL     1      48.081  14.857  16.541  0.00  0.00    -0.493 OA
ATOM     33  H   UNL     1      48.253  14.158  17.188  0.00  0.00    +0.396 HD
ENDBRANCH  31  32
BRANCH  48  49
ATOM     49  O   UNL     1      47.980  19.482  20.987  0.00  0.00    -0.512 OA
ATOM     50  H   UNL     1      48.156  19.958  21.810  0.00  0.00    +0.368 HD
ENDBRANCH  48  49
ENDBRANCH  24  25
BRANCH  11  10
ATOM      1  C   UNL     1      48.129  15.318  21.926  0.00  0.00    +0.043 A 
ATOM      2  C   UNL     1      48.969  14.247  21.684  0.00  0.00    +0.002 A 
ATOM      3  C   UNL     1      48.709  13.388  20.627  0.00  0.00    +0.088 A 
ATOM      6  C   UNL     1      47.595  13.599  19.821  0.00  0.00    +0.081 A 
ATOM      9  C   UNL     1      46.755  14.672  20.073  0.00  0.00    +0.036 A 
ATOM     10  C   UNL     1      47.023  15.528  21.124  0.00  0.00    -0.071 A 
BRANCH   3   4
ATOM      4  O   UNL     1      49.537  12.336  20.385  0.00  0.00    -0.493 OA
ATOM      5  H   UNL     1      49.915  12.332  19.496  0.00  0.00    +0.395 HD
ENDBRANCH   3   4
BRANCH   6   7
ATOM      7  O   UNL     1      47.332  12.756  18.787  0.00  0.00    -0.491 OA
ATOM      8  H   UNL     1      48.121  12.391  18.366  0.00  0.00    +0.393 HD
ENDBRANCH   6   7
ENDBRANCH  11  10
BRANCH  12  13
ATOM     13  O   UNL     1      44.507  15.164  22.381  0.00  0.00    -0.551 OA
ATOM     14  H   UNL     1      45.138  14.439  22.270  0.00  0.00    +0.387 HD
ENDBRANCH  12  13
BRANCH  17  18
ATOM     18  O   UNL     1      42.035  19.578  21.555  0.00  0.00    -0.494 OA
ATOM     19  H   UNL     1      41.342  20.139  21.180  0.00  0.00    +0.393 HD
ENDBRANCH  17  18
BRANCH  21  22
ATOM     22  O   UNL     1      45.043  21.957  18.746  0.00  0.00    -0.457 OA
ATOM     23  H   UNL     1      44.345  22.229  18.136  0.00  0.00    +0.377 HD
ENDBRANCH  21  22
TORSDOF 13
ENDMDL
MODEL 2
REMARK VINA RESULT:      -6.5      2.994      7.098
REMARK  Name = ZINC05085289
REMARK  13 active torsions:
REMARK  status: ('A' for Active; 'I' for Inactive)
REMARK    1  A    between atoms: C3_3  and  O12_47
REMARK    2  A    between atoms: C4_4  and  O11_46
REMARK    3  A    between atoms: C6_6  and  C7_7
REMARK    4  A    between atoms: C8_9  and  O10_45
REMARK    5  A    between atoms: C11_13  and  O9_44
REMARK    6  A    between atoms: C13_15  and  O8_43
REMARK    7  A    between atoms: C14_16  and  C16_19
REMARK    8  A    between atoms: C18_22  and  O7_42
REMARK    9  A    between atoms: C20_24  and  O6_41
REMARK   10  A    between atoms: C23_28  and  C25_33
REMARK   11  A    between atoms: C24_30  and  O3_32
REMARK   12  A    between atoms: C28_36  and  O5_40
REMARK   13  A    between atoms: C29_37  and  O4_39
REMARK                            x       y       z     vdW  Elec       q    Type
REMARK                         _______ _______ _______ _____ _____    ______ ____
ROOT
ATOM     11  C   UNL     1      48.303  18.697  18.700  0.00  0.00    +0.238 C 
ATOM     12  C   UNL     1      47.444  19.489  19.696  0.00  0.00    +0.154 C 
ATOM     15  C   UNL     1      46.038  18.883  19.704  0.00  0.00    +0.073 C 
ATOM     16  C   UNL     1      46.132  17.384  19.838  0.00  0.00    -0.196 A 
ATOM     17  C   UNL     1      45.004  16.677  20.237  0.00  0.00    +0.158 A 
ATOM     20  C   UNL     1      45.051  15.299  20.367  0.00  0.00    -0.069 A 
ATOM     21  C   UNL     1      46.231  14.621  20.098  0.00  0.00    +0.202 A 
ATOM     24  C   UNL     1      47.356  15.324  19.702  0.00  0.00    -0.108 A 
ATOM     51  C   UNL     1      47.310  16.709  19.572  0.00  0.00    +0.163 A 
ATOM     52  O   UNL     1      48.438  17.360  19.185  0.00  0.00    -0.299 OA
ENDROOT
BRANCH  24  25
ATOM     25  C   UNL     1      48.638  14.586  19.408  0.00  0.00    +0.133 C 
ATOM     26  C   UNL     1      49.811  15.416  19.866  0.00  0.00    -0.178 A 
ATOM     27  C   UNL     1      49.727  16.072  21.090  0.00  0.00    +0.155 A 
ATOM     30  C   UNL     1      50.786  16.841  21.543  0.00  0.00    -0.068 A 
ATOM     31  C   UNL     1      51.934  16.955  20.775  0.00  0.00    +0.157 A 
ATOM     34  C   UNL     1      52.018  16.303  19.556  0.00  0.00    -0.046 A 
ATOM     35  C   UNL     1      50.955  15.533  19.098  0.00  0.00    +0.182 A 
ATOM     36  O   UNL     1      51.076  14.913  17.895  0.00  0.00    -0.291 OA
ATOM     37  C   UNL     1      50.169  13.851  17.596  0.00  0.00    +0.196 C 
ATOM     48  C   UNL     1      48.744  14.331  17.903  0.00  0.00    +0.161 C 
BRANCH  37  38
ATOM     38  C   UNL     1      50.279  13.484  16.138  0.00  0.00    -0.086 A 
ATOM     39  C   UNL     1      49.271  12.758  15.531  0.00  0.00    +0.055 A 
ATOM     40  C   UNL     1      49.368  12.418  14.195  0.00  0.00    +0.011 A 
ATOM     41  C   UNL     1      50.477  12.808  13.460  0.00  0.00    +0.090 A 
ATOM     44  C   UNL     1      51.490  13.539  14.071  0.00  0.00    +0.083 A 
ATOM     47  C   UNL     1      51.385  13.880  15.410  0.00  0.00    +0.021 A 
BRANCH  41  42
ATOM     42  O   UNL     1      50.574  12.474  12.146  0.00  0.00    -0.487 OA
ATOM     43  H   UNL     1      50.563  13.233  11.545  0.00  0.00    +0.390 HD
ENDBRANCH  41  42
BRANCH  44  45
ATOM     45  O   UNL     1      52.581  13.922  13.354  0.00  0.00    -0.486 OA
ATOM     46  H   UNL     1      53.418  13.586  13.703  0.00  0.00    +0.390 HD
ENDBRANCH  44  45
ENDBRANCH  37  38
BRANCH  27  28
ATOM     28  O   UNL     1      48.601  15.960  21.842  0.00  0.00    -0.483 OA
ATOM     29  H   UNL     1      48.354  16.773  22.304  0.00  0.00    +0.389 HD
ENDBRANCH  27  28
BRANCH  31  32
ATOM     32  O   UNL     1      52.977  17.708  21.217  0.00  0.00    -0.493 OA
ATOM     33  H   UNL     1      52.876  18.655  21.050  0.00  0.00    +0.396 HD
ENDBRANCH  31  32
BRANCH  48  49
ATOM     49  O   UNL     1      48.478  15.538  17.188  0.00  0.00    -0.512 OA
ATOM     50  H   UNL     1      47.540  15.769  17.140  0.00  0.00    +0.368 HD
ENDBRANCH  48  49
ENDBRANCH  24  25
BRANCH  11  10
ATOM      1  C   UNL     1      50.099  20.211  19.561  0.00  0.00    +0.043 A 
ATOM      2  C   UNL     1      51.349  20.794  19.464  0.00  0.00    +0.002 A 
ATOM      3  C   UNL     1      52.163  20.509  18.379  0.00  0.00    +0.088 A 
ATOM      6  C   UNL     1      51.725  19.627  17.396  0.00  0.00    +0.081 A 
ATOM      9  C   UNL     1      50.474  19.042  17.504  0.00  0.00    +0.036 A 
ATOM     10  C   UNL     1      49.664  19.335  18.585  0.00  0.00    -0.071 A 
BRANCH   3   4
ATOM      4  O   UNL     1      53.391  21.086  18.279  0.00  0.00    -0.493 OA
ATOM      5  H   UNL     1      53.609  21.393  17.389  0.00  0.00    +0.395 HD
ENDBRANCH   3   4
BRANCH   6   7
ATOM      7  O   UNL     1      52.523  19.339  16.334  0.00  0.00    -0.491 OA
ATOM      8  H   UNL     1      53.180  20.020  16.138  0.00  0.00    +0.393 HD
ENDBRANCH   6   7
ENDBRANCH  11  10
BRANCH  12  13
ATOM     13  O   UNL     1      47.377  20.857  19.290  0.00  0.00    -0.551 OA
ATOM     14  H   UNL     1      48.185  21.183  18.870  0.00  0.00    +0.387 HD
ENDBRANCH  12  13
BRANCH  17  18
ATOM     18  O   UNL     1      43.848  17.342  20.501  0.00  0.00    -0.494 OA
ATOM     19  H   UNL     1      43.122  16.770  20.787  0.00  0.00    +0.393 HD
ENDBRANCH  17  18
BRANCH  21  22
ATOM     22  O   UNL     1      46.283  13.269  20.221  0.00  0.00    -0.457 OA
ATOM     23  H   UNL     1      45.914  12.791  19.465  0.00  0.00    +0.377 HD
ENDBRANCH  21  22
TORSDOF 13
ENDMDL
MODEL 3
REMARK VINA RESULT:      -6.4      3.532      6.871
REMARK  Name = ZINC05085289
REMARK  13 active torsions:
REMARK  status: ('A' for Active; 'I' for Inactive)
REMARK    1  A    between atoms: C3_3  and  O12_47
REMARK    2  A    between atoms: C4_4  and  O11_46
REMARK    3  A    between atoms: C6_6  and  C7_7
REMARK    4  A    between atoms: C8_9  and  O10_45
REMARK    5  A    between atoms: C11_13  and  O9_44
REMARK    6  A    between atoms: C13_15  and  O8_43
REMARK    7  A    between atoms: C14_16  and  C16_19
REMARK    8  A    between atoms: C18_22  and  O7_42
REMARK    9  A    between atoms: C20_24  and  O6_41
REMARK   10  A    between atoms: C23_28  and  C25_33
REMARK   11  A    between atoms: C24_30  and  O3_32
REMARK   12  A    between atoms: C28_36  and  O5_40
REMARK   13  A    between atoms: C29_37  and  O4_39
REMARK                            x       y       z     vdW  Elec       q    Type
REMARK                         _______ _______ _______ _____ _____    ______ ____
ROOT
ATOM     11  C   UNL     1      49.038  16.688  17.839  0.00  0.00    +0.238 C 
ATOM     12  C   UNL     1      47.563  16.982  17.534  0.00  0.00    +0.154 C 
ATOM     15  C   UNL     1      46.775  15.676  17.671  0.00  0.00    +0.073 C 
ATOM     16  C   UNL     1      47.140  14.996  18.966  0.00  0.00    -0.196 A 
ATOM     17  C   UNL     1      46.294  14.014  19.466  0.00  0.00    +0.158 A 
ATOM     20  C   UNL     1      46.599  13.364  20.651  0.00  0.00    -0.069 A 
ATOM     21  C   UNL     1      47.755  13.696  21.341  0.00  0.00    +0.202 A 
ATOM     24  C   UNL     1      48.599  14.676  20.845  0.00  0.00    -0.108 A 
ATOM     51  C   UNL     1      48.292  15.330  19.656  0.00  0.00    +0.163 A 
ATOM     52  O   UNL     1      49.144  16.288  19.206  0.00  0.00    -0.299 OA
ENDROOT
BRANCH  24  25
ATOM     25  C   UNL     1      49.856  15.036  21.596  0.00  0.00    +0.133 C 
ATOM     26  C   UNL     1      49.984  16.536  21.669  0.00  0.00    -0.178 A 
ATOM     27  C   UNL     1      48.848  17.291  21.943  0.00  0.00    +0.155 A 
ATOM     30  C   UNL     1      48.930  18.672  22.020  0.00  0.00    -0.068 A 
ATOM     31  C   UNL     1      50.149  19.303  21.825  0.00  0.00    +0.157 A 
ATOM     34  C   UNL     1      51.280  18.552  21.552  0.00  0.00    -0.046 A 
ATOM     35  C   UNL     1      51.199  17.167  21.471  0.00  0.00    +0.182 A 
ATOM     36  O   UNL     1      52.331  16.468  21.196  0.00  0.00    -0.291 OA
ATOM     37  C   UNL     1      52.336  15.066  21.473  0.00  0.00    +0.196 C 
ATOM     48  C   UNL     1      51.068  14.450  20.868  0.00  0.00    +0.161 C 
BRANCH  37  38
ATOM     38  C   UNL     1      53.555  14.430  20.855  0.00  0.00    -0.086 A 
ATOM     39  C   UNL     1      53.731  13.061  20.930  0.00  0.00    +0.055 A 
ATOM     40  C   UNL     1      54.848  12.473  20.365  0.00  0.00    +0.011 A 
ATOM     41  C   UNL     1      55.793  13.257  19.722  0.00  0.00    +0.090 A 
ATOM     44  C   UNL     1      55.614  14.635  19.647  0.00  0.00    +0.083 A 
ATOM     47  C   UNL     1      54.490  15.217  20.211  0.00  0.00    +0.021 A 
BRANCH  41  42
ATOM     42  O   UNL     1      56.892  12.681  19.167  0.00  0.00    -0.487 OA
ATOM     43  H   UNL     1      57.174  11.867  19.608  0.00  0.00    +0.390 HD
ENDBRANCH  41  42
BRANCH  44  45
ATOM     45  O   UNL     1      56.539  15.408  19.017  0.00  0.00    -0.486 OA
ATOM     46  H   UNL     1      56.864  15.034  18.187  0.00  0.00    +0.390 HD
ENDBRANCH  44  45
ENDBRANCH  37  38
BRANCH  27  28
ATOM     28  O   UNL     1      47.654  16.672  22.134  0.00  0.00    -0.483 OA
ATOM     29  H   UNL     1      46.908  17.117  21.708  0.00  0.00    +0.389 HD
ENDBRANCH  27  28
BRANCH  31  32
ATOM     32  O   UNL     1      50.233  20.658  21.902  0.00  0.00    -0.493 OA
ATOM     33  H   UNL     1      50.390  21.090  21.051  0.00  0.00    +0.396 HD
ENDBRANCH  31  32
BRANCH  48  49
ATOM     49  O   UNL     1      50.995  14.766  19.477  0.00  0.00    -0.512 OA
ATOM     50  H   UNL     1      51.648  15.417  19.186  0.00  0.00    +0.368 HD
ENDBRANCH  48  49
ENDBRANCH  24  25
BRANCH  11  10
ATOM      1  C   UNL     1      49.626  19.063  18.360  0.00  0.00    +0.043 A 
ATOM      2  C   UNL     1      50.381  20.202  18.156  0.00  0.00    +0.002 A 
ATOM      3  C   UNL     1      51.371  20.212  17.186  0.00  0.00    +0.088 A 
ATOM      6  C   UNL     1      51.609  19.070  16.427  0.00  0.00    +0.081 A 
ATOM      9  C   UNL     1      50.850  17.930  16.642  0.00  0.00    +0.036 A 
ATOM     10  C   UNL     1      49.861  17.929  17.607  0.00  0.00    -0.071 A 
BRANCH   3   4
ATOM      4  O   UNL     1      52.112  21.334  16.980  0.00  0.00    -0.493 OA
ATOM      5  H   UNL     1      51.815  21.868  16.231  0.00  0.00    +0.395 HD
ENDBRANCH   3   4
BRANCH   6   7
ATOM      7  O   UNL     1      52.582  19.072  15.479  0.00  0.00    -0.491 OA
ATOM      8  H   UNL     1      53.257  19.752  15.608  0.00  0.00    +0.393 HD
ENDBRANCH   6   7
ENDBRANCH  11  10
BRANCH  12  13
ATOM     13  O   UNL     1      47.438  17.483  16.202  0.00  0.00    -0.551 OA
ATOM     14  H   UNL     1      47.289  16.797  15.536  0.00  0.00    +0.387 HD
ENDBRANCH  12  13
BRANCH  17  18
ATOM     18  O   UNL     1      45.161  13.688  18.789  0.00  0.00    -0.494 OA
ATOM     19  H   UNL     1      45.047  12.738  18.646  0.00  0.00    +0.393 HD
ENDBRANCH  17  18
BRANCH  21  22
ATOM     22  O   UNL     1      48.062  13.060  22.502  0.00  0.00    -0.457 OA
ATOM     23  H   UNL     1      47.439  13.233  23.221  0.00  0.00    +0.377 HD
ENDBRANCH  21  22
TORSDOF 13
ENDMDL
MODEL 4
REMARK VINA RESULT:      -6.4      2.581      6.989
REMARK  Name = ZINC05085289
REMARK  13 active torsions:
REMARK  status: ('A' for Active; 'I' for Inactive)
REMARK    1  A    between atoms: C3_3  and  O12_47
REMARK    2  A    between atoms: C4_4  and  O11_46
REMARK    3  A    between atoms: C6_6  and  C7_7
REMARK    4  A    between atoms: C8_9  and  O10_45
REMARK    5  A    between atoms: C11_13  and  O9_44
REMARK    6  A    between atoms: C13_15  and  O8_43
REMARK    7  A    between atoms: C14_16  and  C16_19
REMARK    8  A    between atoms: C18_22  and  O7_42
REMARK    9  A    between atoms: C20_24  and  O6_41
REMARK   10  A    between atoms: C23_28  and  C25_33
REMARK   11  A    between atoms: C24_30  and  O3_32
REMARK   12  A    between atoms: C28_36  and  O5_40
REMARK   13  A    between atoms: C29_37  and  O4_39
REMARK                            x       y       z     vdW  Elec       q    Type
REMARK                         _______ _______ _______ _____ _____    ______ ____
ROOT
ATOM     11  C   UNL     1      48.542  18.815  18.677  0.00  0.00    +0.238 C 
ATOM     12  C   UNL     1      48.485  20.260  19.190  0.00  0.00    +0.154 C 
ATOM     15  C   UNL     1      47.043  20.758  19.060  0.00  0.00    +0.073 C 
ATOM     16  C   UNL     1      46.097  19.733  19.632  0.00  0.00    -0.196 A 
ATOM     17  C   UNL     1      44.804  20.124  19.957  0.00  0.00    +0.158 A 
ATOM     20  C   UNL     1      43.907  19.208  20.481  0.00  0.00    -0.069 A 
ATOM     21  C   UNL     1      44.301  17.894  20.684  0.00  0.00    +0.202 A 
ATOM     24  C   UNL     1      45.590  17.503  20.363  0.00  0.00    -0.108 A 
ATOM     51  C   UNL     1      46.493  18.423  19.837  0.00  0.00    +0.163 A 
ATOM     52  O   UNL     1      47.749  17.999  19.540  0.00  0.00    -0.299 OA
ENDROOT
BRANCH  24  25
ATOM     25  C   UNL     1      46.018  16.074  20.582  0.00  0.00    +0.133 C 
ATOM     26  C   UNL     1      47.444  16.047  21.073  0.00  0.00    -0.178 A 
ATOM     27  C   UNL     1      47.838  16.978  22.029  0.00  0.00    +0.155 A 
ATOM     30  C   UNL     1      49.139  16.980  22.504  0.00  0.00    -0.068 A 
ATOM     31  C   UNL     1      50.051  16.051  22.027  0.00  0.00    +0.157 A 
ATOM     34  C   UNL     1      49.659  15.125  21.075  0.00  0.00    -0.046 A 
ATOM     35  C   UNL     1      48.354  15.123  20.595  0.00  0.00    +0.182 A 
ATOM     36  O   UNL     1      48.011  14.201  19.657  0.00  0.00    -0.291 OA
ATOM     37  C   UNL     1      46.621  13.954  19.439  0.00  0.00    +0.196 C 
ATOM     48  C   UNL     1      45.912  15.304  19.264  0.00  0.00    +0.161 C 
BRANCH  37  38
ATOM     38  C   UNL     1      46.442  13.122  18.195  0.00  0.00    -0.086 A 
ATOM     39  C   UNL     1      47.549  12.689  17.489  0.00  0.00    +0.055 A 
ATOM     40  C   UNL     1      47.390  11.926  16.347  0.00  0.00    +0.011 A 
ATOM     41  C   UNL     1      46.118  11.593  15.909  0.00  0.00    +0.090 A 
ATOM     44  C   UNL     1      45.004  12.028  16.620  0.00  0.00    +0.083 A 
ATOM     47  C   UNL     1      45.171  12.788  17.766  0.00  0.00    +0.021 A 
BRANCH  41  42
ATOM     42  O   UNL     1      45.960  10.843  14.786  0.00  0.00    -0.487 OA
ATOM     43  H   UNL     1      46.721  10.864  14.188  0.00  0.00    +0.390 HD
ENDBRANCH  41  42
BRANCH  44  45
ATOM     45  O   UNL     1      43.754  11.703  16.193  0.00  0.00    -0.486 OA
ATOM     46  H   UNL     1      43.215  11.257  16.860  0.00  0.00    +0.390 HD
ENDBRANCH  44  45
ENDBRANCH  37  38
BRANCH  27  28
ATOM     28  O   UNL     1      46.945  17.888  22.496  0.00  0.00    -0.483 OA
ATOM     29  H   UNL     1      47.184  18.807  22.309  0.00  0.00    +0.389 HD
ENDBRANCH  27  28
BRANCH  31  32
ATOM     32  O   UNL     1      51.328  16.050  22.492  0.00  0.00    -0.493 OA
ATOM     33  H   UNL     1      51.794  16.888  22.364  0.00  0.00    +0.396 HD
ENDBRANCH  31  32
BRANCH  48  49
ATOM     49  O   UNL     1      46.541  16.047  18.219  0.00  0.00    -0.512 OA
ATOM     50  H   UNL     1      47.506  15.975  18.209  0.00  0.00    +0.368 HD
ENDBRANCH  48  49
ENDBRANCH  24  25
BRANCH  11  10
ATOM      1  C   UNL     1      50.786  18.617  19.765  0.00  0.00    +0.043 A 
ATOM      2  C   UNL     1      52.094  18.169  19.784  0.00  0.00    +0.002 A 
ATOM      3  C   UNL     1      52.591  17.439  18.715  0.00  0.00    +0.088 A 
ATOM      6  C   UNL     1      51.768  17.149  17.631  0.00  0.00    +0.081 A 
ATOM      9  C   UNL     1      50.457  17.597  17.622  0.00  0.00    +0.036 A 
ATOM     10  C   UNL     1      49.969  18.329  18.688  0.00  0.00    -0.071 A 
BRANCH   3   4
ATOM      4  O   UNL     1      53.879  17.002  18.730  0.00  0.00    -0.493 OA
ATOM      5  H   UNL     1      54.534  17.710  18.678  0.00  0.00    +0.395 HD
ENDBRANCH   3   4
BRANCH   6   7
ATOM      7  O   UNL     1      52.249  16.428  16.584  0.00  0.00    -0.491 OA
ATOM      8  H   UNL     1      52.375  15.489  16.776  0.00  0.00    +0.393 HD
ENDBRANCH   6   7
ENDBRANCH  11  10
BRANCH  12  13
ATOM     13  O   UNL     1      49.351  21.083  18.407  0.00  0.00    -0.551 OA
ATOM     14  H   UNL     1      50.084  21.469  18.907  0.00  0.00    +0.387 HD
ENDBRANCH  12  13
BRANCH  17  18
ATOM     18  O   UNL     1      44.417  21.412  19.758  0.00  0.00    -0.494 OA
ATOM     19  H   UNL     1      45.112  22.062  19.927  0.00  0.00    +0.393 HD
ENDBRANCH  17  18
BRANCH  21  22
ATOM     22  O   UNL     1      43.425  16.991  21.195  0.00  0.00    -0.457 OA
ATOM     23  H   UNL     1      43.652  16.071  21.004  0.00  0.00    +0.377 HD
ENDBRANCH  21  22
TORSDOF 13
ENDMDL
MODEL 5
REMARK VINA RESULT:      -6.4      1.609      5.127
REMARK  Name = ZINC05085289
REMARK  13 active torsions:
REMARK  status: ('A' for Active; 'I' for Inactive)
REMARK    1  A    between atoms: C3_3  and  O12_47
REMARK    2  A    between atoms: C4_4  and  O11_46
REMARK    3  A    between atoms: C6_6  and  C7_7
REMARK    4  A    between atoms: C8_9  and  O10_45
REMARK    5  A    between atoms: C11_13  and  O9_44
REMARK    6  A    between atoms: C13_15  and  O8_43
REMARK    7  A    between atoms: C14_16  and  C16_19
REMARK    8  A    between atoms: C18_22  and  O7_42
REMARK    9  A    between atoms: C20_24  and  O6_41
REMARK   10  A    between atoms: C23_28  and  C25_33
REMARK   11  A    between atoms: C24_30  and  O3_32
REMARK   12  A    between atoms: C28_36  and  O5_40
REMARK   13  A    between atoms: C29_37  and  O4_39
REMARK                            x       y       z     vdW  Elec       q    Type
REMARK                         _______ _______ _______ _____ _____    ______ ____
ROOT
ATOM     11  C   UNL     1      43.679  18.456  20.165  0.00  0.00    +0.238 C 
ATOM     12  C   UNL     1      43.238  18.104  21.592  0.00  0.00    +0.154 C 
ATOM     15  C   UNL     1      43.352  16.587  21.769  0.00  0.00    +0.073 C 
ATOM     16  C   UNL     1      44.697  16.118  21.274  0.00  0.00    -0.196 A 
ATOM     17  C   UNL     1      45.156  14.868  21.673  0.00  0.00    +0.158 A 
ATOM     20  C   UNL     1      46.385  14.402  21.234  0.00  0.00    -0.069 A 
ATOM     21  C   UNL     1      47.160  15.187  20.393  0.00  0.00    +0.202 A 
ATOM     24  C   UNL     1      46.704  16.433  19.996  0.00  0.00    -0.108 A 
ATOM     51  C   UNL     1      45.471  16.902  20.438  0.00  0.00    +0.163 A 
ATOM     52  O   UNL     1      45.063  18.132  20.028  0.00  0.00    -0.299 OA
ENDROOT
BRANCH  24  25
ATOM     25  C   UNL     1      47.547  17.284  19.082  0.00  0.00    +0.133 C 
ATOM     26  C   UNL     1      48.345  16.395  18.161  0.00  0.00    -0.178 A 
ATOM     27  C   UNL     1      47.719  15.289  17.595  0.00  0.00    +0.155 A 
ATOM     30  C   UNL     1      48.421  14.452  16.743  0.00  0.00    -0.068 A 
ATOM     31  C   UNL     1      49.750  14.718  16.453  0.00  0.00    +0.157 A 
ATOM     34  C   UNL     1      50.373  15.819  17.018  0.00  0.00    -0.046 A 
ATOM     35  C   UNL     1      49.671  16.659  17.875  0.00  0.00    +0.182 A 
ATOM     36  O   UNL     1      50.321  17.725  18.411  0.00  0.00    -0.291 OA
ATOM     37  C   UNL     1      49.532  18.772  18.978  0.00  0.00    +0.196 C 
ATOM     48  C   UNL     1      48.497  18.143  19.919  0.00  0.00    +0.161 C 
BRANCH  37  38
ATOM     38  C   UNL     1      50.419  19.713  19.753  0.00  0.00    -0.086 A 
ATOM     39  C   UNL     1      50.124  20.012  21.070  0.00  0.00    +0.055 A 
ATOM     40  C   UNL     1      50.933  20.875  21.785  0.00  0.00    +0.011 A 
ATOM     41  C   UNL     1      52.045  21.442  21.181  0.00  0.00    +0.090 A 
ATOM     44  C   UNL     1      52.342  21.140  19.856  0.00  0.00    +0.083 A 
ATOM     47  C   UNL     1      51.529  20.271  19.146  0.00  0.00    +0.021 A 
BRANCH  41  42
ATOM     42  O   UNL     1      52.841  22.291  21.882  0.00  0.00    -0.487 OA
ATOM     43  H   UNL     1      53.550  21.851  22.373  0.00  0.00    +0.390 HD
ENDBRANCH  41  42
BRANCH  44  45
ATOM     45  O   UNL     1      53.432  21.694  19.259  0.00  0.00    -0.486 OA
ATOM     46  H   UNL     1      53.291  21.939  18.334  0.00  0.00    +0.390 HD
ENDBRANCH  44  45
ENDBRANCH  37  38
BRANCH  27  28
ATOM     28  O   UNL     1      46.417  15.028  17.880  0.00  0.00    -0.483 OA
ATOM     29  H   UNL     1      46.121  15.385  18.729  0.00  0.00    +0.389 HD
ENDBRANCH  27  28
BRANCH  31  32
ATOM     32  O   UNL     1      50.441  13.900  15.616  0.00  0.00    -0.493 OA
ATOM     33  H   UNL     1      51.046  14.366  15.022  0.00  0.00    +0.396 HD
ENDBRANCH  31  32
BRANCH  48  49
ATOM     49  O   UNL     1      49.159  17.327  20.887  0.00  0.00    -0.512 OA
ATOM     50  H   UNL     1      49.083  17.652  21.795  0.00  0.00    +0.368 HD
ENDBRANCH  48  49
ENDBRANCH  24  25
BRANCH  11  10
ATOM      1  C   UNL     1      44.406  20.839  20.381  0.00  0.00    +0.043 A 
ATOM      2  C   UNL     1      44.228  22.191  20.155  0.00  0.00    +0.002 A 
ATOM      3  C   UNL     1      43.106  22.637  19.473  0.00  0.00    +0.088 A 
ATOM      6  C   UNL     1      42.169  21.720  19.008  0.00  0.00    +0.081 A 
ATOM      9  C   UNL     1      42.357  20.366  19.235  0.00  0.00    +0.036 A 
ATOM     10  C   UNL     1      43.475  19.929  19.920  0.00  0.00    -0.071 A 
BRANCH   3   4
ATOM      4  O   UNL     1      42.927  23.967  19.254  0.00  0.00    -0.493 OA
ATOM      5  H   UNL     1      43.591  24.528  19.678  0.00  0.00    +0.395 HD
ENDBRANCH   3   4
BRANCH   6   7
ATOM      7  O   UNL     1      41.070  22.152  18.334  0.00  0.00    -0.491 OA
ATOM      8  H   UNL     1      41.201  22.983  17.858  0.00  0.00    +0.393 HD
ENDBRANCH   6   7
ENDBRANCH  11  10
BRANCH  12  13
ATOM     13  O   UNL     1      41.883  18.511  21.792  0.00  0.00    -0.551 OA
ATOM     14  H   UNL     1      41.723  19.447  21.604  0.00  0.00    +0.387 HD
ENDBRANCH  12  13
BRANCH  17  18
ATOM     18  O   UNL     1      44.397  14.099  22.497  0.00  0.00    -0.494 OA
ATOM     19  H   UNL     1      43.681  14.580  22.935  0.00  0.00    +0.393 HD
ENDBRANCH  17  18
BRANCH  21  22
ATOM     22  O   UNL     1      48.365  14.734  19.958  0.00  0.00    -0.457 OA
ATOM     23  H   UNL     1      48.308  13.965  19.375  0.00  0.00    +0.377 HD
ENDBRANCH  21  22
TORSDOF 13
ENDMDL
MODEL 6
REMARK VINA RESULT:      -6.3      2.715      7.750
REMARK  Name = ZINC05085289
REMARK  13 active torsions:
REMARK  status: ('A' for Active; 'I' for Inactive)
REMARK    1  A    between atoms: C3_3  and  O12_47
REMARK    2  A    between atoms: C4_4  and  O11_46
REMARK    3  A    between atoms: C6_6  and  C7_7
REMARK    4  A    between atoms: C8_9  and  O10_45
REMARK    5  A    between atoms: C11_13  and  O9_44
REMARK    6  A    between atoms: C13_15  and  O8_43
REMARK    7  A    between atoms: C14_16  and  C16_19
REMARK    8  A    between atoms: C18_22  and  O7_42
REMARK    9  A    between atoms: C20_24  and  O6_41
REMARK   10  A    between atoms: C23_28  and  C25_33
REMARK   11  A    between atoms: C24_30  and  O3_32
REMARK   12  A    between atoms: C28_36  and  O5_40
REMARK   13  A    between atoms: C29_37  and  O4_39
REMARK                            x       y       z     vdW  Elec       q    Type
REMARK                         _______ _______ _______ _____ _____    ______ ____
ROOT
ATOM     11  C   UNL     1      52.036  17.162  20.635  0.00  0.00    +0.238 C 
ATOM     12  C   UNL     1      53.474  16.634  20.539  0.00  0.00    +0.154 C 
ATOM     15  C   UNL     1      53.414  15.122  20.305  0.00  0.00    +0.073 C 
ATOM     16  C   UNL     1      52.439  14.818  19.195  0.00  0.00    -0.196 A 
ATOM     17  C   UNL     1      52.502  13.577  18.572  0.00  0.00    +0.158 A 
ATOM     20  C   UNL     1      51.619  13.261  17.552  0.00  0.00    -0.069 A 
ATOM     21  C   UNL     1      50.668  14.187  17.151  0.00  0.00    +0.202 A 
ATOM     24  C   UNL     1      50.605  15.425  17.770  0.00  0.00    -0.108 A 
ATOM     51  C   UNL     1      51.493  15.743  18.794  0.00  0.00    +0.163 A 
ATOM     52  O   UNL     1      51.399  16.970  19.371  0.00  0.00    -0.299 OA
ENDROOT
BRANCH  24  25
ATOM     25  C   UNL     1      49.571  16.431  17.334  0.00  0.00    +0.133 C 
ATOM     26  C   UNL     1      50.217  17.786  17.194  0.00  0.00    -0.178 A 
ATOM     27  C   UNL     1      51.470  17.869  16.595  0.00  0.00    +0.155 A 
ATOM     30  C   UNL     1      52.091  19.099  16.447  0.00  0.00    -0.068 A 
ATOM     31  C   UNL     1      51.462  20.249  16.897  0.00  0.00    +0.157 A 
ATOM     34  C   UNL     1      50.215  20.166  17.494  0.00  0.00    -0.046 A 
ATOM     35  C   UNL     1      49.591  18.933  17.645  0.00  0.00    +0.182 A 
ATOM     36  O   UNL     1      48.370  18.895  18.241  0.00  0.00    -0.291 OA
ATOM     37  C   UNL     1      47.579  17.718  18.069  0.00  0.00    +0.196 C 
ATOM     48  C   UNL     1      48.455  16.497  18.379  0.00  0.00    +0.161 C 
BRANCH  37  38
ATOM     38  C   UNL     1      46.404  17.754  19.013  0.00  0.00    -0.086 A 
ATOM     39  C   UNL     1      45.792  16.576  19.397  0.00  0.00    +0.055 A 
ATOM     40  C   UNL     1      44.714  16.603  20.262  0.00  0.00    +0.011 A 
ATOM     41  C   UNL     1      44.245  17.814  20.747  0.00  0.00    +0.090 A 
ATOM     44  C   UNL     1      44.862  19.000  20.360  0.00  0.00    +0.083 A 
ATOM     47  C   UNL     1      45.945  18.965  19.497  0.00  0.00    +0.021 A 
BRANCH  41  42
ATOM     42  O   UNL     1      43.185  17.843  21.596  0.00  0.00    -0.487 OA
ATOM     43  H   UNL     1      42.859  16.967  21.849  0.00  0.00    +0.390 HD
ENDBRANCH  41  42
BRANCH  44  45
ATOM     45  O   UNL     1      44.406  20.191  20.833  0.00  0.00    -0.486 OA
ATOM     46  H   UNL     1      43.528  20.433  20.506  0.00  0.00    +0.390 HD
ENDBRANCH  44  45
ENDBRANCH  37  38
BRANCH  27  28
ATOM     28  O   UNL     1      52.086  16.741  16.155  0.00  0.00    -0.483 OA
ATOM     29  H   UNL     1      52.754  16.899  15.473  0.00  0.00    +0.389 HD
ENDBRANCH  27  28
BRANCH  31  32
ATOM     32  O   UNL     1      52.069  21.457  16.752  0.00  0.00    -0.493 OA
ATOM     33  H   UNL     1      53.005  21.400  16.515  0.00  0.00    +0.396 HD
ENDBRANCH  31  32
BRANCH  48  49
ATOM     49  O   UNL     1      49.022  16.630  19.683  0.00  0.00    -0.512 OA
ATOM     50  H   UNL     1      48.975  17.526  20.044  0.00  0.00    +0.368 HD
ENDBRANCH  48  49
ENDBRANCH  24  25
BRANCH  11  10
ATOM      1  C   UNL     1      51.550  19.066  22.184  0.00  0.00    +0.043 A 
ATOM      2  C   UNL     1      51.573  20.411  22.504  0.00  0.00    +0.002 A 
ATOM      3  C   UNL     1      52.095  21.327  21.604  0.00  0.00    +0.088 A 
ATOM      6  C   UNL     1      52.606  20.889  20.386  0.00  0.00    +0.081 A 
ATOM      9  C   UNL     1      52.585  19.538  20.076  0.00  0.00    +0.036 A 
ATOM     10  C   UNL     1      52.057  18.630  20.975  0.00  0.00    -0.071 A 
BRANCH   3   4
ATOM      4  O   UNL     1      52.113  22.651  21.914  0.00  0.00    -0.493 OA
ATOM      5  H   UNL     1      51.240  23.023  22.100  0.00  0.00    +0.395 HD
ENDBRANCH   3   4
BRANCH   6   7
ATOM      7  O   UNL     1      53.124  21.783  19.503  0.00  0.00    -0.491 OA
ATOM      8  H   UNL     1      52.465  22.356  19.089  0.00  0.00    +0.393 HD
ENDBRANCH   6   7
ENDBRANCH  11  10
BRANCH  12  13
ATOM     13  O   UNL     1      54.169  16.905  21.757  0.00  0.00    -0.551 OA
ATOM     14  H   UNL     1      54.658  17.740  21.752  0.00  0.00    +0.387 HD
ENDBRANCH  12  13
BRANCH  17  18
ATOM     18  O   UNL     1      53.434  12.669  18.965  0.00  0.00    -0.494 OA
ATOM     19  H   UNL     1      53.506  11.901  18.382  0.00  0.00    +0.393 HD
ENDBRANCH  17  18
BRANCH  21  22
ATOM     22  O   UNL     1      49.798  13.882  16.153  0.00  0.00    -0.457 OA
ATOM     23  H   UNL     1      49.321  13.052  16.288  0.00  0.00    +0.377 HD
ENDBRANCH  21  22
TORSDOF 13
ENDMDL
MODEL 7
REMARK VINA RESULT:      -6.1      2.141      7.106
REMARK  Name = ZINC05085289
REMARK  13 active torsions:
REMARK  status: ('A' for Active; 'I' for Inactive)
REMARK    1  A    between atoms: C3_3  and  O12_47
REMARK    2  A    between atoms: C4_4  and  O11_46
REMARK    3  A    between atoms: C6_6  and  C7_7
REMARK    4  A    between atoms: C8_9  and  O10_45
REMARK    5  A    between atoms: C11_13  and  O9_44
REMARK    6  A    between atoms: C13_15  and  O8_43
REMARK    7  A    between atoms: C14_16  and  C16_19
REMARK    8  A    between atoms: C18_22  and  O7_42
REMARK    9  A    between atoms: C20_24  and  O6_41
REMARK   10  A    between atoms: C23_28  and  C25_33
REMARK   11  A    between atoms: C24_30  and  O3_32
REMARK   12  A    between atoms: C28_36  and  O5_40
REMARK   13  A    between atoms: C29_37  and  O4_39
REMARK                            x       y       z     vdW  Elec       q    Type
REMARK                         _______ _______ _______ _____ _____    ______ ____
ROOT
ATOM     11  C   UNL     1      50.953  16.905  21.132  0.00  0.00    +0.238 C 
ATOM     12  C   UNL     1      52.136  16.004  21.513  0.00  0.00    +0.154 C 
ATOM     15  C   UNL     1      51.578  14.694  22.077  0.00  0.00    +0.073 C 
ATOM     16  C   UNL     1      50.509  14.160  21.157  0.00  0.00    -0.196 A 
ATOM     17  C   UNL     1      50.139  12.825  21.269  0.00  0.00    +0.158 A 
ATOM     20  C   UNL     1      49.157  12.301  20.444  0.00  0.00    -0.069 A 
ATOM     21  C   UNL     1      48.541  13.112  19.502  0.00  0.00    +0.202 A 
ATOM     24  C   UNL     1      48.911  14.442  19.389  0.00  0.00    -0.108 A 
ATOM     51  C   UNL     1      49.898  14.969  20.216  0.00  0.00    +0.163 A 
ATOM     52  O   UNL     1      50.233  16.278  20.070  0.00  0.00    -0.299 OA
ENDROOT
BRANCH  24  25
ATOM     25  C   UNL     1      48.240  15.323  18.366  0.00  0.00    +0.133 C 
ATOM     26  C   UNL     1      49.284  16.140  17.647  0.00  0.00    -0.178 A 
ATOM     27  C   UNL     1      50.470  15.521  17.266  0.00  0.00    +0.155 A 
ATOM     30  C   UNL     1      51.449  16.241  16.600  0.00  0.00    -0.068 A 
ATOM     31  C   UNL     1      51.246  17.581  16.313  0.00  0.00    +0.157 A 
ATOM     34  C   UNL     1      50.065  18.198  16.693  0.00  0.00    -0.046 A 
ATOM     35  C   UNL     1      49.082  17.478  17.362  0.00  0.00    +0.182 A 
ATOM     36  O   UNL     1      47.941  18.122  17.721  0.00  0.00    -0.291 OA
ATOM     37  C   UNL     1      46.805  17.327  18.066  0.00  0.00    +0.196 C 
ATOM     48  C   UNL     1      47.251  16.255  19.069  0.00  0.00    +0.161 C 
BRANCH  37  38
ATOM     38  C   UNL     1      45.745  18.199  18.690  0.00  0.00    -0.086 A 
ATOM     39  C   UNL     1      44.781  17.636  19.505  0.00  0.00    +0.055 A 
ATOM     40  C   UNL     1      43.807  18.431  20.080  0.00  0.00    +0.011 A 
ATOM     41  C   UNL     1      43.797  19.796  19.839  0.00  0.00    +0.090 A 
ATOM     44  C   UNL     1      44.768  20.362  19.020  0.00  0.00    +0.083 A 
ATOM     47  C   UNL     1      45.744  19.560  18.451  0.00  0.00    +0.021 A 
BRANCH  41  42
ATOM     42  O   UNL     1      42.839  20.579  20.403  0.00  0.00    -0.487 OA
ATOM     43  H   UNL     1      42.862  21.501  20.110  0.00  0.00    +0.390 HD
ENDBRANCH  41  42
BRANCH  44  45
ATOM     45  O   UNL     1      44.762  21.701  18.780  0.00  0.00    -0.486 OA
ATOM     46  H   UNL     1      44.137  22.195  19.329  0.00  0.00    +0.390 HD
ENDBRANCH  44  45
ENDBRANCH  37  38
BRANCH  27  28
ATOM     28  O   UNL     1      50.669  14.207  17.548  0.00  0.00    -0.483 OA
ATOM     29  H   UNL     1      51.553  13.886  17.323  0.00  0.00    +0.389 HD
ENDBRANCH  27  28
BRANCH  31  32
ATOM     32  O   UNL     1      52.204  18.290  15.659  0.00  0.00    -0.493 OA
ATOM     33  H   UNL     1      52.338  19.183  16.006  0.00  0.00    +0.396 HD
ENDBRANCH  31  32
BRANCH  48  49
ATOM     49  O   UNL     1      47.884  16.877  20.188  0.00  0.00    -0.512 OA
ATOM     50  H   UNL     1      48.484  16.295  20.674  0.00  0.00    +0.368 HD
ENDBRANCH  48  49
ENDBRANCH  24  25
BRANCH  11  10
ATOM      1  C   UNL     1      52.190  18.346  19.503  0.00  0.00    +0.043 A 
ATOM      2  C   UNL     1      52.657  19.575  19.076  0.00  0.00    +0.002 A 
ATOM      3  C   UNL     1      52.407  20.711  19.831  0.00  0.00    +0.088 A 
ATOM      6  C   UNL     1      51.676  20.612  21.011  0.00  0.00    +0.081 A 
ATOM      9  C   UNL     1      51.207  19.377  21.429  0.00  0.00    +0.036 A 
ATOM     10  C   UNL     1      51.465  18.247  20.675  0.00  0.00    -0.071 A 
BRANCH   3   4
ATOM      4  O   UNL     1      52.870  21.920  19.414  0.00  0.00    -0.493 OA
ATOM      5  H   UNL     1      53.022  21.975  18.461  0.00  0.00    +0.395 HD
ENDBRANCH   3   4
BRANCH   6   7
ATOM      7  O   UNL     1      51.424  21.723  21.751  0.00  0.00    -0.491 OA
ATOM      8  H   UNL     1      52.053  21.870  22.470  0.00  0.00    +0.393 HD
ENDBRANCH   6   7
ENDBRANCH  11  10
BRANCH  12  13
ATOM     13  O   UNL     1      52.935  16.654  22.504  0.00  0.00    -0.551 OA
ATOM     14  H   UNL     1      53.557  17.301  22.144  0.00  0.00    +0.387 HD
ENDBRANCH  12  13
BRANCH  17  18
ATOM     18  O   UNL     1      50.742  12.030  22.191  0.00  0.00    -0.494 OA
ATOM     19  H   UNL     1      50.389  11.131  22.227  0.00  0.00    +0.393 HD
ENDBRANCH  17  18
BRANCH  21  22
ATOM     22  O   UNL     1      47.576  12.604  18.693  0.00  0.00    -0.457 OA
ATOM     23  H   UNL     1      47.686  11.665  18.490  0.00  0.00    +0.377 HD
ENDBRANCH  21  22
TORSDOF 13
ENDMDL
MODEL 8
REMARK VINA RESULT:      -6.0      4.115      8.076
REMARK  Name = ZINC05085289
REMARK  13 active torsions:
REMARK  status: ('A' for Active; 'I' for Inactive)
REMARK    1  A    between atoms: C3_3  and  O12_47
REMARK    2  A    between atoms: C4_4  and  O11_46
REMARK    3  A    between atoms: C6_6  and  C7_7
REMARK    4  A    between atoms: C8_9  and  O10_45
REMARK    5  A    between atoms: C11_13  and  O9_44
REMARK    6  A    between atoms: C13_15  and  O8_43
REMARK    7  A    between atoms: C14_16  and  C16_19
REMARK    8  A    between atoms: C18_22  and  O7_42
REMARK    9  A    between atoms: C20_24  and  O6_41
REMARK   10  A    between atoms: C23_28  and  C25_33
REMARK   11  A    between atoms: C24_30  and  O3_32
REMARK   12  A    between atoms: C28_36  and  O5_40
REMARK   13  A    between atoms: C29_37  and  O4_39
REMARK                            x       y       z     vdW  Elec       q    Type
REMARK                         _______ _______ _______ _____ _____    ______ ____
ROOT
ATOM     11  C   UNL     1      49.724  15.739  19.072  0.00  0.00    +0.238 C 
ATOM     12  C   UNL     1      48.956  16.091  20.353  0.00  0.00    +0.154 C 
ATOM     15  C   UNL     1      47.458  16.046  20.041  0.00  0.00    +0.073 C 
ATOM     16  C   UNL     1      47.129  14.769  19.309  0.00  0.00    -0.196 A 
ATOM     17  C   UNL     1      45.805  14.349  19.260  0.00  0.00    +0.158 A 
ATOM     20  C   UNL     1      45.465  13.183  18.594  0.00  0.00    -0.069 A 
ATOM     21  C   UNL     1      46.452  12.431  17.973  0.00  0.00    +0.202 A 
ATOM     24  C   UNL     1      47.771  12.847  18.022  0.00  0.00    -0.108 A 
ATOM     51  C   UNL     1      48.114  14.017  18.693  0.00  0.00    +0.163 A 
ATOM     52  O   UNL     1      49.421  14.388  18.721  0.00  0.00    -0.299 OA
ENDROOT
BRANCH  24  25
ATOM     25  C   UNL     1      48.843  12.029  17.347  0.00  0.00    +0.133 C 
ATOM     26  C   UNL     1      50.026  11.890  18.271  0.00  0.00    -0.178 A 
ATOM     27  C   UNL     1      49.794  11.636  19.618  0.00  0.00    +0.155 A 
ATOM     30  C   UNL     1      50.857  11.499  20.495  0.00  0.00    -0.068 A 
ATOM     31  C   UNL     1      52.157  11.616  20.028  0.00  0.00    +0.157 A 
ATOM     34  C   UNL     1      52.388  11.871  18.686  0.00  0.00    -0.046 A 
ATOM     35  C   UNL     1      51.322  12.010  17.805  0.00  0.00    +0.182 A 
ATOM     36  O   UNL     1      51.593  12.265  16.498  0.00  0.00    -0.291 OA
ATOM     37  C   UNL     1      50.552  12.045  15.545  0.00  0.00    +0.196 C 
ATOM     48  C   UNL     1      49.276  12.728  16.056  0.00  0.00    +0.161 C 
BRANCH  37  38
ATOM     38  C   UNL     1      50.947  12.635  14.216  0.00  0.00    -0.086 A 
ATOM     39  C   UNL     1      52.044  13.471  14.130  0.00  0.00    +0.055 A 
ATOM     40  C   UNL     1      52.410  14.016  12.914  0.00  0.00    +0.011 A 
ATOM     41  C   UNL     1      51.676  13.722  11.775  0.00  0.00    +0.090 A 
ATOM     44  C   UNL     1      50.573  12.879  11.861  0.00  0.00    +0.083 A 
ATOM     47  C   UNL     1      50.214  12.333  13.083  0.00  0.00    +0.021 A 
BRANCH  41  42
ATOM     42  O   UNL     1      52.035  14.256  10.578  0.00  0.00    -0.487 OA
ATOM     43  H   UNL     1      51.576  15.081  10.362  0.00  0.00    +0.390 HD
ENDBRANCH  41  42
BRANCH  44  45
ATOM     45  O   UNL     1      49.850  12.588  10.746  0.00  0.00    -0.486 OA
ATOM     46  H   UNL     1      50.020  11.707  10.386  0.00  0.00    +0.390 HD
ENDBRANCH  44  45
ENDBRANCH  37  38
BRANCH  27  28
ATOM     28  O   UNL     1      48.519  11.521  20.076  0.00  0.00    -0.483 OA
ATOM     29  H   UNL     1      48.002  10.835  19.631  0.00  0.00    +0.389 HD
ENDBRANCH  27  28
BRANCH  31  32
ATOM     32  O   UNL     1      53.203  11.481  20.886  0.00  0.00    -0.493 OA
ATOM     33  H   UNL     1      53.329  10.580  21.213  0.00  0.00    +0.396 HD
ENDBRANCH  31  32
BRANCH  48  49
ATOM     49  O   UNL     1      49.540  14.107  16.318  0.00  0.00    -0.512 OA
ATOM     50  H   UNL     1      49.802  14.614  15.537  0.00  0.00    +0.368 HD
ENDBRANCH  48  49
ENDBRANCH  24  25
BRANCH  11  10
ATOM      1  C   UNL     1      51.939  16.798  18.587  0.00  0.00    +0.043 A 
ATOM      2  C   UNL     1      53.296  16.936  18.809  0.00  0.00    +0.002 A 
ATOM      3  C   UNL     1      53.926  16.143  19.755  0.00  0.00    +0.088 A 
ATOM      6  C   UNL     1      53.189  15.219  20.488  0.00  0.00    +0.081 A 
ATOM      9  C   UNL     1      51.827  15.091  20.264  0.00  0.00    +0.036 A 
ATOM     10  C   UNL     1      51.205  15.880  19.314  0.00  0.00    -0.071 A 
BRANCH   3   4
ATOM      4  O   UNL     1      55.263  16.274  19.971  0.00  0.00    -0.493 OA
ATOM      5  H   UNL     1      55.664  15.517  20.419  0.00  0.00    +0.395 HD
ENDBRANCH   3   4
BRANCH   6   7
ATOM      7  O   UNL     1      53.801  14.444  21.422  0.00  0.00    -0.491 OA
ATOM      8  H   UNL     1      54.304  14.943  22.080  0.00  0.00    +0.393 HD
ENDBRANCH   6   7
ENDBRANCH  11  10
BRANCH  12  13
ATOM     13  O   UNL     1      49.319  17.403  20.786  0.00  0.00    -0.551 OA
ATOM     14  H   UNL     1      48.575  18.019  20.840  0.00  0.00    +0.387 HD
ENDBRANCH  12  13
BRANCH  17  18
ATOM     18  O   UNL     1      44.839  15.086  19.868  0.00  0.00    -0.494 OA
ATOM     19  H   UNL     1      45.096  15.436  20.733  0.00  0.00    +0.393 HD
ENDBRANCH  17  18
BRANCH  21  22
ATOM     22  O   UNL     1      46.124  11.288  17.315  0.00  0.00    -0.457 OA
ATOM     23  H   UNL     1      46.809  10.972  16.711  0.00  0.00    +0.377 HD
ENDBRANCH  21  22
TORSDOF 13
ENDMDL
MODEL 9
REMARK VINA RESULT:      -5.9      2.572      4.521
REMARK  Name = ZINC05085289
REMARK  13 active torsions:
REMARK  status: ('A' for Active; 'I' for Inactive)
REMARK    1  A    between atoms: C3_3  and  O12_47
REMARK    2  A    between atoms: C4_4  and  O11_46
REMARK    3  A    between atoms: C6_6  and  C7_7
REMARK    4  A    between atoms: C8_9  and  O10_45
REMARK    5  A    between atoms: C11_13  and  O9_44
REMARK    6  A    between atoms: C13_15  and  O8_43
REMARK    7  A    between atoms: C14_16  and  C16_19
REMARK    8  A    between atoms: C18_22  and  O7_42
REMARK    9  A    between atoms: C20_24  and  O6_41
REMARK   10  A    between atoms: C23_28  and  C25_33
REMARK   11  A    between atoms: C24_30  and  O3_32
REMARK   12  A    between atoms: C28_36  and  O5_40
REMARK   13  A    between atoms: C29_37  and  O4_39
REMARK                            x       y       z     vdW  Elec       q    Type
REMARK                         _______ _______ _______ _____ _____    ______ ____
ROOT
ATOM     11  C   UNL     1      49.364  13.262  20.541  0.00  0.00    +0.238 C 
ATOM     12  C   UNL     1      48.429  12.169  21.077  0.00  0.00    +0.154 C 
ATOM     15  C   UNL     1      47.315  12.844  21.882  0.00  0.00    +0.073 C 
ATOM     16  C   UNL     1      46.736  13.988  21.089  0.00  0.00    -0.196 A 
ATOM     17  C   UNL     1      45.493  14.492  21.454  0.00  0.00    +0.158 A 
ATOM     20  C   UNL     1      44.932  15.545  20.750  0.00  0.00    -0.069 A 
ATOM     21  C   UNL     1      45.613  16.099  19.677  0.00  0.00    +0.202 A 
ATOM     24  C   UNL     1      46.851  15.597  19.312  0.00  0.00    -0.108 A 
ATOM     51  C   UNL     1      47.415  14.538  20.017  0.00  0.00    +0.163 A 
ATOM     52  O   UNL     1      48.629  14.073  19.622  0.00  0.00    -0.299 OA
ENDROOT
BRANCH  24  25
ATOM     25  C   UNL     1      47.591  16.200  18.145  0.00  0.00    +0.133 C 
ATOM     26  C   UNL     1      48.267  15.105  17.359  0.00  0.00    -0.178 A 
ATOM     27  C   UNL     1      47.567  13.927  17.121  0.00  0.00    +0.155 A 
ATOM     30  C   UNL     1      48.156  12.901  16.399  0.00  0.00    -0.068 A 
ATOM     31  C   UNL     1      49.445  13.050  15.912  0.00  0.00    +0.157 A 
ATOM     34  C   UNL     1      50.142  14.223  16.151  0.00  0.00    -0.046 A 
ATOM     35  C   UNL     1      49.554  15.253  16.876  0.00  0.00    +0.182 A 
ATOM     36  O   UNL     1      50.274  16.385  17.092  0.00  0.00    -0.291 OA
ATOM     37  C   UNL     1      49.568  17.558  17.500  0.00  0.00    +0.196 C 
ATOM     48  C   UNL     1      48.642  17.185  18.665  0.00  0.00    +0.161 C 
BRANCH  37  38
ATOM     38  C   UNL     1      50.549  18.611  17.948  0.00  0.00    -0.086 A 
ATOM     39  C   UNL     1      51.729  18.795  17.253  0.00  0.00    +0.055 A 
ATOM     40  C   UNL     1      52.633  19.759  17.660  0.00  0.00    +0.011 A 
ATOM     41  C   UNL     1      52.354  20.544  18.768  0.00  0.00    +0.090 A 
ATOM     44  C   UNL     1      51.166  20.359  19.467  0.00  0.00    +0.083 A 
ATOM     47  C   UNL     1      50.263  19.395  19.050  0.00  0.00    +0.021 A 
BRANCH  41  42
ATOM     42  O   UNL     1      53.242  21.492  19.170  0.00  0.00    -0.487 OA
ATOM     43  H   UNL     1      53.614  22.016  18.447  0.00  0.00    +0.390 HD
ENDBRANCH  41  42
BRANCH  44  45
ATOM     45  O   UNL     1      50.889  21.127  20.555  0.00  0.00    -0.486 OA
ATOM     46  H   UNL     1      51.527  21.032  21.276  0.00  0.00    +0.390 HD
ENDBRANCH  44  45
ENDBRANCH  37  38
BRANCH  27  28
ATOM     28  O   UNL     1      46.304  13.781  17.598  0.00  0.00    -0.483 OA
ATOM     29  H   UNL     1      46.212  13.083  18.261  0.00  0.00    +0.389 HD
ENDBRANCH  27  28
BRANCH  31  32
ATOM     32  O   UNL     1      50.025  12.046  15.203  0.00  0.00    -0.493 OA
ATOM     33  H   UNL     1      50.493  11.398  15.749  0.00  0.00    +0.396 HD
ENDBRANCH  31  32
BRANCH  48  49
ATOM     49  O   UNL     1      49.403  16.573  19.708  0.00  0.00    -0.512 OA
ATOM     50  H   UNL     1      49.769  15.709  19.474  0.00  0.00    +0.368 HD
ENDBRANCH  48  49
ENDBRANCH  24  25
BRANCH  11  10
ATOM      1  C   UNL     1      50.335  11.524  19.027  0.00  0.00    +0.043 A 
ATOM      2  C   UNL     1      51.404  10.940  18.372  0.00  0.00    +0.002 A 
ATOM      3  C   UNL     1      52.680  11.456  18.534  0.00  0.00    +0.088 A 
ATOM      6  C   UNL     1      52.880  12.568  19.346  0.00  0.00    +0.081 A 
ATOM      9  C   UNL     1      51.803  13.150  19.995  0.00  0.00    +0.036 A 
ATOM     10  C   UNL     1      50.534  12.627  19.834  0.00  0.00    -0.071 A 
BRANCH   3   4
ATOM      4  O   UNL     1      53.733  10.881  17.893  0.00  0.00    -0.493 OA
ATOM      5  H   UNL     1      54.464  11.488  17.715  0.00  0.00    +0.395 HD
ENDBRANCH   3   4
BRANCH   6   7
ATOM      7  O   UNL     1      54.129  13.082  19.503  0.00  0.00    -0.491 OA
ATOM      8  H   UNL     1      54.496  13.479  18.701  0.00  0.00    +0.393 HD
ENDBRANCH   6   7
ENDBRANCH  11  10
BRANCH  12  13
ATOM     13  O   UNL     1      49.163  11.280  21.921  0.00  0.00    -0.551 OA
ATOM     14  H   UNL     1      48.781  11.171  22.803  0.00  0.00    +0.387 HD
ENDBRANCH  12  13
BRANCH  17  18
ATOM     18  O   UNL     1      44.825  13.949  22.505  0.00  0.00    -0.494 OA
ATOM     19  H   UNL     1      45.215  14.153  23.367  0.00  0.00    +0.393 HD
ENDBRANCH  17  18
BRANCH  21  22
ATOM     22  O   UNL     1      45.069  17.134  18.986  0.00  0.00    -0.457 OA
ATOM     23  H   UNL     1      45.533  17.973  19.103  0.00  0.00    +0.377 HD
ENDBRANCH  21  22
TORSDOF 13
ENDMDL
