MODEL 1
REMARK VINA RESULT:      -7.6      0.000      0.000
REMARK  Name = ZINC95486359
REMARK  18 active torsions:
REMARK  status: ('A' for Active; 'I' for Inactive)
REMARK    1  A    between atoms: C3_3  and  O17_53
REMARK    2  A    between atoms: C4_4  and  O11_36
REMARK    3  A    between atoms: C6_6  and  C7_7
REMARK    4  A    between atoms: C8_8  and  O10_35
REMARK    5  A    between atoms: C11_12  and  O9_34
REMARK    6  A    between atoms: C13_14  and  O3_18
REMARK    7  A    between atoms: O3_18  and  C16_19
REMARK    8  A    between atoms: C18_23  and  C21_31
REMARK    9  A    between atoms: C19_25  and  O6_30
REMARK   10  A    between atoms: C20_27  and  O5_29
REMARK   11  A    between atoms: C21_31  and  O7_32
REMARK   12  A    between atoms: C21_31  and  O8_33
REMARK   13  A    between atoms: O11_36  and  C22_37
REMARK   14  A    between atoms: C23_39  and  O16_52
REMARK   15  A    between atoms: C24_41  and  O15_51
REMARK   16  A    between atoms: C25_43  and  O14_50
REMARK   17  A    between atoms: C26_45  and  C27_48
REMARK   18  A    between atoms: C27_48  and  O13_49
REMARK                            x       y       z     vdW  Elec       q    Type
REMARK                         _______ _______ _______ _____ _____    ______ ____
ROOT
ATOM     25  C   UNL     1      47.808  16.250  18.883  0.00  0.00    +0.136 A 
ATOM     26  C   UNL     1      48.801  17.184  18.914  0.00  0.00    -0.038 A 
ATOM     29  C   UNL     1      49.967  16.987  18.130  0.00  0.00    +0.404 A 
ATOM     30  C   UNL     1      50.039  15.765  17.315  0.00  0.00    -0.289 A 
ATOM     31  C   UNL     1      51.154  15.490  16.513  0.00  0.00    +0.251 A 
ATOM     34  C   UNL     1      51.183  14.330  15.762  0.00  0.00    -0.122 A 
ATOM     35  C   UNL     1      50.112  13.443  15.804  0.00  0.00    +0.215 A 
ATOM     52  C   UNL     1      49.006  13.707  16.596  0.00  0.00    -0.033 A 
ATOM     53  C   UNL     1      48.958  14.866  17.357  0.00  0.00    +0.213 A 
ATOM     54  O   UNL     1      50.877  17.802  18.133  0.00  0.00    -0.452 OA
ATOM     55  O   UNL     1      47.890  15.135  18.137  0.00  0.00    -0.197 OA
ENDROOT
BRANCH  25  24
ATOM      1  C   UNL     1      46.352  15.655  20.810  0.00  0.00    +0.061 A 
ATOM      2  C   UNL     1      45.224  15.860  21.576  0.00  0.00    +0.033 A 
ATOM      3  C   UNL     1      44.334  16.873  21.248  0.00  0.00    +0.103 A 
ATOM      6  C   UNL     1      44.577  17.689  20.144  0.00  0.00    +0.095 A 
ATOM     23  C   UNL     1      45.706  17.489  19.372  0.00  0.00    +0.008 A 
ATOM     24  C   UNL     1      46.602  16.468  19.702  0.00  0.00    -0.022 A 
BRANCH   3   4
ATOM      4  O   UNL     1      43.223  17.071  22.005  0.00  0.00    -0.485 OA
ATOM      5  H   UNL     1      42.619  17.738  21.650  0.00  0.00    +0.392 HD
ENDBRANCH   3   4
BRANCH   6   7
ATOM      7  O   UNL     1      43.704  18.682  19.825  0.00  0.00    -0.285 OA
BRANCH   7   8
ATOM      8  C   UNL     1      44.216  20.014  19.805  0.00  0.00    +0.299 C 
ATOM      9  C   UNL     1      43.067  20.999  19.564  0.00  0.00    +0.150 C 
ATOM     12  C   UNL     1      43.614  22.428  19.603  0.00  0.00    +0.165 C 
ATOM     15  C   UNL     1      44.307  22.662  20.949  0.00  0.00    +0.172 C 
ATOM     18  C   UNL     1      45.407  21.614  21.137  0.00  0.00    +0.192 C 
ATOM     22  O   UNL     1      44.837  20.306  21.058  0.00  0.00    -0.372 OA
BRANCH   9  10
ATOM     10  O   UNL     1      42.482  20.745  18.286  0.00  0.00    -0.553 OA
ATOM     11  H   UNL     1      42.838  19.967  17.837  0.00  0.00    +0.397 HD
ENDBRANCH   9  10
BRANCH  12  13
ATOM     13  O   UNL     1      42.539  23.357  19.450  0.00  0.00    -0.553 OA
ATOM     14  H   UNL     1      42.216  23.725  20.284  0.00  0.00    +0.397 HD
ENDBRANCH  12  13
BRANCH  15  16
ATOM     16  O   UNL     1      44.883  23.970  20.970  0.00  0.00    -0.549 OA
ATOM     17  H   UNL     1      44.969  24.348  21.855  0.00  0.00    +0.396 HD
ENDBRANCH  15  16
BRANCH  18  19
ATOM     19  C   UNL     1      46.065  21.803  22.505  0.00  0.00    +0.227 C 
BRANCH  19  20
ATOM     20  O   UNL     1      46.982  22.896  22.446  0.00  0.00    -0.565 OA
ATOM     21  H   UNL     1      46.934  23.493  23.206  0.00  0.00    +0.385 HD
ENDBRANCH  19  20
ENDBRANCH  18  19
ENDBRANCH   7   8
ENDBRANCH   6   7
ENDBRANCH  25  24
BRANCH  26  27
ATOM     27  O   UNL     1      48.673  18.295  19.689  0.00  0.00    -0.448 OA
ATOM     28  H   UNL     1      49.258  19.022  19.433  0.00  0.00    +0.407 HD
ENDBRANCH  26  27
BRANCH  31  32
ATOM     32  O   UNL     1      52.197  16.357  16.472  0.00  0.00    -0.473 OA
ATOM     33  H   UNL     1      51.961  17.268  16.694  0.00  0.00    +0.405 HD
ENDBRANCH  31  32
BRANCH  35  36
ATOM     36  O   UNL     1      50.151  12.307  15.063  0.00  0.00    -0.290 OA
BRANCH  36  37
ATOM     37  C   UNL     1      50.885  12.356  13.837  0.00  0.00    +0.119 C 
ATOM     38  C   UNL     1      50.926  10.961  13.209  0.00  0.00    +0.225 C 
ATOM     39  O   UNL     1      51.610  11.025  11.956  0.00  0.00    -0.352 OA
ATOM     40  C   UNL     1      50.987  11.878  10.993  0.00  0.00    +0.138 C 
ATOM     46  C   UNL     1      50.949  13.310  11.533  0.00  0.00    +0.185 C 
ATOM     49  C   UNL     1      50.200  13.325  12.869  0.00  0.00    +0.202 C 
BRANCH  46  47
ATOM     47  O   UNL     1      50.276  14.155  10.597  0.00  0.00    -0.541 OA
ATOM     48  H   UNL     1      50.839  14.841  10.211  0.00  0.00    +0.381 HD
ENDBRANCH  46  47
BRANCH  49  50
ATOM     50  O   UNL     1      48.846  12.916  12.662  0.00  0.00    -0.544 OA
ATOM     51  H   UNL     1      48.591  12.131  13.164  0.00  0.00    +0.388 HD
ENDBRANCH  49  50
BRANCH  40  41
ATOM     41  C   UNL     1      51.787  11.845   9.689  0.00  0.00    +0.389 C 
BRANCH  41  42
ATOM     42  O   UNL     1      50.891  11.724   8.583  0.00  0.00    -0.572 OA
ATOM     43  H   UNL     1      49.965  11.608   8.838  0.00  0.00    +0.392 HD
ENDBRANCH  41  42
BRANCH  41  44
ATOM     44  O   UNL     1      52.678  10.728   9.705  0.00  0.00    -0.575 OA
ATOM     45  H   UNL     1      52.788  10.300   8.845  0.00  0.00    +0.390 HD
ENDBRANCH  41  44
ENDBRANCH  40  41
ENDBRANCH  36  37
ENDBRANCH  35  36
TORSDOF 18
ENDMDL
MODEL 2
REMARK VINA RESULT:      -7.3      2.461     10.712
REMARK  Name = ZINC95486359
REMARK  18 active torsions:
REMARK  status: ('A' for Active; 'I' for Inactive)
REMARK    1  A    between atoms: C3_3  and  O17_53
REMARK    2  A    between atoms: C4_4  and  O11_36
REMARK    3  A    between atoms: C6_6  and  C7_7
REMARK    4  A    between atoms: C8_8  and  O10_35
REMARK    5  A    between atoms: C11_12  and  O9_34
REMARK    6  A    between atoms: C13_14  and  O3_18
REMARK    7  A    between atoms: O3_18  and  C16_19
REMARK    8  A    between atoms: C18_23  and  C21_31
REMARK    9  A    between atoms: C19_25  and  O6_30
REMARK   10  A    between atoms: C20_27  and  O5_29
REMARK   11  A    between atoms: C21_31  and  O7_32
REMARK   12  A    between atoms: C21_31  and  O8_33
REMARK   13  A    between atoms: O11_36  and  C22_37
REMARK   14  A    between atoms: C23_39  and  O16_52
REMARK   15  A    between atoms: C24_41  and  O15_51
REMARK   16  A    between atoms: C25_43  and  O14_50
REMARK   17  A    between atoms: C26_45  and  C27_48
REMARK   18  A    between atoms: C27_48  and  O13_49
REMARK                            x       y       z     vdW  Elec       q    Type
REMARK                         _______ _______ _______ _____ _____    ______ ____
ROOT
ATOM     25  C   UNL     1      51.295  16.441  19.408  0.00  0.00    +0.136 A 
ATOM     26  C   UNL     1      52.103  17.372  18.824  0.00  0.00    -0.038 A 
ATOM     29  C   UNL     1      51.696  18.731  18.802  0.00  0.00    +0.404 A 
ATOM     30  C   UNL     1      50.403  19.063  19.421  0.00  0.00    -0.289 A 
ATOM     31  C   UNL     1      49.924  20.379  19.442  0.00  0.00    +0.251 A 
ATOM     34  C   UNL     1      48.704  20.649  20.033  0.00  0.00    -0.122 A 
ATOM     35  C   UNL     1      47.959  19.621  20.601  0.00  0.00    +0.215 A 
ATOM     52  C   UNL     1      48.426  18.317  20.583  0.00  0.00    -0.033 A 
ATOM     53  C   UNL     1      49.648  18.025  19.994  0.00  0.00    +0.213 A 
ATOM     54  O   UNL     1      52.392  19.592  18.288  0.00  0.00    -0.452 OA
ATOM     55  O   UNL     1      50.114  16.759  19.964  0.00  0.00    -0.197 OA
ENDROOT
BRANCH  25  24
ATOM      1  C   UNL     1      52.296  14.488  20.580  0.00  0.00    +0.061 A 
ATOM      2  C   UNL     1      52.703  13.171  20.594  0.00  0.00    +0.033 A 
ATOM      3  C   UNL     1      52.555  12.384  19.461  0.00  0.00    +0.103 A 
ATOM      6  C   UNL     1      51.993  12.921  18.304  0.00  0.00    +0.095 A 
ATOM     23  C   UNL     1      51.582  14.240  18.283  0.00  0.00    +0.008 A 
ATOM     24  C   UNL     1      51.732  15.033  19.424  0.00  0.00    -0.022 A 
BRANCH   3   4
ATOM      4  O   UNL     1      52.959  11.087  19.479  0.00  0.00    -0.485 OA
ATOM      5  H   UNL     1      52.460  10.528  20.090  0.00  0.00    +0.392 HD
ENDBRANCH   3   4
BRANCH   6   7
ATOM      7  O   UNL     1      51.849  12.147  17.195  0.00  0.00    -0.285 OA
BRANCH   7   8
ATOM      8  C   UNL     1      51.108  12.703  16.107  0.00  0.00    +0.299 C 
ATOM      9  C   UNL     1      51.356  11.874  14.844  0.00  0.00    +0.150 C 
ATOM     12  C   UNL     1      50.512  12.439  13.698  0.00  0.00    +0.165 C 
ATOM     15  C   UNL     1      49.038  12.437  14.114  0.00  0.00    +0.172 C 
ATOM     18  C   UNL     1      48.879  13.243  15.406  0.00  0.00    +0.192 C 
ATOM     22  O   UNL     1      49.714  12.684  16.421  0.00  0.00    -0.372 OA
BRANCH   9  10
ATOM     10  O   UNL     1      52.740  11.937  14.496  0.00  0.00    -0.553 OA
ATOM     11  H   UNL     1      53.028  11.236  13.895  0.00  0.00    +0.397 HD
ENDBRANCH   9  10
BRANCH  12  13
ATOM     13  O   UNL     1      50.683  11.630  12.533  0.00  0.00    -0.553 OA
ATOM     14  H   UNL     1      50.042  10.909  12.458  0.00  0.00    +0.397 HD
ENDBRANCH  12  13
BRANCH  15  16
ATOM     16  O   UNL     1      48.248  13.028  13.079  0.00  0.00    -0.549 OA
ATOM     17  H   UNL     1      47.299  12.869  13.170  0.00  0.00    +0.396 HD
ENDBRANCH  15  16
BRANCH  18  19
ATOM     19  C   UNL     1      47.419  13.197  15.860  0.00  0.00    +0.227 C 
BRANCH  19  20
ATOM     20  O   UNL     1      46.747  14.380  15.427  0.00  0.00    -0.565 OA
ATOM     21  H   UNL     1      46.054  14.222  14.770  0.00  0.00    +0.385 HD
ENDBRANCH  19  20
ENDBRANCH  18  19
ENDBRANCH   7   8
ENDBRANCH   6   7
ENDBRANCH  25  24
BRANCH  26  27
ATOM     27  O   UNL     1      53.288  17.001  18.269  0.00  0.00    -0.448 OA
ATOM     28  H   UNL     1      54.001  16.877  18.911  0.00  0.00    +0.407 HD
ENDBRANCH  26  27
BRANCH  31  32
ATOM     32  O   UNL     1      50.652  21.381  18.889  0.00  0.00    -0.473 OA
ATOM     33  H   UNL     1      50.138  22.176  18.689  0.00  0.00    +0.405 HD
ENDBRANCH  31  32
BRANCH  35  36
ATOM     36  O   UNL     1      46.762  19.898  21.179  0.00  0.00    -0.290 OA
BRANCH  36  37
ATOM     37  C   UNL     1      45.616  19.910  20.325  0.00  0.00    +0.119 C 
ATOM     38  C   UNL     1      44.686  18.753  20.700  0.00  0.00    +0.225 C 
ATOM     39  O   UNL     1      43.515  18.802  19.883  0.00  0.00    -0.352 OA
ATOM     40  C   UNL     1      42.746  19.998  20.035  0.00  0.00    +0.138 C 
ATOM     46  C   UNL     1      43.599  21.204  19.634  0.00  0.00    +0.185 C 
ATOM     49  C   UNL     1      44.866  21.235  20.493  0.00  0.00    +0.202 C 
BRANCH  46  47
ATOM     47  O   UNL     1      42.852  22.405  19.838  0.00  0.00    -0.541 OA
ATOM     48  H   UNL     1      43.395  23.205  19.870  0.00  0.00    +0.381 HD
ENDBRANCH  46  47
BRANCH  49  50
ATOM     50  O   UNL     1      44.508  21.410  21.866  0.00  0.00    -0.544 OA
ATOM     51  H   UNL     1      44.018  22.223  22.044  0.00  0.00    +0.388 HD
ENDBRANCH  49  50
BRANCH  40  41
ATOM     41  C   UNL     1      41.508  19.925  19.139  0.00  0.00    +0.389 C 
BRANCH  41  42
ATOM     42  O   UNL     1      41.829  20.429  17.841  0.00  0.00    -0.572 OA
ATOM     43  H   UNL     1      41.492  19.888  17.115  0.00  0.00    +0.392 HD
ENDBRANCH  41  42
BRANCH  41  44
ATOM     44  O   UNL     1      40.460  20.711  19.710  0.00  0.00    -0.575 OA
ATOM     45  H   UNL     1      40.766  21.363  20.356  0.00  0.00    +0.390 HD
ENDBRANCH  41  44
ENDBRANCH  40  41
ENDBRANCH  36  37
ENDBRANCH  35  36
TORSDOF 18
ENDMDL
MODEL 3
REMARK VINA RESULT:      -6.9      2.435     10.470
REMARK  Name = ZINC95486359
REMARK  18 active torsions:
REMARK  status: ('A' for Active; 'I' for Inactive)
REMARK    1  A    between atoms: C3_3  and  O17_53
REMARK    2  A    between atoms: C4_4  and  O11_36
REMARK    3  A    between atoms: C6_6  and  C7_7
REMARK    4  A    between atoms: C8_8  and  O10_35
REMARK    5  A    between atoms: C11_12  and  O9_34
REMARK    6  A    between atoms: C13_14  and  O3_18
REMARK    7  A    between atoms: O3_18  and  C16_19
REMARK    8  A    between atoms: C18_23  and  C21_31
REMARK    9  A    between atoms: C19_25  and  O6_30
REMARK   10  A    between atoms: C20_27  and  O5_29
REMARK   11  A    between atoms: C21_31  and  O7_32
REMARK   12  A    between atoms: C21_31  and  O8_33
REMARK   13  A    between atoms: O11_36  and  C22_37
REMARK   14  A    between atoms: C23_39  and  O16_52
REMARK   15  A    between atoms: C24_41  and  O15_51
REMARK   16  A    between atoms: C25_43  and  O14_50
REMARK   17  A    between atoms: C26_45  and  C27_48
REMARK   18  A    between atoms: C27_48  and  O13_49
REMARK                            x       y       z     vdW  Elec       q    Type
REMARK                         _______ _______ _______ _____ _____    ______ ____
ROOT
ATOM     25  C   UNL     1      50.553  16.365  18.653  0.00  0.00    +0.136 A 
ATOM     26  C   UNL     1      51.616  16.999  18.080  0.00  0.00    -0.038 A 
ATOM     29  C   UNL     1      51.600  18.411  17.957  0.00  0.00    +0.404 A 
ATOM     30  C   UNL     1      50.417  19.124  18.464  0.00  0.00    -0.289 A 
ATOM     31  C   UNL     1      50.318  20.519  18.381  0.00  0.00    +0.251 A 
ATOM     34  C   UNL     1      49.190  21.152  18.868  0.00  0.00    -0.122 A 
ATOM     35  C   UNL     1      48.161  20.406  19.436  0.00  0.00    +0.215 A 
ATOM     52  C   UNL     1      48.252  19.026  19.520  0.00  0.00    -0.033 A 
ATOM     53  C   UNL     1      49.376  18.373  19.036  0.00  0.00    +0.213 A 
ATOM     54  O   UNL     1      52.534  19.013  17.449  0.00  0.00    -0.452 OA
ATOM     55  O   UNL     1      49.476  17.029  19.107  0.00  0.00    -0.197 OA
ENDROOT
BRANCH  25  24
ATOM      1  C   UNL     1      51.554  14.279  19.569  0.00  0.00    +0.061 A 
ATOM      2  C   UNL     1      51.581  12.906  19.683  0.00  0.00    +0.033 A 
ATOM      3  C   UNL     1      50.647  12.132  19.008  0.00  0.00    +0.103 A 
ATOM      6  C   UNL     1      49.676  12.741  18.214  0.00  0.00    +0.095 A 
ATOM     23  C   UNL     1      49.642  14.117  18.096  0.00  0.00    +0.008 A 
ATOM     24  C   UNL     1      50.584  14.896  18.775  0.00  0.00    -0.022 A 
BRANCH   3   4
ATOM      4  O   UNL     1      50.678  10.779  19.122  0.00  0.00    -0.485 OA
ATOM      5  H   UNL     1      49.823  10.382  19.338  0.00  0.00    +0.392 HD
ENDBRANCH   3   4
BRANCH   6   7
ATOM      7  O   UNL     1      48.761  11.980  17.555  0.00  0.00    -0.285 OA
BRANCH   7   8
ATOM      8  C   UNL     1      48.956  11.802  16.151  0.00  0.00    +0.299 C 
ATOM      9  C   UNL     1      47.960  12.676  15.383  0.00  0.00    +0.150 C 
ATOM     12  C   UNL     1      48.215  12.527  13.881  0.00  0.00    +0.165 C 
ATOM     15  C   UNL     1      49.670  12.901  13.580  0.00  0.00    +0.172 C 
ATOM     18  C   UNL     1      50.600  12.019  14.418  0.00  0.00    +0.192 C 
ATOM     22  O   UNL     1      50.289  12.182  15.803  0.00  0.00    -0.372 OA
BRANCH   9  10
ATOM     10  O   UNL     1      46.628  12.261  15.686  0.00  0.00    -0.553 OA
ATOM     11  H   UNL     1      46.299  12.583  16.537  0.00  0.00    +0.397 HD
ENDBRANCH   9  10
BRANCH  12  13
ATOM     13  O   UNL     1      47.338  13.393  13.158  0.00  0.00    -0.553 OA
ATOM     14  H   UNL     1      46.403  13.163  13.241  0.00  0.00    +0.397 HD
ENDBRANCH  12  13
BRANCH  15  16
ATOM     16  O   UNL     1      49.939  12.698  12.191  0.00  0.00    -0.549 OA
ATOM     17  H   UNL     1      49.229  12.246  11.715  0.00  0.00    +0.396 HD
ENDBRANCH  15  16
BRANCH  18  19
ATOM     19  C   UNL     1      52.053  12.427  14.168  0.00  0.00    +0.227 C 
BRANCH  19  20
ATOM     20  O   UNL     1      52.085  13.693  13.507  0.00  0.00    -0.565 OA
ATOM     21  H   UNL     1      52.164  13.634  12.545  0.00  0.00    +0.385 HD
ENDBRANCH  19  20
ENDBRANCH  18  19
ENDBRANCH   7   8
ENDBRANCH   6   7
ENDBRANCH  25  24
BRANCH  26  27
ATOM     27  O   UNL     1      52.681  16.281  17.631  0.00  0.00    -0.448 OA
ATOM     28  H   UNL     1      52.462  15.379  17.359  0.00  0.00    +0.407 HD
ENDBRANCH  26  27
BRANCH  31  32
ATOM     32  O   UNL     1      51.323  21.245  17.828  0.00  0.00    -0.473 OA
ATOM     33  H   UNL     1      51.228  21.386  16.876  0.00  0.00    +0.405 HD
ENDBRANCH  31  32
BRANCH  35  36
ATOM     36  O   UNL     1      47.057  21.037  19.911  0.00  0.00    -0.290 OA
BRANCH  36  37
ATOM     37  C   UNL     1      45.861  20.263  20.015  0.00  0.00    +0.119 C 
ATOM     38  C   UNL     1      45.242  20.463  21.401  0.00  0.00    +0.225 C 
ATOM     39  O   UNL     1      44.016  19.733  21.483  0.00  0.00    -0.352 OA
ATOM     40  C   UNL     1      43.025  20.147  20.539  0.00  0.00    +0.138 C 
ATOM     46  C   UNL     1      43.556  19.935  19.120  0.00  0.00    +0.185 C 
ATOM     49  C   UNL     1      44.862  20.717  18.947  0.00  0.00    +0.202 C 
BRANCH  46  47
ATOM     47  O   UNL     1      42.591  20.402  18.174  0.00  0.00    -0.541 OA
ATOM     48  H   UNL     1      42.801  21.264  17.790  0.00  0.00    +0.381 HD
ENDBRANCH  46  47
BRANCH  49  50
ATOM     50  O   UNL     1      44.605  22.115  19.096  0.00  0.00    -0.544 OA
ATOM     51  H   UNL     1      43.752  22.316  19.505  0.00  0.00    +0.388 HD
ENDBRANCH  49  50
BRANCH  40  41
ATOM     41  C   UNL     1      41.753  19.320  20.739  0.00  0.00    +0.389 C 
BRANCH  41  42
ATOM     42  O   UNL     1      40.629  20.049  20.242  0.00  0.00    -0.572 OA
ATOM     43  H   UNL     1      39.867  20.048  20.837  0.00  0.00    +0.392 HD
ENDBRANCH  41  42
BRANCH  41  44
ATOM     44  O   UNL     1      41.572  19.054  22.130  0.00  0.00    -0.575 OA
ATOM     45  H   UNL     1      42.251  18.479  22.512  0.00  0.00    +0.390 HD
ENDBRANCH  41  44
ENDBRANCH  40  41
ENDBRANCH  36  37
ENDBRANCH  35  36
TORSDOF 18
ENDMDL
MODEL 4
REMARK VINA RESULT:      -6.6      3.780      6.290
REMARK  Name = ZINC95486359
REMARK  18 active torsions:
REMARK  status: ('A' for Active; 'I' for Inactive)
REMARK    1  A    between atoms: C3_3  and  O17_53
REMARK    2  A    between atoms: C4_4  and  O11_36
REMARK    3  A    between atoms: C6_6  and  C7_7
REMARK    4  A    between atoms: C8_8  and  O10_35
REMARK    5  A    between atoms: C11_12  and  O9_34
REMARK    6  A    between atoms: C13_14  and  O3_18
REMARK    7  A    between atoms: O3_18  and  C16_19
REMARK    8  A    between atoms: C18_23  and  C21_31
REMARK    9  A    between atoms: C19_25  and  O6_30
REMARK   10  A    between atoms: C20_27  and  O5_29
REMARK   11  A    between atoms: C21_31  and  O7_32
REMARK   12  A    between atoms: C21_31  and  O8_33
REMARK   13  A    between atoms: O11_36  and  C22_37
REMARK   14  A    between atoms: C23_39  and  O16_52
REMARK   15  A    between atoms: C24_41  and  O15_51
REMARK   16  A    between atoms: C25_43  and  O14_50
REMARK   17  A    between atoms: C26_45  and  C27_48
REMARK   18  A    between atoms: C27_48  and  O13_49
REMARK                            x       y       z     vdW  Elec       q    Type
REMARK                         _______ _______ _______ _____ _____    ______ ____
ROOT
ATOM     25  C   UNL     1      47.555  16.076  18.946  0.00  0.00    +0.136 A 
ATOM     26  C   UNL     1      47.616  15.505  17.710  0.00  0.00    -0.038 A 
ATOM     29  C   UNL     1      48.780  14.789  17.330  0.00  0.00    +0.404 A 
ATOM     30  C   UNL     1      49.875  14.704  18.310  0.00  0.00    -0.289 A 
ATOM     31  C   UNL     1      51.061  14.019  18.017  0.00  0.00    +0.251 A 
ATOM     34  C   UNL     1      52.066  13.962  18.964  0.00  0.00    -0.122 A 
ATOM     35  C   UNL     1      51.899  14.582  20.198  0.00  0.00    +0.215 A 
ATOM     52  C   UNL     1      50.729  15.263  20.495  0.00  0.00    -0.033 A 
ATOM     53  C   UNL     1      49.709  15.331  19.557  0.00  0.00    +0.213 A 
ATOM     54  O   UNL     1      48.871  14.265  16.231  0.00  0.00    -0.452 OA
ATOM     55  O   UNL     1      48.566  15.995  19.829  0.00  0.00    -0.197 OA
ENDROOT
BRANCH  25  24
ATOM      1  C   UNL     1      45.416  16.241  20.205  0.00  0.00    +0.061 A 
ATOM      2  C   UNL     1      44.278  16.934  20.561  0.00  0.00    +0.033 A 
ATOM      3  C   UNL     1      44.046  18.203  20.049  0.00  0.00    +0.103 A 
ATOM      6  C   UNL     1      44.963  18.783  19.173  0.00  0.00    +0.095 A 
ATOM     23  C   UNL     1      46.105  18.094  18.812  0.00  0.00    +0.008 A 
ATOM     24  C   UNL     1      46.338  16.816  19.328  0.00  0.00    -0.022 A 
BRANCH   3   4
ATOM      4  O   UNL     1      42.923  18.882  20.401  0.00  0.00    -0.485 OA
ATOM      5  H   UNL     1      42.331  19.074  19.661  0.00  0.00    +0.392 HD
ENDBRANCH   3   4
BRANCH   6   7
ATOM      7  O   UNL     1      44.733  20.026  18.672  0.00  0.00    -0.285 OA
BRANCH   7   8
ATOM      8  C   UNL     1      45.345  21.123  19.353  0.00  0.00    +0.299 C 
ATOM      9  C   UNL     1      44.323  21.779  20.285  0.00  0.00    +0.150 C 
ATOM     12  C   UNL     1      45.003  22.915  21.056  0.00  0.00    +0.165 C 
ATOM     15  C   UNL     1      46.207  22.352  21.817  0.00  0.00    +0.172 C 
ATOM     18  C   UNL     1      47.156  21.673  20.826  0.00  0.00    +0.192 C 
ATOM     22  O   UNL     1      46.453  20.648  20.121  0.00  0.00    -0.372 OA
BRANCH   9  10
ATOM     10  O   UNL     1      43.241  22.305  19.514  0.00  0.00    -0.553 OA
ATOM     11  H   UNL     1      42.366  22.058  19.845  0.00  0.00    +0.397 HD
ENDBRANCH   9  10
BRANCH  12  13
ATOM     13  O   UNL     1      44.077  23.488  21.980  0.00  0.00    -0.553 OA
ATOM     14  H   UNL     1      43.698  24.328  21.688  0.00  0.00    +0.397 HD
ENDBRANCH  12  13
BRANCH  15  16
ATOM     16  O   UNL     1      46.891  23.416  22.484  0.00  0.00    -0.549 OA
ATOM     17  H   UNL     1      47.195  23.191  23.373  0.00  0.00    +0.396 HD
ENDBRANCH  15  16
BRANCH  18  19
ATOM     19  C   UNL     1      48.332  21.056  21.586  0.00  0.00    +0.227 C 
BRANCH  19  20
ATOM     20  O   UNL     1      49.205  20.404  20.663  0.00  0.00    -0.565 OA
ATOM     21  H   UNL     1      49.986  20.007  21.073  0.00  0.00    +0.385 HD
ENDBRANCH  19  20
ENDBRANCH  18  19
ENDBRANCH   7   8
ENDBRANCH   6   7
ENDBRANCH  25  24
BRANCH  26  27
ATOM     27  O   UNL     1      46.568  15.619  16.849  0.00  0.00    -0.448 OA
ATOM     28  H   UNL     1      46.041  14.813  16.762  0.00  0.00    +0.407 HD
ENDBRANCH  26  27
BRANCH  31  32
ATOM     32  O   UNL     1      51.222  13.413  16.813  0.00  0.00    -0.473 OA
ATOM     33  H   UNL     1      51.018  12.468  16.818  0.00  0.00    +0.405 HD
ENDBRANCH  31  32
BRANCH  35  36
ATOM     36  O   UNL     1      52.892  14.520  21.121  0.00  0.00    -0.290 OA
BRANCH  36  37
ATOM     37  C   UNL     1      54.117  15.185  20.803  0.00  0.00    +0.119 C 
ATOM     38  C   UNL     1      54.758  15.719  22.087  0.00  0.00    +0.225 C 
ATOM     39  O   UNL     1      56.009  16.332  21.772  0.00  0.00    -0.352 OA
ATOM     40  C   UNL     1      56.965  15.444  21.188  0.00  0.00    +0.138 C 
ATOM     46  C   UNL     1      56.412  14.900  19.869  0.00  0.00    +0.185 C 
ATOM     49  C   UNL     1      55.076  14.198  20.133  0.00  0.00    +0.202 C 
BRANCH  46  47
ATOM     47  O   UNL     1      57.341  13.968  19.310  0.00  0.00    -0.541 OA
ATOM     48  H   UNL     1      56.939  13.324  18.710  0.00  0.00    +0.381 HD
ENDBRANCH  46  47
BRANCH  49  50
ATOM     50  O   UNL     1      55.288  13.078  20.995  0.00  0.00    -0.544 OA
ATOM     51  H   UNL     1      55.169  12.221  20.564  0.00  0.00    +0.388 HD
ENDBRANCH  49  50
BRANCH  40  41
ATOM     41  C   UNL     1      58.269  16.200  20.923  0.00  0.00    +0.389 C 
BRANCH  41  42
ATOM     42  O   UNL     1      58.136  16.974  19.729  0.00  0.00    -0.572 OA
ATOM     43  H   UNL     1      58.879  17.571  19.563  0.00  0.00    +0.392 HD
ENDBRANCH  41  42
BRANCH  41  44
ATOM     44  O   UNL     1      59.338  15.265  20.768  0.00  0.00    -0.575 OA
ATOM     45  H   UNL     1      60.212  15.634  20.959  0.00  0.00    +0.390 HD
ENDBRANCH  41  44
ENDBRANCH  40  41
ENDBRANCH  36  37
ENDBRANCH  35  36
TORSDOF 18
ENDMDL
MODEL 5
REMARK VINA RESULT:      -6.4      3.964      6.702
REMARK  Name = ZINC95486359
REMARK  18 active torsions:
REMARK  status: ('A' for Active; 'I' for Inactive)
REMARK    1  A    between atoms: C3_3  and  O17_53
REMARK    2  A    between atoms: C4_4  and  O11_36
REMARK    3  A    between atoms: C6_6  and  C7_7
REMARK    4  A    between atoms: C8_8  and  O10_35
REMARK    5  A    between atoms: C11_12  and  O9_34
REMARK    6  A    between atoms: C13_14  and  O3_18
REMARK    7  A    between atoms: O3_18  and  C16_19
REMARK    8  A    between atoms: C18_23  and  C21_31
REMARK    9  A    between atoms: C19_25  and  O6_30
REMARK   10  A    between atoms: C20_27  and  O5_29
REMARK   11  A    between atoms: C21_31  and  O7_32
REMARK   12  A    between atoms: C21_31  and  O8_33
REMARK   13  A    between atoms: O11_36  and  C22_37
REMARK   14  A    between atoms: C23_39  and  O16_52
REMARK   15  A    between atoms: C24_41  and  O15_51
REMARK   16  A    between atoms: C25_43  and  O14_50
REMARK   17  A    between atoms: C26_45  and  C27_48
REMARK   18  A    between atoms: C27_48  and  O13_49
REMARK                            x       y       z     vdW  Elec       q    Type
REMARK                         _______ _______ _______ _____ _____    ______ ____
ROOT
ATOM     25  C   UNL     1      48.922  16.912  18.875  0.00  0.00    +0.136 A 
ATOM     26  C   UNL     1      48.431  16.265  17.780  0.00  0.00    -0.038 A 
ATOM     29  C   UNL     1      48.979  15.010  17.409  0.00  0.00    +0.404 A 
ATOM     30  C   UNL     1      50.065  14.471  18.243  0.00  0.00    -0.289 A 
ATOM     31  C   UNL     1      50.664  13.240  17.948  0.00  0.00    +0.251 A 
ATOM     34  C   UNL     1      51.682  12.767  18.755  0.00  0.00    -0.122 A 
ATOM     35  C   UNL     1      52.107  13.511  19.851  0.00  0.00    +0.215 A 
ATOM     52  C   UNL     1      51.519  14.730  20.149  0.00  0.00    -0.033 A 
ATOM     53  C   UNL     1      50.497  15.221  19.350  0.00  0.00    +0.213 A 
ATOM     54  O   UNL     1      48.565  14.402  16.435  0.00  0.00    -0.452 OA
ATOM     55  O   UNL     1      49.919  16.410  19.624  0.00  0.00    -0.197 OA
ENDROOT
BRANCH  25  24
ATOM      1  C   UNL     1      48.964  19.400  18.845  0.00  0.00    +0.061 A 
ATOM      2  C   UNL     1      48.421  20.618  19.194  0.00  0.00    +0.033 A 
ATOM      3  C   UNL     1      47.257  20.671  19.948  0.00  0.00    +0.103 A 
ATOM      6  C   UNL     1      46.631  19.494  20.355  0.00  0.00    +0.095 A 
ATOM     23  C   UNL     1      47.170  18.269  20.008  0.00  0.00    +0.008 A 
ATOM     24  C   UNL     1      48.342  18.216  19.249  0.00  0.00    -0.022 A 
BRANCH   3   4
ATOM      4  O   UNL     1      46.726  21.874  20.292  0.00  0.00    -0.485 OA
ATOM      5  H   UNL     1      45.887  22.073  19.853  0.00  0.00    +0.392 HD
ENDBRANCH   3   4
BRANCH   6   7
ATOM      7  O   UNL     1      45.491  19.549  21.094  0.00  0.00    -0.285 OA
BRANCH   7   8
ATOM      8  C   UNL     1      44.255  19.564  20.378  0.00  0.00    +0.299 C 
ATOM      9  C   UNL     1      43.171  18.881  21.218  0.00  0.00    +0.150 C 
ATOM     12  C   UNL     1      41.836  18.954  20.470  0.00  0.00    +0.165 C 
ATOM     15  C   UNL     1      41.507  20.422  20.178  0.00  0.00    +0.172 C 
ATOM     18  C   UNL     1      42.654  21.045  19.379  0.00  0.00    +0.192 C 
ATOM     22  O   UNL     1      43.872  20.916  20.116  0.00  0.00    -0.372 OA
BRANCH   9  10
ATOM     10  O   UNL     1      43.524  17.514  21.433  0.00  0.00    -0.553 OA
ATOM     11  H   UNL     1      44.139  17.158  20.777  0.00  0.00    +0.397 HD
ENDBRANCH   9  10
BRANCH  12  13
ATOM     13  O   UNL     1      40.804  18.383  21.277  0.00  0.00    -0.553 OA
ATOM     14  H   UNL     1      40.999  17.489  21.590  0.00  0.00    +0.397 HD
ENDBRANCH  12  13
BRANCH  15  16
ATOM     16  O   UNL     1      40.298  20.498  19.419  0.00  0.00    -0.549 OA
ATOM     17  H   UNL     1      39.544  20.845  19.914  0.00  0.00    +0.396 HD
ENDBRANCH  15  16
BRANCH  18  19
ATOM     19  C   UNL     1      42.360  22.526  19.134  0.00  0.00    +0.227 C 
BRANCH  19  20
ATOM     20  O   UNL     1      41.327  22.651  18.155  0.00  0.00    -0.565 OA
ATOM     21  H   UNL     1      41.329  21.949  17.490  0.00  0.00    +0.385 HD
ENDBRANCH  19  20
ENDBRANCH  18  19
ENDBRANCH   7   8
ENDBRANCH   6   7
ENDBRANCH  25  24
BRANCH  26  27
ATOM     27  O   UNL     1      47.424  16.818  17.051  0.00  0.00    -0.448 OA
ATOM     28  H   UNL     1      46.540  16.543  17.330  0.00  0.00    +0.407 HD
ENDBRANCH  26  27
BRANCH  31  32
ATOM     32  O   UNL     1      50.248  12.514  16.879  0.00  0.00    -0.473 OA
ATOM     33  H   UNL     1      49.469  12.878  16.437  0.00  0.00    +0.405 HD
ENDBRANCH  31  32
BRANCH  35  36
ATOM     36  O   UNL     1      53.107  13.038  20.637  0.00  0.00    -0.290 OA
BRANCH  36  37
ATOM     37  C   UNL     1      54.172  13.940  20.947  0.00  0.00    +0.119 C 
ATOM     38  C   UNL     1      55.072  13.320  22.019  0.00  0.00    +0.225 C 
ATOM     39  O   UNL     1      56.166  14.198  22.286  0.00  0.00    -0.352 OA
ATOM     40  C   UNL     1      57.005  14.446  21.154  0.00  0.00    +0.138 C 
ATOM     46  C   UNL     1      56.183  15.110  20.048  0.00  0.00    +0.185 C 
ATOM     49  C   UNL     1      55.000  14.206  19.687  0.00  0.00    +0.202 C 
BRANCH  46  47
ATOM     47  O   UNL     1      57.004  15.307  18.895  0.00  0.00    -0.541 OA
ATOM     48  H   UNL     1      57.903  15.601  19.099  0.00  0.00    +0.381 HD
ENDBRANCH  46  47
BRANCH  49  50
ATOM     50  O   UNL     1      55.487  12.968  19.164  0.00  0.00    -0.544 OA
ATOM     51  H   UNL     1      55.298  12.835  18.226  0.00  0.00    +0.388 HD
ENDBRANCH  49  50
BRANCH  40  41
ATOM     41  C   UNL     1      58.154  15.371  21.564  0.00  0.00    +0.389 C 
BRANCH  41  42
ATOM     42  O   UNL     1      57.752  16.731  21.397  0.00  0.00    -0.572 OA
ATOM     43  H   UNL     1      57.477  17.163  22.217  0.00  0.00    +0.392 HD
ENDBRANCH  41  42
BRANCH  41  44
ATOM     44  O   UNL     1      59.294  15.106  20.744  0.00  0.00    -0.575 OA
ATOM     45  H   UNL     1      60.066  14.791  21.235  0.00  0.00    +0.390 HD
ENDBRANCH  41  44
ENDBRANCH  40  41
ENDBRANCH  36  37
ENDBRANCH  35  36
TORSDOF 18
ENDMDL
MODEL 6
REMARK VINA RESULT:      -6.4      3.657      6.363
REMARK  Name = ZINC95486359
REMARK  18 active torsions:
REMARK  status: ('A' for Active; 'I' for Inactive)
REMARK    1  A    between atoms: C3_3  and  O17_53
REMARK    2  A    between atoms: C4_4  and  O11_36
REMARK    3  A    between atoms: C6_6  and  C7_7
REMARK    4  A    between atoms: C8_8  and  O10_35
REMARK    5  A    between atoms: C11_12  and  O9_34
REMARK    6  A    between atoms: C13_14  and  O3_18
REMARK    7  A    between atoms: O3_18  and  C16_19
REMARK    8  A    between atoms: C18_23  and  C21_31
REMARK    9  A    between atoms: C19_25  and  O6_30
REMARK   10  A    between atoms: C20_27  and  O5_29
REMARK   11  A    between atoms: C21_31  and  O7_32
REMARK   12  A    between atoms: C21_31  and  O8_33
REMARK   13  A    between atoms: O11_36  and  C22_37
REMARK   14  A    between atoms: C23_39  and  O16_52
REMARK   15  A    between atoms: C24_41  and  O15_51
REMARK   16  A    between atoms: C25_43  and  O14_50
REMARK   17  A    between atoms: C26_45  and  C27_48
REMARK   18  A    between atoms: C27_48  and  O13_49
REMARK                            x       y       z     vdW  Elec       q    Type
REMARK                         _______ _______ _______ _____ _____    ______ ____
ROOT
ATOM     25  C   UNL     1      47.193  16.373  19.758  0.00  0.00    +0.136 A 
ATOM     26  C   UNL     1      47.051  16.101  18.429  0.00  0.00    -0.038 A 
ATOM     29  C   UNL     1      48.093  15.429  17.741  0.00  0.00    +0.404 A 
ATOM     30  C   UNL     1      49.289  15.058  18.515  0.00  0.00    -0.289 A 
ATOM     31  C   UNL     1      50.366  14.394  17.914  0.00  0.00    +0.251 A 
ATOM     34  C   UNL     1      51.471  14.063  18.675  0.00  0.00    -0.122 A 
ATOM     35  C   UNL     1      51.512  14.389  20.028  0.00  0.00    +0.215 A 
ATOM     52  C   UNL     1      50.450  15.046  20.628  0.00  0.00    -0.033 A 
ATOM     53  C   UNL     1      49.333  15.387  19.881  0.00  0.00    +0.213 A 
ATOM     54  O   UNL     1      48.002  15.169  16.552  0.00  0.00    -0.452 OA
ATOM     55  O   UNL     1      48.293  16.033  20.450  0.00  0.00    -0.197 OA
ENDROOT
BRANCH  25  24
ATOM      1  C   UNL     1      45.085  16.339  21.080  0.00  0.00    +0.061 A 
ATOM      2  C   UNL     1      44.065  16.993  21.736  0.00  0.00    +0.033 A 
ATOM      3  C   UNL     1      44.042  18.380  21.782  0.00  0.00    +0.103 A 
ATOM      6  C   UNL     1      45.052  19.118  21.166  0.00  0.00    +0.095 A 
ATOM     23  C   UNL     1      46.078  18.469  20.507  0.00  0.00    +0.008 A 
ATOM     24  C   UNL     1      46.100  17.072  20.460  0.00  0.00    -0.022 A 
BRANCH   3   4
ATOM      4  O   UNL     1      43.034  19.021  22.430  0.00  0.00    -0.485 OA
ATOM      5  H   UNL     1      42.853  19.910  22.093  0.00  0.00    +0.392 HD
ENDBRANCH   3   4
BRANCH   6   7
ATOM      7  O   UNL     1      45.028  20.477  21.214  0.00  0.00    -0.285 OA
BRANCH   7   8
ATOM      8  C   UNL     1      43.844  21.121  20.742  0.00  0.00    +0.299 C 
ATOM      9  C   UNL     1      44.209  22.481  20.139  0.00  0.00    +0.150 C 
ATOM     12  C   UNL     1      42.943  23.139  19.582  0.00  0.00    +0.165 C 
ATOM     15  C   UNL     1      42.303  22.201  18.554  0.00  0.00    +0.172 C 
ATOM     18  C   UNL     1      42.012  20.852  19.218  0.00  0.00    +0.192 C 
ATOM     22  O   UNL     1      43.225  20.309  19.742  0.00  0.00    -0.372 OA
BRANCH   9  10
ATOM     10  O   UNL     1      44.776  23.315  21.151  0.00  0.00    -0.553 OA
ATOM     11  H   UNL     1      44.984  24.211  20.852  0.00  0.00    +0.397 HD
ENDBRANCH   9  10
BRANCH  12  13
ATOM     13  O   UNL     1      43.284  24.377  18.954  0.00  0.00    -0.553 OA
ATOM     14  H   UNL     1      42.569  25.027  18.953  0.00  0.00    +0.397 HD
ENDBRANCH  12  13
BRANCH  15  16
ATOM     16  O   UNL     1      41.082  22.774  18.079  0.00  0.00    -0.549 OA
ATOM     17  H   UNL     1      40.920  22.627  17.137  0.00  0.00    +0.396 HD
ENDBRANCH  15  16
BRANCH  18  19
ATOM     19  C   UNL     1      41.427  19.890  18.182  0.00  0.00    +0.227 C 
BRANCH  19  20
ATOM     20  O   UNL     1      40.085  20.275  17.880  0.00  0.00    -0.565 OA
ATOM     21  H   UNL     1      39.414  19.669  18.225  0.00  0.00    +0.385 HD
ENDBRANCH  19  20
ENDBRANCH  18  19
ENDBRANCH   7   8
ENDBRANCH   6   7
ENDBRANCH  25  24
BRANCH  26  27
ATOM     27  O   UNL     1      45.919  16.471  17.771  0.00  0.00    -0.448 OA
ATOM     28  H   UNL     1      46.082  16.969  16.958  0.00  0.00    +0.407 HD
ENDBRANCH  26  27
BRANCH  31  32
ATOM     32  O   UNL     1      50.325  14.076  16.596  0.00  0.00    -0.473 OA
ATOM     33  H   UNL     1      51.141  14.274  16.118  0.00  0.00    +0.405 HD
ENDBRANCH  31  32
BRANCH  35  36
ATOM     36  O   UNL     1      52.602  14.059  20.766  0.00  0.00    -0.290 OA
BRANCH  36  37
ATOM     37  C   UNL     1      53.800  14.799  20.521  0.00  0.00    +0.119 C 
ATOM     38  C   UNL     1      54.351  15.333  21.846  0.00  0.00    +0.225 C 
ATOM     39  O   UNL     1      55.578  16.024  21.606  0.00  0.00    -0.352 OA
ATOM     40  C   UNL     1      56.608  15.206  21.045  0.00  0.00    +0.138 C 
ATOM     46  C   UNL     1      56.147  14.668  19.689  0.00  0.00    +0.185 C 
ATOM     49  C   UNL     1      54.844  13.886  19.872  0.00  0.00    +0.202 C 
BRANCH  46  47
ATOM     47  O   UNL     1      57.152  13.805  19.151  0.00  0.00    -0.541 OA
ATOM     48  H   UNL     1      56.815  12.951  18.847  0.00  0.00    +0.381 HD
ENDBRANCH  46  47
BRANCH  49  50
ATOM     50  O   UNL     1      55.080  12.756  20.716  0.00  0.00    -0.544 OA
ATOM     51  H   UNL     1      54.766  12.870  21.623  0.00  0.00    +0.388 HD
ENDBRANCH  49  50
BRANCH  40  41
ATOM     41  C   UNL     1      57.877  16.041  20.860  0.00  0.00    +0.389 C 
BRANCH  41  42
ATOM     42  O   UNL     1      57.771  16.810  19.661  0.00  0.00    -0.572 OA
ATOM     43  H   UNL     1      58.426  16.582  18.988  0.00  0.00    +0.392 HD
ENDBRANCH  41  42
BRANCH  41  44
ATOM     44  O   UNL     1      59.009  15.174  20.771  0.00  0.00    -0.575 OA
ATOM     45  H   UNL     1      59.814  15.535  21.168  0.00  0.00    +0.390 HD
ENDBRANCH  41  44
ENDBRANCH  40  41
ENDBRANCH  36  37
ENDBRANCH  35  36
TORSDOF 18
ENDMDL
MODEL 7
REMARK VINA RESULT:      -6.4      4.384     10.034
REMARK  Name = ZINC95486359
REMARK  18 active torsions:
REMARK  status: ('A' for Active; 'I' for Inactive)
REMARK    1  A    between atoms: C3_3  and  O17_53
REMARK    2  A    between atoms: C4_4  and  O11_36
REMARK    3  A    between atoms: C6_6  and  C7_7
REMARK    4  A    between atoms: C8_8  and  O10_35
REMARK    5  A    between atoms: C11_12  and  O9_34
REMARK    6  A    between atoms: C13_14  and  O3_18
REMARK    7  A    between atoms: O3_18  and  C16_19
REMARK    8  A    between atoms: C18_23  and  C21_31
REMARK    9  A    between atoms: C19_25  and  O6_30
REMARK   10  A    between atoms: C20_27  and  O5_29
REMARK   11  A    between atoms: C21_31  and  O7_32
REMARK   12  A    between atoms: C21_31  and  O8_33
REMARK   13  A    between atoms: O11_36  and  C22_37
REMARK   14  A    between atoms: C23_39  and  O16_52
REMARK   15  A    between atoms: C24_41  and  O15_51
REMARK   16  A    between atoms: C25_43  and  O14_50
REMARK   17  A    between atoms: C26_45  and  C27_48
REMARK   18  A    between atoms: C27_48  and  O13_49
REMARK                            x       y       z     vdW  Elec       q    Type
REMARK                         _______ _______ _______ _____ _____    ______ ____
ROOT
ATOM     25  C   UNL     1      48.823  15.274  21.112  0.00  0.00    +0.136 A 
ATOM     26  C   UNL     1      48.420  13.996  21.364  0.00  0.00    -0.038 A 
ATOM     29  C   UNL     1      47.076  13.753  21.749  0.00  0.00    +0.404 A 
ATOM     30  C   UNL     1      46.180  14.915  21.856  0.00  0.00    -0.289 A 
ATOM     31  C   UNL     1      44.839  14.766  22.232  0.00  0.00    +0.251 A 
ATOM     34  C   UNL     1      44.029  15.882  22.322  0.00  0.00    -0.122 A 
ATOM     35  C   UNL     1      44.545  17.144  22.041  0.00  0.00    +0.215 A 
ATOM     52  C   UNL     1      45.871  17.299  21.670  0.00  0.00    -0.033 A 
ATOM     53  C   UNL     1      46.699  16.190  21.575  0.00  0.00    +0.213 A 
ATOM     54  O   UNL     1      46.679  12.622  21.983  0.00  0.00    -0.452 OA
ATOM     55  O   UNL     1      47.994  16.326  21.220  0.00  0.00    -0.197 OA
ENDROOT
BRANCH  25  24
ATOM      1  C   UNL     1      51.252  15.353  21.644  0.00  0.00    +0.061 A 
ATOM      2  C   UNL     1      52.560  15.575  21.269  0.00  0.00    +0.033 A 
ATOM      3  C   UNL     1      52.857  15.956  19.968  0.00  0.00    +0.103 A 
ATOM      6  C   UNL     1      51.835  16.115  19.034  0.00  0.00    +0.095 A 
ATOM     23  C   UNL     1      50.522  15.894  19.402  0.00  0.00    +0.008 A 
ATOM     24  C   UNL     1      50.222  15.511  20.713  0.00  0.00    -0.022 A 
BRANCH   3   4
ATOM      4  O   UNL     1      54.148  16.174  19.603  0.00  0.00    -0.485 OA
ATOM      5  H   UNL     1      54.549  16.949  20.021  0.00  0.00    +0.392 HD
ENDBRANCH   3   4
BRANCH   6   7
ATOM      7  O   UNL     1      52.129  16.488  17.760  0.00  0.00    -0.285 OA
BRANCH   7   8
ATOM      8  C   UNL     1      52.330  17.882  17.522  0.00  0.00    +0.299 C 
ATOM      9  C   UNL     1      51.812  18.241  16.126  0.00  0.00    +0.150 C 
ATOM     12  C   UNL     1      51.976  19.747  15.902  0.00  0.00    +0.165 C 
ATOM     15  C   UNL     1      51.232  20.501  17.009  0.00  0.00    +0.172 C 
ATOM     18  C   UNL     1      51.772  20.055  18.370  0.00  0.00    +0.192 C 
ATOM     22  O   UNL     1      51.619  18.641  18.502  0.00  0.00    -0.372 OA
BRANCH   9  10
ATOM     10  O   UNL     1      52.560  17.527  15.141  0.00  0.00    -0.553 OA
ATOM     11  H   UNL     1      52.743  18.036  14.339  0.00  0.00    +0.397 HD
ENDBRANCH   9  10
BRANCH  12  13
ATOM     13  O   UNL     1      51.430  20.104  14.630  0.00  0.00    -0.553 OA
ATOM     14  H   UNL     1      51.827  19.632  13.886  0.00  0.00    +0.397 HD
ENDBRANCH  12  13
BRANCH  15  16
ATOM     16  O   UNL     1      51.437  21.907  16.850  0.00  0.00    -0.549 OA
ATOM     17  H   UNL     1      50.795  22.453  17.323  0.00  0.00    +0.396 HD
ENDBRANCH  15  16
BRANCH  18  19
ATOM     19  C   UNL     1      50.994  20.759  19.484  0.00  0.00    +0.227 C 
BRANCH  19  20
ATOM     20  O   UNL     1      49.660  21.017  19.043  0.00  0.00    -0.565 OA
ATOM     21  H   UNL     1      49.420  20.560  18.225  0.00  0.00    +0.385 HD
ENDBRANCH  19  20
ENDBRANCH  18  19
ENDBRANCH   7   8
ENDBRANCH   6   7
ENDBRANCH  25  24
BRANCH  26  27
ATOM     27  O   UNL     1      49.298  12.964  21.246  0.00  0.00    -0.448 OA
ATOM     28  H   UNL     1      49.268  12.518  20.388  0.00  0.00    +0.407 HD
ENDBRANCH  26  27
BRANCH  31  32
ATOM     32  O   UNL     1      44.337  13.535  22.503  0.00  0.00    -0.473 OA
ATOM     33  H   UNL     1      44.051  13.420  23.420  0.00  0.00    +0.405 HD
ENDBRANCH  31  32
BRANCH  35  36
ATOM     36  O   UNL     1      43.741  18.234  22.133  0.00  0.00    -0.290 OA
BRANCH  36  37
ATOM     37  C   UNL     1      43.095  18.667  20.934  0.00  0.00    +0.119 C 
ATOM     38  C   UNL     1      41.602  18.874  21.203  0.00  0.00    +0.225 C 
ATOM     39  O   UNL     1      40.969  19.361  20.018  0.00  0.00    -0.352 OA
ATOM     40  C   UNL     1      41.472  20.620  19.563  0.00  0.00    +0.138 C 
ATOM     46  C   UNL     1      42.959  20.482  19.229  0.00  0.00    +0.185 C 
ATOM     49  C   UNL     1      43.712  19.989  20.468  0.00  0.00    +0.202 C 
BRANCH  46  47
ATOM     47  O   UNL     1      43.478  21.752  18.827  0.00  0.00    -0.541 OA
ATOM     48  H   UNL     1      42.878  22.493  18.996  0.00  0.00    +0.381 HD
ENDBRANCH  46  47
BRANCH  49  50
ATOM     50  O   UNL     1      43.602  20.960  21.510  0.00  0.00    -0.544 OA
ATOM     51  H   UNL     1      43.322  21.834  21.206  0.00  0.00    +0.388 HD
ENDBRANCH  49  50
BRANCH  40  41
ATOM     41  C   UNL     1      40.704  21.053  18.312  0.00  0.00    +0.389 C 
BRANCH  41  42
ATOM     42  O   UNL     1      39.588  21.859  18.694  0.00  0.00    -0.572 OA
ATOM     43  H   UNL     1      39.273  22.450  17.996  0.00  0.00    +0.392 HD
ENDBRANCH  41  42
BRANCH  41  44
ATOM     44  O   UNL     1      40.241  19.897  17.613  0.00  0.00    -0.575 OA
ATOM     45  H   UNL     1      40.413  19.917  16.662  0.00  0.00    +0.390 HD
ENDBRANCH  41  44
ENDBRANCH  40  41
ENDBRANCH  36  37
ENDBRANCH  35  36
TORSDOF 18
ENDMDL
MODEL 8
REMARK VINA RESULT:      -6.1      4.074     10.296
REMARK  Name = ZINC95486359
REMARK  18 active torsions:
REMARK  status: ('A' for Active; 'I' for Inactive)
REMARK    1  A    between atoms: C3_3  and  O17_53
REMARK    2  A    between atoms: C4_4  and  O11_36
REMARK    3  A    between atoms: C6_6  and  C7_7
REMARK    4  A    between atoms: C8_8  and  O10_35
REMARK    5  A    between atoms: C11_12  and  O9_34
REMARK    6  A    between atoms: C13_14  and  O3_18
REMARK    7  A    between atoms: O3_18  and  C16_19
REMARK    8  A    between atoms: C18_23  and  C21_31
REMARK    9  A    between atoms: C19_25  and  O6_30
REMARK   10  A    between atoms: C20_27  and  O5_29
REMARK   11  A    between atoms: C21_31  and  O7_32
REMARK   12  A    between atoms: C21_31  and  O8_33
REMARK   13  A    between atoms: O11_36  and  C22_37
REMARK   14  A    between atoms: C23_39  and  O16_52
REMARK   15  A    between atoms: C24_41  and  O15_51
REMARK   16  A    between atoms: C25_43  and  O14_50
REMARK   17  A    between atoms: C26_45  and  C27_48
REMARK   18  A    between atoms: C27_48  and  O13_49
REMARK                            x       y       z     vdW  Elec       q    Type
REMARK                         _______ _______ _______ _____ _____    ______ ____
ROOT
ATOM     25  C   UNL     1      48.994  15.619  22.042  0.00  0.00    +0.136 A 
ATOM     26  C   UNL     1      48.650  14.301  22.107  0.00  0.00    -0.038 A 
ATOM     29  C   UNL     1      47.283  13.943  22.228  0.00  0.00    +0.404 A 
ATOM     30  C   UNL     1      46.298  15.034  22.280  0.00  0.00    -0.289 A 
ATOM     31  C   UNL     1      44.927  14.770  22.401  0.00  0.00    +0.251 A 
ATOM     34  C   UNL     1      44.033  15.823  22.447  0.00  0.00    -0.122 A 
ATOM     35  C   UNL     1      44.493  17.135  22.373  0.00  0.00    +0.215 A 
ATOM     52  C   UNL     1      45.847  17.403  22.253  0.00  0.00    -0.033 A 
ATOM     53  C   UNL     1      46.760  16.359  22.207  0.00  0.00    +0.213 A 
ATOM     54  O   UNL     1      46.938  12.773  22.289  0.00  0.00    -0.452 OA
ATOM     55  O   UNL     1      48.083  16.605  22.096  0.00  0.00    -0.197 OA
ENDROOT
BRANCH  25  24
ATOM      1  C   UNL     1      51.397  15.171  22.505  0.00  0.00    +0.061 A 
ATOM      2  C   UNL     1      52.729  15.506  22.386  0.00  0.00    +0.033 A 
ATOM      3  C   UNL     1      53.102  16.641  21.680  0.00  0.00    +0.103 A 
ATOM      6  C   UNL     1      52.131  17.448  21.089  0.00  0.00    +0.095 A 
ATOM     23  C   UNL     1      50.794  17.119  21.204  0.00  0.00    +0.008 A 
ATOM     24  C   UNL     1      50.419  15.976  21.915  0.00  0.00    -0.022 A 
BRANCH   3   4
ATOM      4  O   UNL     1      54.416  16.968  21.566  0.00  0.00    -0.485 OA
ATOM      5  H   UNL     1      54.856  17.129  22.412  0.00  0.00    +0.392 HD
ENDBRANCH   3   4
BRANCH   6   7
ATOM      7  O   UNL     1      52.499  18.560  20.398  0.00  0.00    -0.285 OA
BRANCH   7   8
ATOM      8  C   UNL     1      51.831  18.806  19.160  0.00  0.00    +0.299 C 
ATOM      9  C   UNL     1      52.360  20.104  18.543  0.00  0.00    +0.150 C 
ATOM     12  C   UNL     1      51.682  20.329  17.188  0.00  0.00    +0.165 C 
ATOM     15  C   UNL     1      51.940  19.113  16.293  0.00  0.00    +0.172 C 
ATOM     18  C   UNL     1      51.428  17.853  16.996  0.00  0.00    +0.192 C 
ATOM     22  O   UNL     1      52.074  17.720  18.263  0.00  0.00    -0.372 OA
BRANCH   9  10
ATOM     10  O   UNL     1      52.067  21.199  19.412  0.00  0.00    -0.553 OA
ATOM     11  H   UNL     1      51.706  20.936  20.270  0.00  0.00    +0.397 HD
ENDBRANCH   9  10
BRANCH  12  13
ATOM     13  O   UNL     1      52.221  21.500  16.572  0.00  0.00    -0.553 OA
ATOM     14  H   UNL     1      53.106  21.378  16.201  0.00  0.00    +0.397 HD
ENDBRANCH  12  13
BRANCH  15  16
ATOM     16  O   UNL     1      51.253  19.280  15.050  0.00  0.00    -0.549 OA
ATOM     17  H   UNL     1      50.343  18.954  15.057  0.00  0.00    +0.396 HD
ENDBRANCH  15  16
BRANCH  18  19
ATOM     19  C   UNL     1      51.734  16.627  16.134  0.00  0.00    +0.227 C 
BRANCH  19  20
ATOM     20  O   UNL     1      52.631  16.994  15.085  0.00  0.00    -0.565 OA
ATOM     21  H   UNL     1      52.197  17.170  14.239  0.00  0.00    +0.385 HD
ENDBRANCH  19  20
ENDBRANCH  18  19
ENDBRANCH   7   8
ENDBRANCH   6   7
ENDBRANCH  25  24
BRANCH  26  27
ATOM     27  O   UNL     1      49.611  13.338  22.053  0.00  0.00    -0.448 OA
ATOM     28  H   UNL     1      50.211  13.339  22.812  0.00  0.00    +0.407 HD
ENDBRANCH  26  27
BRANCH  31  32
ATOM     32  O   UNL     1      44.480  13.491  22.472  0.00  0.00    -0.473 OA
ATOM     33  H   UNL     1      43.549  13.387  22.232  0.00  0.00    +0.405 HD
ENDBRANCH  31  32
BRANCH  35  36
ATOM     36  O   UNL     1      43.606  18.161  22.418  0.00  0.00    -0.290 OA
BRANCH  36  37
ATOM     37  C   UNL     1      43.094  18.632  21.170  0.00  0.00    +0.119 C 
ATOM     38  C   UNL     1      41.621  19.017  21.333  0.00  0.00    +0.225 C 
ATOM     39  O   UNL     1      41.127  19.540  20.099  0.00  0.00    -0.352 OA
ATOM     40  C   UNL     1      41.801  20.720  19.654  0.00  0.00    +0.138 C 
ATOM     46  C   UNL     1      43.281  20.404  19.424  0.00  0.00    +0.185 C 
ATOM     49  C   UNL     1      43.889  19.862  20.720  0.00  0.00    +0.202 C 
BRANCH  46  47
ATOM     47  O   UNL     1      43.968  21.595  19.033  0.00  0.00    -0.541 OA
ATOM     48  H   UNL     1      44.869  21.660  19.380  0.00  0.00    +0.381 HD
ENDBRANCH  46  47
BRANCH  49  50
ATOM     50  O   UNL     1      43.826  20.867  21.734  0.00  0.00    -0.544 OA
ATOM     51  H   UNL     1      43.542  20.538  22.598  0.00  0.00    +0.388 HD
ENDBRANCH  49  50
BRANCH  40  41
ATOM     41  C   UNL     1      41.172  21.205  18.346  0.00  0.00    +0.389 C 
BRANCH  41  42
ATOM     42  O   UNL     1      41.328  22.621  18.238  0.00  0.00    -0.572 OA
ATOM     43  H   UNL     1      41.340  23.081  19.088  0.00  0.00    +0.392 HD
ENDBRANCH  41  42
BRANCH  41  44
ATOM     44  O   UNL     1      39.781  20.876  18.337  0.00  0.00    -0.575 OA
ATOM     45  H   UNL     1      39.281  21.262  19.070  0.00  0.00    +0.390 HD
ENDBRANCH  41  44
ENDBRANCH  40  41
ENDBRANCH  36  37
ENDBRANCH  35  36
TORSDOF 18
ENDMDL
MODEL 9
REMARK VINA RESULT:      -5.8      2.480     10.947
REMARK  Name = ZINC95486359
REMARK  18 active torsions:
REMARK  status: ('A' for Active; 'I' for Inactive)
REMARK    1  A    between atoms: C3_3  and  O17_53
REMARK    2  A    between atoms: C4_4  and  O11_36
REMARK    3  A    between atoms: C6_6  and  C7_7
REMARK    4  A    between atoms: C8_8  and  O10_35
REMARK    5  A    between atoms: C11_12  and  O9_34
REMARK    6  A    between atoms: C13_14  and  O3_18
REMARK    7  A    between atoms: O3_18  and  C16_19
REMARK    8  A    between atoms: C18_23  and  C21_31
REMARK    9  A    between atoms: C19_25  and  O6_30
REMARK   10  A    between atoms: C20_27  and  O5_29
REMARK   11  A    between atoms: C21_31  and  O7_32
REMARK   12  A    between atoms: C21_31  and  O8_33
REMARK   13  A    between atoms: O11_36  and  C22_37
REMARK   14  A    between atoms: C23_39  and  O16_52
REMARK   15  A    between atoms: C24_41  and  O15_51
REMARK   16  A    between atoms: C25_43  and  O14_50
REMARK   17  A    between atoms: C26_45  and  C27_48
REMARK   18  A    between atoms: C27_48  and  O13_49
REMARK                            x       y       z     vdW  Elec       q    Type
REMARK                         _______ _______ _______ _____ _____    ______ ____
ROOT
ATOM     25  C   UNL     1      49.097  14.021  20.359  0.00  0.00    +0.136 A 
ATOM     26  C   UNL     1      48.192  13.257  21.034  0.00  0.00    -0.038 A 
ATOM     29  C   UNL     1      47.019  13.863  21.553  0.00  0.00    +0.404 A 
ATOM     30  C   UNL     1      46.844  15.306  21.328  0.00  0.00    -0.289 A 
ATOM     31  C   UNL     1      45.717  15.985  21.807  0.00  0.00    +0.251 A 
ATOM     34  C   UNL     1      45.590  17.342  21.576  0.00  0.00    -0.122 A 
ATOM     35  C   UNL     1      46.577  18.027  20.873  0.00  0.00    +0.215 A 
ATOM     52  C   UNL     1      47.695  17.362  20.397  0.00  0.00    -0.033 A 
ATOM     53  C   UNL     1      47.840  16.000  20.619  0.00  0.00    +0.213 A 
ATOM     54  O   UNL     1      46.187  13.211  22.163  0.00  0.00    -0.452 OA
ATOM     55  O   UNL     1      48.927  15.340  20.166  0.00  0.00    -0.197 OA
ENDROOT
BRANCH  25  24
ATOM      1  C   UNL     1      51.372  13.065  20.680  0.00  0.00    +0.061 A 
ATOM      2  C   UNL     1      52.507  12.463  20.180  0.00  0.00    +0.033 A 
ATOM      3  C   UNL     1      52.600  12.166  18.828  0.00  0.00    +0.103 A 
ATOM      6  C   UNL     1      51.545  12.474  17.969  0.00  0.00    +0.095 A 
ATOM     23  C   UNL     1      50.405  13.077  18.463  0.00  0.00    +0.008 A 
ATOM     24  C   UNL     1      50.312  13.377  19.825  0.00  0.00    -0.022 A 
BRANCH   3   4
ATOM      4  O   UNL     1      53.720  11.573  18.339  0.00  0.00    -0.485 OA
ATOM      5  H   UNL     1      54.153  12.072  17.632  0.00  0.00    +0.392 HD
ENDBRANCH   3   4
BRANCH   6   7
ATOM      7  O   UNL     1      51.639  12.180  16.644  0.00  0.00    -0.285 OA
BRANCH   7   8
ATOM      8  C   UNL     1      50.669  12.771  15.779  0.00  0.00    +0.299 C 
ATOM      9  C   UNL     1      50.971  12.379  14.330  0.00  0.00    +0.150 C 
ATOM     12  C   UNL     1      49.892  12.966  13.415  0.00  0.00    +0.165 C 
ATOM     15  C   UNL     1      48.519  12.469  13.877  0.00  0.00    +0.172 C 
ATOM     18  C   UNL     1      48.312  12.857  15.344  0.00  0.00    +0.192 C 
ATOM     22  O   UNL     1      49.365  12.306  16.135  0.00  0.00    -0.372 OA
BRANCH   9  10
ATOM     10  O   UNL     1      52.250  12.892  13.952  0.00  0.00    -0.553 OA
ATOM     11  H   UNL     1      52.876  12.214  13.664  0.00  0.00    +0.397 HD
ENDBRANCH   9  10
BRANCH  12  13
ATOM     13  O   UNL     1      50.125  12.546  12.069  0.00  0.00    -0.553 OA
ATOM     14  H   UNL     1      49.323  12.476  11.534  0.00  0.00    +0.397 HD
ENDBRANCH  12  13
BRANCH  15  16
ATOM     16  O   UNL     1      47.499  13.067  13.074  0.00  0.00    -0.549 OA
ATOM     17  H   UNL     1      46.977  13.736  13.536  0.00  0.00    +0.396 HD
ENDBRANCH  15  16
BRANCH  18  19
ATOM     19  C   UNL     1      46.968  12.313  15.831  0.00  0.00    +0.227 C 
BRANCH  19  20
ATOM     20  O   UNL     1      46.474  11.354  14.894  0.00  0.00    -0.565 OA
ATOM     21  H   UNL     1      45.898  11.729  14.213  0.00  0.00    +0.385 HD
ENDBRANCH  19  20
ENDBRANCH  18  19
ENDBRANCH   7   8
ENDBRANCH   6   7
ENDBRANCH  25  24
BRANCH  26  27
ATOM     27  O   UNL     1      48.412  11.925  21.208  0.00  0.00    -0.448 OA
ATOM     28  H   UNL     1      49.329  11.655  21.058  0.00  0.00    +0.407 HD
ENDBRANCH  26  27
BRANCH  31  32
ATOM     32  O   UNL     1      44.755  15.317  22.492  0.00  0.00    -0.473 OA
ATOM     33  H   UNL     1      43.973  15.105  21.965  0.00  0.00    +0.405 HD
ENDBRANCH  31  32
BRANCH  35  36
ATOM     36  O   UNL     1      46.442  19.359  20.651  0.00  0.00    -0.290 OA
BRANCH  36  37
ATOM     37  C   UNL     1      45.111  19.870  20.557  0.00  0.00    +0.119 C 
ATOM     38  C   UNL     1      45.118  21.373  20.846  0.00  0.00    +0.225 C 
ATOM     39  O   UNL     1      43.796  21.892  20.695  0.00  0.00    -0.352 OA
ATOM     40  C   UNL     1      43.255  21.741  19.380  0.00  0.00    +0.138 C 
ATOM     46  C   UNL     1      43.174  20.253  19.033  0.00  0.00    +0.185 C 
ATOM     49  C   UNL     1      44.569  19.631  19.144  0.00  0.00    +0.202 C 
BRANCH  46  47
ATOM     47  O   UNL     1      42.687  20.101  17.697  0.00  0.00    -0.541 OA
ATOM     48  H   UNL     1      43.290  19.623  17.111  0.00  0.00    +0.381 HD
ENDBRANCH  46  47
BRANCH  49  50
ATOM     50  O   UNL     1      45.440  20.240  18.189  0.00  0.00    -0.544 OA
ATOM     51  H   UNL     1      46.364  20.284  18.472  0.00  0.00    +0.388 HD
ENDBRANCH  49  50
BRANCH  40  41
ATOM     41  C   UNL     1      41.855  22.356  19.330  0.00  0.00    +0.389 C 
BRANCH  41  42
ATOM     42  O   UNL     1      40.876  21.321  19.442  0.00  0.00    -0.572 OA
ATOM     43  H   UNL     1      40.465  21.262  20.315  0.00  0.00    +0.392 HD
ENDBRANCH  41  42
BRANCH  41  44
ATOM     44  O   UNL     1      41.681  23.045  18.091  0.00  0.00    -0.575 OA
ATOM     45  H   UNL     1      42.468  23.524  17.794  0.00  0.00    +0.390 HD
ENDBRANCH  41  44
ENDBRANCH  40  41
ENDBRANCH  36  37
ENDBRANCH  35  36
TORSDOF 18
ENDMDL
