MODEL 1
REMARK VINA RESULT:      -7.0      0.000      0.000
REMARK  Name = ZINC95486134
REMARK  10 active torsions:
REMARK  status: ('A' for Active; 'I' for Inactive)
REMARK    1  A    between atoms: C1_1  and  C2_2
REMARK    2  A    between atoms: C3_3  and  O4_37
REMARK    3  A    between atoms: C11_14  and  C30_36
REMARK    4  A    between atoms: C14_17  and  C29_35
REMARK    5  A    between atoms: C15_18  and  C28_34
REMARK    6  A    between atoms: C18_21  and  C27_33
REMARK    7  A    between atoms: C21_25  and  C24_28
REMARK    8  A    between atoms: C21_25  and  C25_29
REMARK    9  A    between atoms: C25_29  and  O3_31
REMARK   10  A    between atoms: O3_31  and  C26_32
REMARK                            x       y       z     vdW  Elec       q    Type
REMARK                         _______ _______ _______ _____ _____    ______ ____
ROOT
ATOM      1  C   UNL     1      51.043  20.831  19.720  0.00  0.00    +0.111 C 
ATOM      2  C   UNL     1      51.132  19.799  18.629  0.00  0.00    -0.125 C 
ATOM      3  C   UNL     1      51.307  20.173  17.330  0.00  0.00    -0.001 C 
ATOM      6  C   UNL     1      51.367  19.024  16.376  0.00  0.00    +0.402 C 
ATOM      7  C   UNL     1      50.290  18.014  16.586  0.00  0.00    -0.091 C 
ATOM      8  C   UNL     1      50.120  17.669  17.887  0.00  0.00    -0.016 C 
ATOM      9  C   UNL     1      49.057  16.662  18.238  0.00  0.00    -0.004 C 
ATOM     10  C   UNL     1      49.361  15.406  17.397  0.00  0.00    +0.031 C 
ATOM     11  C   UNL     1      47.715  17.246  17.784  0.00  0.00    +0.040 C 
ATOM     12  C   UNL     1      46.591  16.277  18.107  0.00  0.00    +0.012 C 
ATOM     13  C   UNL     1      46.458  16.111  19.631  0.00  0.00    -0.022 C 
ATOM     14  C   UNL     1      45.407  15.002  19.825  0.00  0.00    +0.016 C 
ATOM     15  C   UNL     1      47.777  15.634  20.224  0.00  0.00    -0.025 C 
ATOM     16  C   UNL     1      47.885  14.117  19.899  0.00  0.00    +0.010 C 
ATOM     17  C   UNL     1      47.725  15.689  21.758  0.00  0.00    +0.016 C 
ATOM     18  C   UNL     1      47.285  17.027  22.316  0.00  0.00    +0.009 C 
ATOM     19  C   UNL     1      45.929  17.458  21.744  0.00  0.00    -0.047 C 
ATOM     20  C   UNL     1      44.820  16.606  22.342  0.00  0.00    +0.026 C 
ATOM     21  C   UNL     1      45.696  18.920  22.176  0.00  0.00    +0.009 C 
ATOM     22  C   UNL     1      44.387  19.439  21.602  0.00  0.00    +0.042 C 
ATOM     23  C   UNL     1      44.336  19.317  20.083  0.00  0.00    -0.043 C 
ATOM     28  C   UNL     1      42.909  19.648  19.613  0.00  0.00    +0.055 C 
ATOM     29  C   UNL     1      44.678  17.899  19.625  0.00  0.00    +0.055 C 
ATOM     30  C   UNL     1      45.998  17.433  20.225  0.00  0.00    +0.021 C 
ATOM     31  C   UNL     1      49.035  16.302  19.707  0.00  0.00    +0.008 C 
ATOM     32  C   UNL     1      49.436  17.490  20.582  0.00  0.00    +0.031 C 
ATOM     33  C   UNL     1      50.892  17.866  20.281  0.00  0.00    +0.034 C 
ATOM     34  O   UNL     1      52.211  18.917  15.512  0.00  0.00    -0.433 OA
ATOM     35  C   UNL     1      51.040  18.324  18.865  0.00  0.00    +0.057 C 
ENDROOT
BRANCH   3   4
ATOM      4  O   UNL     1      51.418  21.466  16.941  0.00  0.00    -0.451 OA
ATOM      5  H   UNL     1      51.072  22.101  17.584  0.00  0.00    +0.400 HD
ENDBRANCH   3   4
BRANCH  23  24
ATOM     24  C   UNL     1      45.281  20.309  19.452  0.00  0.00    +0.467 C 
ATOM     27  O   UNL     1      45.763  20.078  18.368  0.00  0.00    -0.493 OA
BRANCH  24  25
ATOM     25  O   UNL     1      45.585  21.447  20.094  0.00  0.00    -0.353 OA
ATOM     26  C   UNL     1      44.991  22.649  19.599  0.00  0.00    +0.253 C 
ENDBRANCH  24  25
ENDBRANCH  23  24
TORSDOF 3
ENDMDL
MODEL 2
REMARK VINA RESULT:      -6.2      2.440      6.082
REMARK  Name = ZINC95486134
REMARK  10 active torsions:
REMARK  status: ('A' for Active; 'I' for Inactive)
REMARK    1  A    between atoms: C1_1  and  C2_2
REMARK    2  A    between atoms: C3_3  and  O4_37
REMARK    3  A    between atoms: C11_14  and  C30_36
REMARK    4  A    between atoms: C14_17  and  C29_35
REMARK    5  A    between atoms: C15_18  and  C28_34
REMARK    6  A    between atoms: C18_21  and  C27_33
REMARK    7  A    between atoms: C21_25  and  C24_28
REMARK    8  A    between atoms: C21_25  and  C25_29
REMARK    9  A    between atoms: C25_29  and  O3_31
REMARK   10  A    between atoms: O3_31  and  C26_32
REMARK                            x       y       z     vdW  Elec       q    Type
REMARK                         _______ _______ _______ _____ _____    ______ ____
ROOT
ATOM      1  C   UNL     1      49.960  13.415  19.291  0.00  0.00    +0.111 C 
ATOM      2  C   UNL     1      48.506  13.724  19.060  0.00  0.00    -0.125 C 
ATOM      3  C   UNL     1      47.869  13.277  17.941  0.00  0.00    -0.001 C 
ATOM      6  C   UNL     1      46.431  13.677  17.866  0.00  0.00    +0.402 C 
ATOM      7  C   UNL     1      46.194  15.117  18.175  0.00  0.00    -0.091 C 
ATOM      8  C   UNL     1      46.851  15.546  19.283  0.00  0.00    -0.016 C 
ATOM      9  C   UNL     1      46.703  16.985  19.701  0.00  0.00    -0.004 C 
ATOM     10  C   UNL     1      45.190  17.233  19.860  0.00  0.00    +0.031 C 
ATOM     11  C   UNL     1      47.225  17.847  18.548  0.00  0.00    +0.040 C 
ATOM     12  C   UNL     1      47.105  19.319  18.902  0.00  0.00    +0.012 C 
ATOM     13  C   UNL     1      48.019  19.652  20.093  0.00  0.00    -0.022 C 
ATOM     14  C   UNL     1      47.695  21.114  20.454  0.00  0.00    +0.016 C 
ATOM     15  C   UNL     1      47.669  18.773  21.287  0.00  0.00    -0.025 C 
ATOM     16  C   UNL     1      46.369  19.362  21.904  0.00  0.00    +0.010 C 
ATOM     17  C   UNL     1      48.720  18.932  22.395  0.00  0.00    +0.016 C 
ATOM     18  C   UNL     1      50.148  18.739  21.928  0.00  0.00    +0.009 C 
ATOM     19  C   UNL     1      50.491  19.675  20.762  0.00  0.00    -0.047 C 
ATOM     20  C   UNL     1      50.626  21.104  21.267  0.00  0.00    +0.026 C 
ATOM     21  C   UNL     1      51.861  19.231  20.210  0.00  0.00    +0.009 C 
ATOM     22  C   UNL     1      52.250  20.084  19.012  0.00  0.00    +0.042 C 
ATOM     23  C   UNL     1      51.194  20.047  17.913  0.00  0.00    -0.043 C 
ATOM     28  C   UNL     1      51.555  21.102  16.852  0.00  0.00    +0.055 C 
ATOM     29  C   UNL     1      49.804  20.373  18.462  0.00  0.00    +0.055 C 
ATOM     30  C   UNL     1      49.466  19.488  19.655  0.00  0.00    +0.021 C 
ATOM     31  C   UNL     1      47.414  17.307  20.998  0.00  0.00    +0.008 C 
ATOM     32  C   UNL     1      48.686  16.476  21.162  0.00  0.00    +0.031 C 
ATOM     33  C   UNL     1      48.307  14.994  21.266  0.00  0.00    +0.034 C 
ATOM     34  O   UNL     1      45.538  12.909  17.583  0.00  0.00    -0.433 OA
ATOM     35  C   UNL     1      47.661  14.520  20.004  0.00  0.00    +0.057 C 
ENDROOT
BRANCH   3   4
ATOM      4  O   UNL     1      48.483  12.536  16.987  0.00  0.00    -0.451 OA
ATOM      5  H   UNL     1      48.393  11.580  17.113  0.00  0.00    +0.400 HD
ENDBRANCH   3   4
BRANCH  23  24
ATOM     24  C   UNL     1      51.185  18.695  17.247  0.00  0.00    +0.467 C 
ATOM     27  O   UNL     1      50.264  18.380  16.531  0.00  0.00    -0.493 OA
BRANCH  24  25
ATOM     25  O   UNL     1      52.200  17.841  17.450  0.00  0.00    -0.353 OA
ATOM     26  C   UNL     1      51.863  16.466  17.640  0.00  0.00    +0.253 C 
ENDBRANCH  24  25
ENDBRANCH  23  24
TORSDOF 3
ENDMDL
MODEL 3
REMARK VINA RESULT:      -6.0      2.760      6.352
REMARK  Name = ZINC95486134
REMARK  10 active torsions:
REMARK  status: ('A' for Active; 'I' for Inactive)
REMARK    1  A    between atoms: C1_1  and  C2_2
REMARK    2  A    between atoms: C3_3  and  O4_37
REMARK    3  A    between atoms: C11_14  and  C30_36
REMARK    4  A    between atoms: C14_17  and  C29_35
REMARK    5  A    between atoms: C15_18  and  C28_34
REMARK    6  A    between atoms: C18_21  and  C27_33
REMARK    7  A    between atoms: C21_25  and  C24_28
REMARK    8  A    between atoms: C21_25  and  C25_29
REMARK    9  A    between atoms: C25_29  and  O3_31
REMARK   10  A    between atoms: O3_31  and  C26_32
REMARK                            x       y       z     vdW  Elec       q    Type
REMARK                         _______ _______ _______ _____ _____    ______ ____
ROOT
ATOM      1  C   UNL     1      42.994  18.127  22.505  0.00  0.00    +0.111 C 
ATOM      2  C   UNL     1      43.166  19.123  21.390  0.00  0.00    -0.125 C 
ATOM      3  C   UNL     1      42.161  19.349  20.498  0.00  0.00    -0.001 C 
ATOM      6  C   UNL     1      42.500  20.362  19.453  0.00  0.00    +0.402 C 
ATOM      7  C   UNL     1      43.840  20.155  18.830  0.00  0.00    -0.091 C 
ATOM      8  C   UNL     1      44.823  19.915  19.735  0.00  0.00    -0.016 C 
ATOM      9  C   UNL     1      46.224  19.680  19.237  0.00  0.00    -0.004 C 
ATOM     10  C   UNL     1      46.588  20.910  18.381  0.00  0.00    +0.031 C 
ATOM     11  C   UNL     1      46.181  18.445  18.331  0.00  0.00    +0.040 C 
ATOM     12  C   UNL     1      47.568  18.148  17.789  0.00  0.00    +0.012 C 
ATOM     13  C   UNL     1      48.514  17.765  18.940  0.00  0.00    -0.022 C 
ATOM     14  C   UNL     1      49.907  17.643  18.293  0.00  0.00    +0.016 C 
ATOM     15  C   UNL     1      48.560  18.879  19.976  0.00  0.00    -0.025 C 
ATOM     16  C   UNL     1      49.463  19.998  19.383  0.00  0.00    +0.010 C 
ATOM     17  C   UNL     1      49.311  18.413  21.232  0.00  0.00    +0.016 C 
ATOM     18  C   UNL     1      48.808  17.104  21.805  0.00  0.00    +0.009 C 
ATOM     19  C   UNL     1      48.823  15.986  20.756  0.00  0.00    -0.047 C 
ATOM     20  C   UNL     1      50.256  15.556  20.478  0.00  0.00    +0.026 C 
ATOM     21  C   UNL     1      48.072  14.783  21.361  0.00  0.00    +0.009 C 
ATOM     22  C   UNL     1      48.000  13.643  20.356  0.00  0.00    +0.042 C 
ATOM     23  C   UNL     1      47.352  14.073  19.044  0.00  0.00    -0.043 C 
ATOM     28  C   UNL     1      47.525  12.939  18.018  0.00  0.00    +0.055 C 
ATOM     29  C   UNL     1      48.009  15.335  18.483  0.00  0.00    +0.055 C 
ATOM     30  C   UNL     1      48.049  16.442  19.529  0.00  0.00    +0.021 C 
ATOM     31  C   UNL     1      47.235  19.513  20.350  0.00  0.00    +0.008 C 
ATOM     32  C   UNL     1      46.617  18.834  21.573  0.00  0.00    +0.031 C 
ATOM     33  C   UNL     1      45.524  19.741  22.152  0.00  0.00    +0.034 C 
ATOM     34  O   UNL     1      41.760  21.270  19.138  0.00  0.00    -0.433 OA
ATOM     35  C   UNL     1      44.411  19.925  21.170  0.00  0.00    +0.057 C 
ENDROOT
BRANCH   3   4
ATOM      4  O   UNL     1      40.964  18.715  20.555  0.00  0.00    -0.451 OA
ATOM      5  H   UNL     1      40.208  19.286  20.360  0.00  0.00    +0.400 HD
ENDBRANCH   3   4
BRANCH  23  24
ATOM     24  C   UNL     1      45.876  14.303  19.246  0.00  0.00    +0.467 C 
ATOM     27  O   UNL     1      45.114  13.365  19.260  0.00  0.00    -0.493 OA
BRANCH  24  25
ATOM     25  O   UNL     1      45.408  15.550  19.411  0.00  0.00    -0.353 OA
ATOM     26  C   UNL     1      44.714  15.826  20.630  0.00  0.00    +0.253 C 
ENDBRANCH  24  25
ENDBRANCH  23  24
TORSDOF 3
ENDMDL
MODEL 4
REMARK VINA RESULT:      -6.0      2.446      5.593
REMARK  Name = ZINC95486134
REMARK  10 active torsions:
REMARK  status: ('A' for Active; 'I' for Inactive)
REMARK    1  A    between atoms: C1_1  and  C2_2
REMARK    2  A    between atoms: C3_3  and  O4_37
REMARK    3  A    between atoms: C11_14  and  C30_36
REMARK    4  A    between atoms: C14_17  and  C29_35
REMARK    5  A    between atoms: C15_18  and  C28_34
REMARK    6  A    between atoms: C18_21  and  C27_33
REMARK    7  A    between atoms: C21_25  and  C24_28
REMARK    8  A    between atoms: C21_25  and  C25_29
REMARK    9  A    between atoms: C25_29  and  O3_31
REMARK   10  A    between atoms: O3_31  and  C26_32
REMARK                            x       y       z     vdW  Elec       q    Type
REMARK                         _______ _______ _______ _____ _____    ______ ____
ROOT
ATOM      1  C   UNL     1      44.548  19.466  22.401  0.00  0.00    +0.111 C 
ATOM      2  C   UNL     1      45.185  20.348  21.363  0.00  0.00    -0.125 C 
ATOM      3  C   UNL     1      44.426  20.960  20.409  0.00  0.00    -0.001 C 
ATOM      6  C   UNL     1      45.217  21.794  19.454  0.00  0.00    +0.402 C 
ATOM      7  C   UNL     1      46.434  21.109  18.927  0.00  0.00    -0.091 C 
ATOM      8  C   UNL     1      47.165  20.492  19.890  0.00  0.00    -0.016 C 
ATOM      9  C   UNL     1      48.416  19.756  19.490  0.00  0.00    -0.004 C 
ATOM     10  C   UNL     1      49.293  20.777  18.738  0.00  0.00    +0.031 C 
ATOM     11  C   UNL     1      47.998  18.652  18.514  0.00  0.00    +0.040 C 
ATOM     12  C   UNL     1      49.217  17.864  18.066  0.00  0.00    +0.012 C 
ATOM     13  C   UNL     1      49.837  17.124  19.263  0.00  0.00    -0.022 C 
ATOM     14  C   UNL     1      51.136  16.499  18.721  0.00  0.00    +0.016 C 
ATOM     15  C   UNL     1      50.200  18.113  20.362  0.00  0.00    -0.025 C 
ATOM     16  C   UNL     1      51.508  18.820  19.906  0.00  0.00    +0.010 C 
ATOM     17  C   UNL     1      50.599  17.367  21.644  0.00  0.00    +0.016 C 
ATOM     18  C   UNL     1      49.590  16.333  22.099  0.00  0.00    +0.009 C 
ATOM     19  C   UNL     1      49.284  15.318  20.992  0.00  0.00    -0.047 C 
ATOM     20  C   UNL     1      50.470  14.384  20.803  0.00  0.00    +0.026 C 
ATOM     21  C   UNL     1      48.082  14.475  21.467  0.00  0.00    +0.009 C 
ATOM     22  C   UNL     1      47.683  13.472  20.395  0.00  0.00    +0.042 C 
ATOM     23  C   UNL     1      47.370  14.146  19.064  0.00  0.00    -0.043 C 
ATOM     28  C   UNL     1      47.200  13.056  17.991  0.00  0.00    +0.055 C 
ATOM     29  C   UNL     1      48.502  15.078  18.630  0.00  0.00    +0.055 C 
ATOM     30  C   UNL     1      48.856  16.062  19.737  0.00  0.00    +0.021 C 
ATOM     31  C   UNL     1      49.181  19.192  20.667  0.00  0.00    +0.008 C 
ATOM     32  C   UNL     1      48.241  18.769  21.797  0.00  0.00    +0.031 C 
ATOM     33  C   UNL     1      47.519  20.009  22.340  0.00  0.00    +0.034 C 
ATOM     34  O   UNL     1      44.906  22.921  19.134  0.00  0.00    -0.433 OA
ATOM     35  C   UNL     1      46.654  20.624  21.287  0.00  0.00    +0.057 C 
ENDROOT
BRANCH   3   4
ATOM      4  O   UNL     1      43.080  20.825  20.337  0.00  0.00    -0.451 OA
ATOM      5  H   UNL     1      42.614  21.093  21.142  0.00  0.00    +0.400 HD
ENDBRANCH   3   4
BRANCH  23  24
ATOM     24  C   UNL     1      46.076  14.914  19.163  0.00  0.00    +0.467 C 
ATOM     27  O   UNL     1      45.839  15.803  18.381  0.00  0.00    -0.493 OA
BRANCH  24  25
ATOM     25  O   UNL     1      45.187  14.608  20.121  0.00  0.00    -0.353 OA
ATOM     26  C   UNL     1      44.714  15.684  20.934  0.00  0.00    +0.253 C 
ENDBRANCH  24  25
ENDBRANCH  23  24
TORSDOF 3
ENDMDL
MODEL 5
REMARK VINA RESULT:      -5.7      2.582      5.510
REMARK  Name = ZINC95486134
REMARK  10 active torsions:
REMARK  status: ('A' for Active; 'I' for Inactive)
REMARK    1  A    between atoms: C1_1  and  C2_2
REMARK    2  A    between atoms: C3_3  and  O4_37
REMARK    3  A    between atoms: C11_14  and  C30_36
REMARK    4  A    between atoms: C14_17  and  C29_35
REMARK    5  A    between atoms: C15_18  and  C28_34
REMARK    6  A    between atoms: C18_21  and  C27_33
REMARK    7  A    between atoms: C21_25  and  C24_28
REMARK    8  A    between atoms: C21_25  and  C25_29
REMARK    9  A    between atoms: C25_29  and  O3_31
REMARK   10  A    between atoms: O3_31  and  C26_32
REMARK                            x       y       z     vdW  Elec       q    Type
REMARK                         _______ _______ _______ _____ _____    ______ ____
ROOT
ATOM      1  C   UNL     1      51.485  13.112  16.784  0.00  0.00    +0.111 C 
ATOM      2  C   UNL     1      49.992  13.001  16.634  0.00  0.00    -0.125 C 
ATOM      3  C   UNL     1      49.421  12.930  15.398  0.00  0.00    -0.001 C 
ATOM      6  C   UNL     1      47.930  12.829  15.430  0.00  0.00    +0.402 C 
ATOM      7  C   UNL     1      47.283  13.807  16.353  0.00  0.00    -0.091 C 
ATOM      8  C   UNL     1      47.878  13.874  17.571  0.00  0.00    -0.016 C 
ATOM      9  C   UNL     1      47.326  14.830  18.595  0.00  0.00    -0.004 C 
ATOM     10  C   UNL     1      45.836  14.472  18.758  0.00  0.00    +0.031 C 
ATOM     11  C   UNL     1      47.433  16.238  18.001  0.00  0.00    +0.040 C 
ATOM     12  C   UNL     1      46.890  17.260  18.986  0.00  0.00    +0.012 C 
ATOM     13  C   UNL     1      47.767  17.293  20.249  0.00  0.00    -0.022 C 
ATOM     14  C   UNL     1      47.037  18.237  21.222  0.00  0.00    +0.016 C 
ATOM     15  C   UNL     1      47.833  15.909  20.880  0.00  0.00    -0.025 C 
ATOM     16  C   UNL     1      46.482  15.695  21.620  0.00  0.00    +0.010 C 
ATOM     17  C   UNL     1      48.885  15.879  21.998  0.00  0.00    +0.016 C 
ATOM     18  C   UNL     1      50.247  16.395  21.582  0.00  0.00    +0.009 C 
ATOM     19  C   UNL     1      50.160  17.812  21.001  0.00  0.00    -0.047 C 
ATOM     20  C   UNL     1      49.887  18.812  22.114  0.00  0.00    +0.026 C 
ATOM     21  C   UNL     1      51.538  18.139  20.390  0.00  0.00    +0.009 C 
ATOM     22  C   UNL     1      51.517  19.517  19.746  0.00  0.00    +0.042 C 
ATOM     23  C   UNL     1      50.422  19.642  18.692  0.00  0.00    -0.043 C 
ATOM     28  C   UNL     1      50.325  21.116  18.259  0.00  0.00    +0.055 C 
ATOM     29  C   UNL     1      49.063  19.212  19.244  0.00  0.00    +0.055 C 
ATOM     30  C   UNL     1      49.141  17.826  19.873  0.00  0.00    +0.021 C 
ATOM     31  C   UNL     1      48.025  14.740  19.934  0.00  0.00    +0.008 C 
ATOM     32  C   UNL     1      49.504  14.390  19.773  0.00  0.00    +0.031 C 
ATOM     33  C   UNL     1      49.624  12.989  19.161  0.00  0.00    +0.034 C 
ATOM     34  O   UNL     1      47.301  12.029  14.772  0.00  0.00    -0.433 OA
ATOM     35  C   UNL     1      49.038  12.958  17.786  0.00  0.00    +0.057 C 
ENDROOT
BRANCH   3   4
ATOM      4  O   UNL     1      50.139  12.947  14.249  0.00  0.00    -0.451 OA
ATOM      5  H   UNL     1      49.972  13.722  13.694  0.00  0.00    +0.400 HD
ENDBRANCH   3   4
BRANCH  23  24
ATOM     24  C   UNL     1      50.773  18.818  17.479  0.00  0.00    +0.467 C 
ATOM     27  O   UNL     1      49.931  18.133  16.949  0.00  0.00    -0.493 OA
BRANCH  24  25
ATOM     25  O   UNL     1      52.022  18.848  16.987  0.00  0.00    -0.353 OA
ATOM     26  C   UNL     1      52.211  19.517  15.738  0.00  0.00    +0.253 C 
ENDBRANCH  24  25
ENDBRANCH  23  24
TORSDOF 3
ENDMDL
MODEL 6
REMARK VINA RESULT:      -5.7      2.317      6.236
REMARK  Name = ZINC95486134
REMARK  10 active torsions:
REMARK  status: ('A' for Active; 'I' for Inactive)
REMARK    1  A    between atoms: C1_1  and  C2_2
REMARK    2  A    between atoms: C3_3  and  O4_37
REMARK    3  A    between atoms: C11_14  and  C30_36
REMARK    4  A    between atoms: C14_17  and  C29_35
REMARK    5  A    between atoms: C15_18  and  C28_34
REMARK    6  A    between atoms: C18_21  and  C27_33
REMARK    7  A    between atoms: C21_25  and  C24_28
REMARK    8  A    between atoms: C21_25  and  C25_29
REMARK    9  A    between atoms: C25_29  and  O3_31
REMARK   10  A    between atoms: O3_31  and  C26_32
REMARK                            x       y       z     vdW  Elec       q    Type
REMARK                         _______ _______ _______ _____ _____    ______ ____
ROOT
ATOM      1  C   UNL     1      44.757  16.852  21.564  0.00  0.00    +0.111 C 
ATOM      2  C   UNL     1      45.242  18.126  20.929  0.00  0.00    -0.125 C 
ATOM      3  C   UNL     1      44.390  18.915  20.214  0.00  0.00    -0.001 C 
ATOM      6  C   UNL     1      45.036  20.138  19.647  0.00  0.00    +0.402 C 
ATOM      7  C   UNL     1      46.339  19.869  18.971  0.00  0.00    -0.091 C 
ATOM      8  C   UNL     1      47.164  19.068  19.692  0.00  0.00    -0.016 C 
ATOM      9  C   UNL     1      48.510  18.711  19.118  0.00  0.00    -0.004 C 
ATOM     10  C   UNL     1      49.214  20.047  18.810  0.00  0.00    +0.031 C 
ATOM     11  C   UNL     1      48.258  17.972  17.800  0.00  0.00    +0.040 C 
ATOM     12  C   UNL     1      49.579  17.580  17.162  0.00  0.00    +0.012 C 
ATOM     13  C   UNL     1      50.316  16.565  18.053  0.00  0.00    -0.022 C 
ATOM     14  C   UNL     1      51.691  16.369  17.388  0.00  0.00    +0.016 C 
ATOM     15  C   UNL     1      50.532  17.147  19.444  0.00  0.00    -0.025 C 
ATOM     16  C   UNL     1      51.713  18.152  19.324  0.00  0.00    +0.010 C 
ATOM     17  C   UNL     1      51.053  16.065  20.402  0.00  0.00    +0.016 C 
ATOM     18  C   UNL     1      50.218  14.801  20.422  0.00  0.00    +0.009 C 
ATOM     19  C   UNL     1      50.061  14.206  19.017  0.00  0.00    -0.047 C 
ATOM     20  C   UNL     1      51.375  13.583  18.569  0.00  0.00    +0.026 C 
ATOM     21  C   UNL     1      49.008  13.084  19.113  0.00  0.00    +0.009 C 
ATOM     22  C   UNL     1      48.758  12.475  17.741  0.00  0.00    +0.042 C 
ATOM     23  C   UNL     1      48.334  13.520  16.716  0.00  0.00    -0.043 C 
ATOM     28  C   UNL     1      48.325  12.865  15.323  0.00  0.00    +0.055 C 
ATOM     29  C   UNL     1      49.306  14.700  16.686  0.00  0.00    +0.055 C 
ATOM     30  C   UNL     1      49.514  15.273  18.082  0.00  0.00    +0.021 C 
ATOM     31  C   UNL     1      49.362  17.888  20.059  0.00  0.00    +0.008 C 
ATOM     32  C   UNL     1      48.508  16.962  20.925  0.00  0.00    +0.031 C 
ATOM     33  C   UNL     1      47.609  17.811  21.833  0.00  0.00    +0.034 C 
ATOM     34  O   UNL     1      44.553  21.247  19.727  0.00  0.00    -0.433 OA
ATOM     35  C   UNL     1      46.651  18.623  21.022  0.00  0.00    +0.057 C 
ENDROOT
BRANCH   3   4
ATOM      4  O   UNL     1      43.080  18.619  20.038  0.00  0.00    -0.451 OA
ATOM      5  H   UNL     1      42.831  17.738  20.350  0.00  0.00    +0.400 HD
ENDBRANCH   3   4
BRANCH  23  24
ATOM     24  C   UNL     1      46.938  14.005  17.016  0.00  0.00    +0.467 C 
ATOM     27  O   UNL     1      46.578  15.090  16.626  0.00  0.00    -0.493 OA
BRANCH  24  25
ATOM     25  O   UNL     1      46.096  13.230  17.717  0.00  0.00    -0.353 OA
ATOM     26  C   UNL     1      45.468  13.821  18.857  0.00  0.00    +0.253 C 
ENDBRANCH  24  25
ENDBRANCH  23  24
TORSDOF 3
ENDMDL
MODEL 7
REMARK VINA RESULT:      -5.5      2.565      6.923
REMARK  Name = ZINC95486134
REMARK  10 active torsions:
REMARK  status: ('A' for Active; 'I' for Inactive)
REMARK    1  A    between atoms: C1_1  and  C2_2
REMARK    2  A    between atoms: C3_3  and  O4_37
REMARK    3  A    between atoms: C11_14  and  C30_36
REMARK    4  A    between atoms: C14_17  and  C29_35
REMARK    5  A    between atoms: C15_18  and  C28_34
REMARK    6  A    between atoms: C18_21  and  C27_33
REMARK    7  A    between atoms: C21_25  and  C24_28
REMARK    8  A    between atoms: C21_25  and  C25_29
REMARK    9  A    between atoms: C25_29  and  O3_31
REMARK   10  A    between atoms: O3_31  and  C26_32
REMARK                            x       y       z     vdW  Elec       q    Type
REMARK                         _______ _______ _______ _____ _____    ______ ____
ROOT
ATOM      1  C   UNL     1      42.331  17.687  21.655  0.00  0.00    +0.111 C 
ATOM      2  C   UNL     1      42.367  19.030  20.978  0.00  0.00    -0.125 C 
ATOM      3  C   UNL     1      41.514  19.315  19.953  0.00  0.00    -0.001 C 
ATOM      6  C   UNL     1      41.688  20.689  19.391  0.00  0.00    +0.402 C 
ATOM      7  C   UNL     1      43.110  21.054  19.129  0.00  0.00    -0.091 C 
ATOM      8  C   UNL     1      43.944  20.746  20.154  0.00  0.00    -0.016 C 
ATOM      9  C   UNL     1      45.410  21.056  20.014  0.00  0.00    -0.004 C 
ATOM     10  C   UNL     1      45.503  22.562  19.697  0.00  0.00    +0.031 C 
ATOM     11  C   UNL     1      45.926  20.265  18.807  0.00  0.00    +0.040 C 
ATOM     12  C   UNL     1      47.407  20.532  18.604  0.00  0.00    +0.012 C 
ATOM     13  C   UNL     1      48.209  19.996  19.803  0.00  0.00    -0.022 C 
ATOM     14  C   UNL     1      49.657  20.460  19.559  0.00  0.00    +0.016 C 
ATOM     15  C   UNL     1      47.712  20.632  21.095  0.00  0.00    -0.025 C 
ATOM     16  C   UNL     1      48.297  22.072  21.132  0.00  0.00    +0.010 C 
ATOM     17  C   UNL     1      48.341  19.936  22.311  0.00  0.00    +0.016 C 
ATOM     18  C   UNL     1      48.193  18.429  22.308  0.00  0.00    +0.009 C 
ATOM     19  C   UNL     1      48.751  17.809  21.021  0.00  0.00    -0.047 C 
ATOM     20  C   UNL     1      50.271  17.871  21.033  0.00  0.00    +0.026 C 
ATOM     21  C   UNL     1      48.332  16.325  21.011  0.00  0.00    +0.009 C 
ATOM     22  C   UNL     1      48.808  15.650  19.734  0.00  0.00    +0.042 C 
ATOM     23  C   UNL     1      48.296  16.357  18.484  0.00  0.00    -0.043 C 
ATOM     28  C   UNL     1      49.002  15.754  17.256  0.00  0.00    +0.055 C 
ATOM     29  C   UNL     1      48.600  17.855  18.526  0.00  0.00    +0.055 C 
ATOM     30  C   UNL     1      48.099  18.479  19.822  0.00  0.00    +0.021 C 
ATOM     31  C   UNL     1      46.210  20.745  21.261  0.00  0.00    +0.008 C 
ATOM     32  C   UNL     1      45.638  19.538  22.007  0.00  0.00    +0.031 C 
ATOM     33  C   UNL     1      44.229  19.878  22.505  0.00  0.00    +0.034 C 
ATOM     34  O   UNL     1      40.763  21.441  19.169  0.00  0.00    -0.433 OA
ATOM     35  C   UNL     1      43.305  20.132  21.357  0.00  0.00    +0.057 C 
ENDROOT
BRANCH   3   4
ATOM      4  O   UNL     1      40.595  18.434  19.489  0.00  0.00    -0.451 OA
ATOM      5  H   UNL     1      40.920  17.525  19.423  0.00  0.00    +0.400 HD
ENDBRANCH   3   4
BRANCH  23  24
ATOM     24  C   UNL     1      46.813  16.133  18.331  0.00  0.00    +0.467 C 
ATOM     27  O   UNL     1      46.166  16.845  17.601  0.00  0.00    -0.493 OA
BRANCH  24  25
ATOM     25  O   UNL     1      46.213  15.141  19.007  0.00  0.00    -0.353 OA
ATOM     26  C   UNL     1      45.913  13.949  18.278  0.00  0.00    +0.253 C 
ENDBRANCH  24  25
ENDBRANCH  23  24
TORSDOF 3
ENDMDL
MODEL 8
REMARK VINA RESULT:      -5.3      2.645      4.876
REMARK  Name = ZINC95486134
REMARK  10 active torsions:
REMARK  status: ('A' for Active; 'I' for Inactive)
REMARK    1  A    between atoms: C1_1  and  C2_2
REMARK    2  A    between atoms: C3_3  and  O4_37
REMARK    3  A    between atoms: C11_14  and  C30_36
REMARK    4  A    between atoms: C14_17  and  C29_35
REMARK    5  A    between atoms: C15_18  and  C28_34
REMARK    6  A    between atoms: C18_21  and  C27_33
REMARK    7  A    between atoms: C21_25  and  C24_28
REMARK    8  A    between atoms: C21_25  and  C25_29
REMARK    9  A    between atoms: C25_29  and  O3_31
REMARK   10  A    between atoms: O3_31  and  C26_32
REMARK                            x       y       z     vdW  Elec       q    Type
REMARK                         _______ _______ _______ _____ _____    ______ ____
ROOT
ATOM      1  C   UNL     1      48.352  14.757  16.858  0.00  0.00    +0.111 C 
ATOM      2  C   UNL     1      49.434  14.880  17.895  0.00  0.00    -0.125 C 
ATOM      3  C   UNL     1      49.876  13.783  18.573  0.00  0.00    -0.001 C 
ATOM      6  C   UNL     1      50.949  14.083  19.570  0.00  0.00    +0.402 C 
ATOM      7  C   UNL     1      50.650  15.262  20.434  0.00  0.00    -0.091 C 
ATOM      8  C   UNL     1      50.196  16.337  19.742  0.00  0.00    -0.016 C 
ATOM      9  C   UNL     1      49.849  17.592  20.497  0.00  0.00    -0.004 C 
ATOM     10  C   UNL     1      51.112  17.977  21.294  0.00  0.00    +0.031 C 
ATOM     11  C   UNL     1      48.735  17.232  21.485  0.00  0.00    +0.040 C 
ATOM     12  C   UNL     1      48.333  18.458  22.287  0.00  0.00    +0.012 C 
ATOM     13  C   UNL     1      47.715  19.517  21.358  0.00  0.00    -0.022 C 
ATOM     14  C   UNL     1      47.498  20.755  22.248  0.00  0.00    +0.016 C 
ATOM     15  C   UNL     1      48.697  19.885  20.253  0.00  0.00    -0.025 C 
ATOM     16  C   UNL     1      49.756  20.824  20.897  0.00  0.00    +0.010 C 
ATOM     17  C   UNL     1      48.009  20.759  19.195  0.00  0.00    +0.016 C 
ATOM     18  C   UNL     1      46.716  20.181  18.658  0.00  0.00    +0.009 C 
ATOM     19  C   UNL     1      45.725  19.871  19.786  0.00  0.00    -0.047 C 
ATOM     20  C   UNL     1      45.158  21.167  20.348  0.00  0.00    +0.026 C 
ATOM     21  C   UNL     1      44.563  19.071  19.164  0.00  0.00    +0.009 C 
ATOM     22  C   UNL     1      43.556  18.680  20.236  0.00  0.00    +0.042 C 
ATOM     23  C   UNL     1      44.202  17.891  21.370  0.00  0.00    -0.043 C 
ATOM     28  C   UNL     1      43.173  17.737  22.505  0.00  0.00    +0.055 C 
ATOM     29  C   UNL     1      45.428  18.615  21.927  0.00  0.00    +0.055 C 
ATOM     30  C   UNL     1      46.402  18.978  20.812  0.00  0.00    +0.021 C 
ATOM     31  C   UNL     1      49.441  18.739  19.598  0.00  0.00    +0.008 C 
ATOM     32  C   UNL     1      48.713  18.241  18.349  0.00  0.00    +0.031 C 
ATOM     33  C   UNL     1      49.676  17.393  17.511  0.00  0.00    +0.034 C 
ATOM     34  O   UNL     1      51.967  13.434  19.670  0.00  0.00    -0.433 OA
ATOM     35  C   UNL     1      50.099  16.170  18.261  0.00  0.00    +0.057 C 
ENDROOT
BRANCH   3   4
ATOM      4  O   UNL     1      49.389  12.537  18.361  0.00  0.00    -0.451 OA
ATOM      5  H   UNL     1      49.584  12.183  17.481  0.00  0.00    +0.400 HD
ENDBRANCH   3   4
BRANCH  23  24
ATOM     24  C   UNL     1      44.585  16.514  20.892  0.00  0.00    +0.467 C 
ATOM     27  O   UNL     1      44.541  15.576  21.653  0.00  0.00    -0.493 OA
BRANCH  24  25
ATOM     25  O   UNL     1      44.973  16.330  19.621  0.00  0.00    -0.353 OA
ATOM     26  C   UNL     1      45.855  15.234  19.364  0.00  0.00    +0.253 C 
ENDBRANCH  24  25
ENDBRANCH  23  24
TORSDOF 3
ENDMDL
MODEL 9
REMARK VINA RESULT:      -5.3      2.220      4.867
REMARK  Name = ZINC95486134
REMARK  10 active torsions:
REMARK  status: ('A' for Active; 'I' for Inactive)
REMARK    1  A    between atoms: C1_1  and  C2_2
REMARK    2  A    between atoms: C3_3  and  O4_37
REMARK    3  A    between atoms: C11_14  and  C30_36
REMARK    4  A    between atoms: C14_17  and  C29_35
REMARK    5  A    between atoms: C15_18  and  C28_34
REMARK    6  A    between atoms: C18_21  and  C27_33
REMARK    7  A    between atoms: C21_25  and  C24_28
REMARK    8  A    between atoms: C21_25  and  C25_29
REMARK    9  A    between atoms: C25_29  and  O3_31
REMARK   10  A    between atoms: O3_31  and  C26_32
REMARK                            x       y       z     vdW  Elec       q    Type
REMARK                         _______ _______ _______ _____ _____    ______ ____
ROOT
ATOM      1  C   UNL     1      50.768  19.013  16.927  0.00  0.00    +0.111 C 
ATOM      2  C   UNL     1      51.023  19.904  18.112  0.00  0.00    -0.125 C 
ATOM      3  C   UNL     1      52.210  19.850  18.780  0.00  0.00    -0.001 C 
ATOM      6  C   UNL     1      52.295  20.796  19.934  0.00  0.00    +0.402 C 
ATOM      7  C   UNL     1      51.091  20.776  20.815  0.00  0.00    -0.091 C 
ATOM      8  C   UNL     1      49.920  20.813  20.129  0.00  0.00    -0.016 C 
ATOM      9  C   UNL     1      48.627  20.789  20.900  0.00  0.00    -0.004 C 
ATOM     10  C   UNL     1      48.694  21.971  21.887  0.00  0.00    +0.031 C 
ATOM     11  C   UNL     1      48.601  19.482  21.698  0.00  0.00    +0.040 C 
ATOM     12  C   UNL     1      47.318  19.390  22.505  0.00  0.00    +0.012 C 
ATOM     13  C   UNL     1      46.105  19.306  21.562  0.00  0.00    -0.022 C 
ATOM     14  C   UNL     1      44.873  19.376  22.483  0.00  0.00    +0.016 C 
ATOM     15  C   UNL     1      46.079  20.510  20.630  0.00  0.00    -0.025 C 
ATOM     16  C   UNL     1      45.555  21.708  21.470  0.00  0.00    +0.010 C 
ATOM     17  C   UNL     1      45.017  20.319  19.538  0.00  0.00    +0.016 C 
ATOM     18  C   UNL     1      45.124  19.005  18.791  0.00  0.00    +0.009 C 
ATOM     19  C   UNL     1      45.092  17.808  19.748  0.00  0.00    -0.047 C 
ATOM     20  C   UNL     1      43.686  17.622  20.299  0.00  0.00    +0.026 C 
ATOM     21  C   UNL     1      45.453  16.556  18.923  0.00  0.00    +0.009 C 
ATOM     22  C   UNL     1      45.492  15.326  19.818  0.00  0.00    +0.042 C 
ATOM     23  C   UNL     1      46.460  15.494  20.984  0.00  0.00    -0.043 C 
ATOM     28  C   UNL     1      46.270  14.312  21.952  0.00  0.00    +0.055 C 
ATOM     29  C   UNL     1      46.193  16.791  21.749  0.00  0.00    +0.055 C 
ATOM     30  C   UNL     1      46.169  17.987  20.806  0.00  0.00    +0.021 C 
ATOM     31  C   UNL     1      47.404  20.925  20.021  0.00  0.00    +0.008 C 
ATOM     32  C   UNL     1      47.619  20.272  18.655  0.00  0.00    +0.031 C 
ATOM     33  C   UNL     1      48.734  21.017  17.912  0.00  0.00    +0.034 C 
ATOM     34  O   UNL     1      53.249  21.516  20.139  0.00  0.00    -0.433 OA
ATOM     35  C   UNL     1      50.034  20.894  18.642  0.00  0.00    +0.057 C 
ENDROOT
BRANCH   3   4
ATOM      4  O   UNL     1      53.220  19.017  18.429  0.00  0.00    -0.451 OA
ATOM      5  H   UNL     1      54.056  19.202  18.878  0.00  0.00    +0.400 HD
ENDBRANCH   3   4
BRANCH  23  24
ATOM     24  C   UNL     1      47.882  15.469  20.485  0.00  0.00    +0.467 C 
ATOM     27  O   UNL     1      48.784  15.815  21.211  0.00  0.00    -0.493 OA
BRANCH  24  25
ATOM     25  O   UNL     1      48.147  15.061  19.234  0.00  0.00    -0.353 OA
ATOM     26  C   UNL     1      48.931  15.935  18.420  0.00  0.00    +0.253 C 
ENDBRANCH  24  25
ENDBRANCH  23  24
TORSDOF 3
ENDMDL
