MODEL 1
REMARK VINA RESULT:      -5.4      0.000      0.000
REMARK  Name = ZINC95485952
REMARK  7 active torsions:
REMARK  status: ('A' for Active; 'I' for Inactive)
REMARK    1  A    between atoms: C1_1  and  C2_2
REMARK    2  A    between atoms: C2_2  and  C3_4
REMARK    3  A    between atoms: C3_4  and  C4_5
REMARK    4  A    between atoms: C4_5  and  C5_6
REMARK    5  A    between atoms: C7_8  and  O5_20
REMARK    6  A    between atoms: C13_15  and  C14_18
REMARK    7  A    between atoms: C14_18  and  O4_19
REMARK                            x       y       z     vdW  Elec       q    Type
REMARK                         _______ _______ _______ _____ _____    ______ ____
ROOT
ATOM      5  C   UNL     1      44.488  20.856  19.601  0.00  0.00    +0.030 A 
ATOM      6  C   UNL     1      43.943  21.809  20.414  0.00  0.00    -0.051 A 
ATOM      7  C   UNL     1      44.764  22.604  21.211  0.00  0.00    +0.186 A 
ATOM     10  C   UNL     1      46.142  22.438  21.191  0.00  0.00    -0.050 A 
ATOM     11  C   UNL     1      46.709  21.474  20.374  0.00  0.00    +0.204 A 
ATOM     12  O   UNL     1      48.052  21.305  20.359  0.00  0.00    -0.295 OA
ATOM     13  C   UNL     1      48.654  20.678  19.231  0.00  0.00    +0.188 C 
ATOM     17  C   UNL     1      47.946  19.344  18.945  0.00  0.00    +0.035 C 
ATOM     18  C   UNL     1      46.480  19.657  18.703  0.00  0.00    +0.401 C 
ATOM     19  O   UNL     1      45.843  19.097  17.836  0.00  0.00    -0.434 OA
ATOM     20  C   UNL     1      45.873  20.675  19.574  0.00  0.00    -0.265 A 
ENDROOT
BRANCH   7   8
ATOM      8  O   UNL     1      44.212  23.550  22.011  0.00  0.00    -0.493 OA
ATOM      9  H   UNL     1      44.202  24.436  21.623  0.00  0.00    +0.402 HD
ENDBRANCH   7   8
BRANCH   5   4
ATOM      4  C   UNL     1      43.597  19.997  18.742  0.00  0.00    +0.097 C 
BRANCH   4   3
ATOM      3  C   UNL     1      42.228  19.853  19.410  0.00  0.00    +0.040 C 
BRANCH   3   2
ATOM      1  C   UNL     1      40.751  21.826  18.554  0.00  0.00    +0.060 C 
ATOM      2  C   UNL     1      41.160  20.377  18.487  0.00  0.00    +0.358 C 
ATOM     21  O   UNL     1      40.631  19.636  17.692  0.00  0.00    -0.457 OA
ENDBRANCH   3   2
ENDBRANCH   4   3
ENDBRANCH   5   4
BRANCH  13  14
ATOM     14  C   UNL     1      50.134  20.419  19.515  0.00  0.00    +0.223 C 
BRANCH  14  15
ATOM     15  O   UNL     1      50.933  21.248  18.667  0.00  0.00    -0.565 OA
ATOM     16  H   UNL     1      50.946  22.179  18.927  0.00  0.00    +0.387 HD
ENDBRANCH  14  15
ENDBRANCH  13  14
TORSDOF 6
ENDMDL
MODEL 2
REMARK VINA RESULT:      -5.4      1.441      5.869
REMARK  Name = ZINC95485952
REMARK  7 active torsions:
REMARK  status: ('A' for Active; 'I' for Inactive)
REMARK    1  A    between atoms: C1_1  and  C2_2
REMARK    2  A    between atoms: C2_2  and  C3_4
REMARK    3  A    between atoms: C3_4  and  C4_5
REMARK    4  A    between atoms: C4_5  and  C5_6
REMARK    5  A    between atoms: C7_8  and  O5_20
REMARK    6  A    between atoms: C13_15  and  C14_18
REMARK    7  A    between atoms: C14_18  and  O4_19
REMARK                            x       y       z     vdW  Elec       q    Type
REMARK                         _______ _______ _______ _____ _____    ______ ____
ROOT
ATOM      5  C   UNL     1      45.697  21.320  20.096  0.00  0.00    +0.030 A 
ATOM      6  C   UNL     1      46.077  22.517  20.634  0.00  0.00    -0.051 A 
ATOM      7  C   UNL     1      45.174  23.575  20.701  0.00  0.00    +0.186 A 
ATOM     10  C   UNL     1      43.880  23.429  20.220  0.00  0.00    -0.050 A 
ATOM     11  C   UNL     1      43.479  22.223  19.669  0.00  0.00    +0.204 A 
ATOM     12  O   UNL     1      42.221  22.082  19.193  0.00  0.00    -0.295 OA
ATOM     13  C   UNL     1      41.677  20.772  19.065  0.00  0.00    +0.188 C 
ATOM     17  C   UNL     1      42.649  19.886  18.271  0.00  0.00    +0.035 C 
ATOM     18  C   UNL     1      43.968  19.880  19.024  0.00  0.00    +0.401 C 
ATOM     19  O   UNL     1      44.631  18.871  19.141  0.00  0.00    -0.434 OA
ATOM     20  C   UNL     1      44.398  21.162  19.605  0.00  0.00    -0.265 A 
ENDROOT
BRANCH   7   8
ATOM      8  O   UNL     1      45.561  24.757  21.242  0.00  0.00    -0.493 OA
ATOM      9  H   UNL     1      44.911  25.466  21.144  0.00  0.00    +0.402 HD
ENDBRANCH   7   8
BRANCH   5   4
ATOM      4  C   UNL     1      46.677  20.179  20.025  0.00  0.00    +0.097 C 
BRANCH   4   3
ATOM      3  C   UNL     1      47.677  20.434  18.894  0.00  0.00    +0.040 C 
BRANCH   3   2
ATOM      1  C   UNL     1      50.221  20.912  18.567  0.00  0.00    +0.060 C 
ATOM      2  C   UNL     1      49.042  20.687  19.478  0.00  0.00    +0.358 C 
ATOM     21  O   UNL     1      49.192  20.712  20.676  0.00  0.00    -0.457 OA
ENDBRANCH   3   2
ENDBRANCH   4   3
ENDBRANCH   5   4
BRANCH  13  14
ATOM     14  C   UNL     1      40.336  20.840  18.333  0.00  0.00    +0.223 C 
BRANCH  14  15
ATOM     15  O   UNL     1      39.937  22.206  18.195  0.00  0.00    -0.565 OA
ATOM     16  H   UNL     1      39.373  22.526  18.912  0.00  0.00    +0.387 HD
ENDBRANCH  14  15
ENDBRANCH  13  14
TORSDOF 6
ENDMDL
MODEL 3
REMARK VINA RESULT:      -5.3      3.021      6.518
REMARK  Name = ZINC95485952
REMARK  7 active torsions:
REMARK  status: ('A' for Active; 'I' for Inactive)
REMARK    1  A    between atoms: C1_1  and  C2_2
REMARK    2  A    between atoms: C2_2  and  C3_4
REMARK    3  A    between atoms: C3_4  and  C4_5
REMARK    4  A    between atoms: C4_5  and  C5_6
REMARK    5  A    between atoms: C7_8  and  O5_20
REMARK    6  A    between atoms: C13_15  and  C14_18
REMARK    7  A    between atoms: C14_18  and  O4_19
REMARK                            x       y       z     vdW  Elec       q    Type
REMARK                         _______ _______ _______ _____ _____    ______ ____
ROOT
ATOM      5  C   UNL     1      48.253  19.651  18.907  0.00  0.00    +0.030 A 
ATOM      6  C   UNL     1      47.274  20.597  19.024  0.00  0.00    -0.051 A 
ATOM      7  C   UNL     1      45.971  20.311  18.626  0.00  0.00    +0.186 A 
ATOM     10  C   UNL     1      45.649  19.066  18.104  0.00  0.00    -0.050 A 
ATOM     11  C   UNL     1      46.631  18.097  17.976  0.00  0.00    +0.204 A 
ATOM     12  O   UNL     1      46.321  16.885  17.460  0.00  0.00    -0.295 OA
ATOM     13  C   UNL     1      47.168  15.777  17.749  0.00  0.00    +0.188 C 
ATOM     17  C   UNL     1      48.623  16.141  17.417  0.00  0.00    +0.035 C 
ATOM     18  C   UNL     1      48.982  17.360  18.248  0.00  0.00    +0.401 C 
ATOM     19  O   UNL     1      50.068  17.474  18.777  0.00  0.00    -0.434 OA
ATOM     20  C   UNL     1      47.944  18.394  18.380  0.00  0.00    -0.265 A 
ENDROOT
BRANCH   7   8
ATOM      8  O   UNL     1      45.007  21.257  18.751  0.00  0.00    -0.493 OA
ATOM      9  H   UNL     1      44.980  21.678  19.621  0.00  0.00    +0.402 HD
ENDBRANCH   7   8
BRANCH   5   4
ATOM      4  C   UNL     1      49.662  19.964  19.339  0.00  0.00    +0.097 C 
BRANCH   4   3
ATOM      3  C   UNL     1      50.213  21.111  18.489  0.00  0.00    +0.040 C 
BRANCH   3   2
ATOM      1  C   UNL     1      51.664  20.988  16.324  0.00  0.00    +0.060 C 
ATOM      2  C   UNL     1      51.462  20.657  17.781  0.00  0.00    +0.358 C 
ATOM     21  O   UNL     1      52.302  20.028  18.379  0.00  0.00    -0.457 OA
ENDBRANCH   3   2
ENDBRANCH   4   3
ENDBRANCH   5   4
BRANCH  13  14
ATOM     14  C   UNL     1      46.741  14.570  16.913  0.00  0.00    +0.223 C 
BRANCH  14  15
ATOM     15  O   UNL     1      46.652  14.950  15.538  0.00  0.00    -0.565 OA
ATOM     16  H   UNL     1      46.699  15.904  15.389  0.00  0.00    +0.387 HD
ENDBRANCH  14  15
ENDBRANCH  13  14
TORSDOF 6
ENDMDL
MODEL 4
REMARK VINA RESULT:      -5.1      2.377      5.484
REMARK  Name = ZINC95485952
REMARK  7 active torsions:
REMARK  status: ('A' for Active; 'I' for Inactive)
REMARK    1  A    between atoms: C1_1  and  C2_2
REMARK    2  A    between atoms: C2_2  and  C3_4
REMARK    3  A    between atoms: C3_4  and  C4_5
REMARK    4  A    between atoms: C4_5  and  C5_6
REMARK    5  A    between atoms: C7_8  and  O5_20
REMARK    6  A    between atoms: C13_15  and  C14_18
REMARK    7  A    between atoms: C14_18  and  O4_19
REMARK                            x       y       z     vdW  Elec       q    Type
REMARK                         _______ _______ _______ _____ _____    ______ ____
ROOT
ATOM      5  C   UNL     1      45.144  20.619  20.888  0.00  0.00    +0.030 A 
ATOM      6  C   UNL     1      45.920  21.662  21.310  0.00  0.00    -0.051 A 
ATOM      7  C   UNL     1      45.556  22.973  21.016  0.00  0.00    +0.186 A 
ATOM     10  C   UNL     1      44.404  23.238  20.288  0.00  0.00    -0.050 A 
ATOM     11  C   UNL     1      43.608  22.193  19.849  0.00  0.00    +0.204 A 
ATOM     12  O   UNL     1      42.489  22.450  19.133  0.00  0.00    -0.295 OA
ATOM     13  C   UNL     1      41.461  21.465  19.087  0.00  0.00    +0.188 C 
ATOM     17  C   UNL     1      42.061  20.113  18.671  0.00  0.00    +0.035 C 
ATOM     18  C   UNL     1      43.133  19.766  19.689  0.00  0.00    +0.401 C 
ATOM     19  O   UNL     1      43.279  18.633  20.101  0.00  0.00    -0.434 OA
ATOM     20  C   UNL     1      43.984  20.873  20.151  0.00  0.00    -0.265 A 
ENDROOT
BRANCH   7   8
ATOM      8  O   UNL     1      46.332  24.000  21.445  0.00  0.00    -0.493 OA
ATOM      9  H   UNL     1      47.278  23.803  21.446  0.00  0.00    +0.402 HD
ENDBRANCH   7   8
BRANCH   5   4
ATOM      4  C   UNL     1      45.543  19.203  21.208  0.00  0.00    +0.097 C 
BRANCH   4   3
ATOM      3  C   UNL     1      46.829  18.852  20.457  0.00  0.00    +0.040 C 
BRANCH   3   2
ATOM      1  C   UNL     1      46.193  18.556  17.944  0.00  0.00    +0.060 C 
ATOM      2  C   UNL     1      46.502  17.956  19.291  0.00  0.00    +0.358 C 
ATOM     21  O   UNL     1      46.488  16.757  19.435  0.00  0.00    -0.457 OA
ENDBRANCH   3   2
ENDBRANCH   4   3
ENDBRANCH   5   4
BRANCH  13  14
ATOM     14  C   UNL     1      40.393  21.882  18.075  0.00  0.00    +0.223 C 
BRANCH  14  15
ATOM     15  O   UNL     1      39.115  21.906  18.714  0.00  0.00    -0.565 OA
ATOM     16  H   UNL     1      38.986  22.658  19.308  0.00  0.00    +0.387 HD
ENDBRANCH  14  15
ENDBRANCH  13  14
TORSDOF 6
ENDMDL
MODEL 5
REMARK VINA RESULT:      -5.1     20.048     21.846
REMARK  Name = ZINC95485952
REMARK  7 active torsions:
REMARK  status: ('A' for Active; 'I' for Inactive)
REMARK    1  A    between atoms: C1_1  and  C2_2
REMARK    2  A    between atoms: C2_2  and  C3_4
REMARK    3  A    between atoms: C3_4  and  C4_5
REMARK    4  A    between atoms: C4_5  and  C5_6
REMARK    5  A    between atoms: C7_8  and  O5_20
REMARK    6  A    between atoms: C13_15  and  C14_18
REMARK    7  A    between atoms: C14_18  and  O4_19
REMARK                            x       y       z     vdW  Elec       q    Type
REMARK                         _______ _______ _______ _____ _____    ______ ____
ROOT
ATOM      5  C   UNL     1      53.415  32.913   5.463  0.00  0.00    +0.030 A 
ATOM      6  C   UNL     1      52.448  33.234   6.374  0.00  0.00    -0.051 A 
ATOM      7  C   UNL     1      51.122  33.370   5.972  0.00  0.00    +0.186 A 
ATOM     10  C   UNL     1      50.765  33.184   4.643  0.00  0.00    -0.050 A 
ATOM     11  C   UNL     1      51.733  32.860   3.707  0.00  0.00    +0.204 A 
ATOM     12  O   UNL     1      51.389  32.686   2.410  0.00  0.00    -0.295 OA
ATOM     13  C   UNL     1      52.248  31.926   1.566  0.00  0.00    +0.188 C 
ATOM     17  C   UNL     1      53.682  32.469   1.667  0.00  0.00    +0.035 C 
ATOM     18  C   UNL     1      54.094  32.377   3.126  0.00  0.00    +0.401 C 
ATOM     19  O   UNL     1      55.211  32.032   3.452  0.00  0.00    -0.434 OA
ATOM     20  C   UNL     1      53.070  32.727   4.122  0.00  0.00    -0.265 A 
ENDROOT
BRANCH   7   8
ATOM      8  O   UNL     1      50.171  33.684   6.886  0.00  0.00    -0.493 OA
ATOM      9  H   UNL     1      50.099  33.051   7.612  0.00  0.00    +0.402 HD
ENDBRANCH   7   8
BRANCH   5   4
ATOM      4  C   UNL     1      54.849  32.768   5.903  0.00  0.00    +0.097 C 
BRANCH   4   3
ATOM      3  C   UNL     1      55.391  34.132   6.335  0.00  0.00    +0.040 C 
BRANCH   3   2
ATOM      1  C   UNL     1      57.861  33.865   5.538  0.00  0.00    +0.060 C 
ATOM      2  C   UNL     1      56.518  34.538   5.421  0.00  0.00    +0.358 C 
ATOM     21  O   UNL     1      56.345  35.401   4.594  0.00  0.00    -0.457 OA
ENDBRANCH   3   2
ENDBRANCH   4   3
ENDBRANCH   5   4
BRANCH  13  14
ATOM     14  C   UNL     1      51.767  32.025   0.118  0.00  0.00    +0.223 C 
BRANCH  14  15
ATOM     15  O   UNL     1      50.372  32.338   0.100  0.00  0.00    -0.565 OA
ATOM     16  H   UNL     1      49.824  31.669  -0.333  0.00  0.00    +0.387 HD
ENDBRANCH  14  15
ENDBRANCH  13  14
TORSDOF 6
ENDMDL
MODEL 6
REMARK VINA RESULT:      -4.8     20.907     22.098
REMARK  Name = ZINC95485952
REMARK  7 active torsions:
REMARK  status: ('A' for Active; 'I' for Inactive)
REMARK    1  A    between atoms: C1_1  and  C2_2
REMARK    2  A    between atoms: C2_2  and  C3_4
REMARK    3  A    between atoms: C3_4  and  C4_5
REMARK    4  A    between atoms: C4_5  and  C5_6
REMARK    5  A    between atoms: C7_8  and  O5_20
REMARK    6  A    between atoms: C13_15  and  C14_18
REMARK    7  A    between atoms: C14_18  and  O4_19
REMARK                            x       y       z     vdW  Elec       q    Type
REMARK                         _______ _______ _______ _____ _____    ______ ____
ROOT
ATOM      5  C   UNL     1      54.167  32.631   4.207  0.00  0.00    +0.030 A 
ATOM      6  C   UNL     1      54.814  33.134   5.301  0.00  0.00    -0.051 A 
ATOM      7  C   UNL     1      54.228  34.144   6.060  0.00  0.00    +0.186 A 
ATOM     10  C   UNL     1      52.984  34.655   5.715  0.00  0.00    -0.050 A 
ATOM     11  C   UNL     1      52.317  34.158   4.608  0.00  0.00    +0.204 A 
ATOM     12  O   UNL     1      51.107  34.660   4.266  0.00  0.00    -0.295 OA
ATOM     13  C   UNL     1      50.241  33.874   3.454  0.00  0.00    +0.188 C 
ATOM     17  C   UNL     1      50.995  33.402   2.202  0.00  0.00    +0.035 C 
ATOM     18  C   UNL     1      52.201  32.610   2.675  0.00  0.00    +0.401 C 
ATOM     19  O   UNL     1      52.555  31.592   2.117  0.00  0.00    -0.434 OA
ATOM     20  C   UNL     1      52.916  33.139   3.847  0.00  0.00    -0.265 A 
ENDROOT
BRANCH   7   8
ATOM      8  O   UNL     1      54.878  34.632   7.146  0.00  0.00    -0.493 OA
ATOM      9  H   UNL     1      54.497  35.447   7.498  0.00  0.00    +0.402 HD
ENDBRANCH   7   8
BRANCH   5   4
ATOM      4  C   UNL     1      54.804  31.539   3.388  0.00  0.00    +0.097 C 
BRANCH   4   3
ATOM      3  C   UNL     1      56.078  32.072   2.730  0.00  0.00    +0.040 C 
BRANCH   3   2
ATOM      1  C   UNL     1      58.164  31.752   4.264  0.00  0.00    +0.060 C 
ATOM      2  C   UNL     1      57.257  31.245   3.173  0.00  0.00    +0.358 C 
ATOM     21  O   UNL     1      57.475  30.176   2.655  0.00  0.00    -0.457 OA
ENDBRANCH   3   2
ENDBRANCH   4   3
ENDBRANCH   5   4
BRANCH  13  14
ATOM     14  C   UNL     1      49.029  34.707   3.036  0.00  0.00    +0.223 C 
BRANCH  14  15
ATOM     15  O   UNL     1      48.002  34.582   4.022  0.00  0.00    -0.565 OA
ATOM     16  H   UNL     1      48.124  35.151   4.793  0.00  0.00    +0.387 HD
ENDBRANCH  14  15
ENDBRANCH  13  14
TORSDOF 6
ENDMDL
MODEL 7
REMARK VINA RESULT:      -4.7     20.176     21.194
REMARK  Name = ZINC95485952
REMARK  7 active torsions:
REMARK  status: ('A' for Active; 'I' for Inactive)
REMARK    1  A    between atoms: C1_1  and  C2_2
REMARK    2  A    between atoms: C2_2  and  C3_4
REMARK    3  A    between atoms: C3_4  and  C4_5
REMARK    4  A    between atoms: C4_5  and  C5_6
REMARK    5  A    between atoms: C7_8  and  O5_20
REMARK    6  A    between atoms: C13_15  and  C14_18
REMARK    7  A    between atoms: C14_18  and  O4_19
REMARK                            x       y       z     vdW  Elec       q    Type
REMARK                         _______ _______ _______ _____ _____    ______ ____
ROOT
ATOM      5  C   UNL     1      52.343  33.211   4.767  0.00  0.00    +0.030 A 
ATOM      6  C   UNL     1      52.050  33.932   5.889  0.00  0.00    -0.051 A 
ATOM      7  C   UNL     1      53.064  34.318   6.762  0.00  0.00    +0.186 A 
ATOM     10  C   UNL     1      54.384  33.973   6.505  0.00  0.00    -0.050 A 
ATOM     11  C   UNL     1      54.699  33.239   5.373  0.00  0.00    +0.204 A 
ATOM     12  O   UNL     1      55.984  32.896   5.125  0.00  0.00    -0.295 OA
ATOM     13  C   UNL     1      56.364  32.570   3.792  0.00  0.00    +0.188 C 
ATOM     17  C   UNL     1      55.410  31.505   3.229  0.00  0.00    +0.035 C 
ATOM     18  C   UNL     1      54.006  32.081   3.294  0.00  0.00    +0.401 C 
ATOM     19  O   UNL     1      53.206  31.913   2.397  0.00  0.00    -0.434 OA
ATOM     20  C   UNL     1      53.668  32.854   4.498  0.00  0.00    -0.265 A 
ENDROOT
BRANCH   7   8
ATOM      8  O   UNL     1      52.761  35.037   7.871  0.00  0.00    -0.493 OA
ATOM      9  H   UNL     1      52.672  34.504   8.673  0.00  0.00    +0.402 HD
ENDBRANCH   7   8
BRANCH   5   4
ATOM      4  C   UNL     1      51.242  32.796   3.826  0.00  0.00    +0.097 C 
BRANCH   4   3
ATOM      3  C   UNL     1      50.095  33.805   3.906  0.00  0.00    +0.040 C 
BRANCH   3   2
ATOM      1  C   UNL     1      50.380  33.691   1.314  0.00  0.00    +0.060 C 
ATOM      2  C   UNL     1      49.839  34.383   2.539  0.00  0.00    +0.358 C 
ATOM     21  O   UNL     1      49.198  35.401   2.423  0.00  0.00    -0.457 OA
ENDBRANCH   3   2
ENDBRANCH   4   3
ENDBRANCH   5   4
BRANCH  13  14
ATOM     14  C   UNL     1      57.794  32.030   3.780  0.00  0.00    +0.223 C 
BRANCH  14  15
ATOM     15  O   UNL     1      58.348  32.122   5.095  0.00  0.00    -0.565 OA
ATOM     16  H   UNL     1      59.152  32.656   5.147  0.00  0.00    +0.387 HD
ENDBRANCH  14  15
ENDBRANCH  13  14
TORSDOF 6
ENDMDL
MODEL 8
REMARK VINA RESULT:      -4.6     19.948     22.236
REMARK  Name = ZINC95485952
REMARK  7 active torsions:
REMARK  status: ('A' for Active; 'I' for Inactive)
REMARK    1  A    between atoms: C1_1  and  C2_2
REMARK    2  A    between atoms: C2_2  and  C3_4
REMARK    3  A    between atoms: C3_4  and  C4_5
REMARK    4  A    between atoms: C4_5  and  C5_6
REMARK    5  A    between atoms: C7_8  and  O5_20
REMARK    6  A    between atoms: C13_15  and  C14_18
REMARK    7  A    between atoms: C14_18  and  O4_19
REMARK                            x       y       z     vdW  Elec       q    Type
REMARK                         _______ _______ _______ _____ _____    ______ ____
ROOT
ATOM      5  C   UNL     1      56.333  32.276   3.773  0.00  0.00    +0.030 A 
ATOM      6  C   UNL     1      57.496  32.675   4.369  0.00  0.00    -0.051 A 
ATOM      7  C   UNL     1      57.463  33.440   5.532  0.00  0.00    +0.186 A 
ATOM     10  C   UNL     1      56.251  33.808   6.100  0.00  0.00    -0.050 A 
ATOM     11  C   UNL     1      55.063  33.414   5.507  0.00  0.00    +0.204 A 
ATOM     12  O   UNL     1      53.880  33.778   6.054  0.00  0.00    -0.295 OA
ATOM     13  C   UNL     1      52.715  33.021   5.742  0.00  0.00    +0.188 C 
ATOM     17  C   UNL     1      52.578  32.891   4.217  0.00  0.00    +0.035 C 
ATOM     18  C   UNL     1      53.842  32.221   3.709  0.00  0.00    +0.401 C 
ATOM     19  O   UNL     1      53.811  31.380   2.835  0.00  0.00    -0.434 OA
ATOM     20  C   UNL     1      55.106  32.643   4.332  0.00  0.00    -0.265 A 
ENDROOT
BRANCH   7   8
ATOM      8  O   UNL     1      58.624  33.826   6.117  0.00  0.00    -0.493 OA
ATOM      9  H   UNL     1      59.416  33.554   5.635  0.00  0.00    +0.402 HD
ENDBRANCH   7   8
BRANCH   5   4
ATOM      4  C   UNL     1      56.374  31.449   2.514  0.00  0.00    +0.097 C 
BRANCH   4   3
ATOM      3  C   UNL     1      57.830  31.209   2.108  0.00  0.00    +0.040 C 
BRANCH   3   2
ATOM      1  C   UNL     1      58.006  28.878   0.949  0.00  0.00    +0.060 C 
ATOM      2  C   UNL     1      58.136  29.736   2.181  0.00  0.00    +0.358 C 
ATOM     21  O   UNL     1      58.485  29.243   3.227  0.00  0.00    -0.457 OA
ENDBRANCH   3   2
ENDBRANCH   4   3
ENDBRANCH   5   4
BRANCH  13  14
ATOM     14  C   UNL     1      51.478  33.722   6.307  0.00  0.00    +0.223 C 
BRANCH  14  15
ATOM     15  O   UNL     1      50.362  33.485   5.446  0.00  0.00    -0.565 OA
ATOM     16  H   UNL     1      50.365  34.020   4.641  0.00  0.00    +0.387 HD
ENDBRANCH  14  15
ENDBRANCH  13  14
TORSDOF 6
ENDMDL
MODEL 9
REMARK VINA RESULT:      -4.6      4.865      8.215
REMARK  Name = ZINC95485952
REMARK  7 active torsions:
REMARK  status: ('A' for Active; 'I' for Inactive)
REMARK    1  A    between atoms: C1_1  and  C2_2
REMARK    2  A    between atoms: C2_2  and  C3_4
REMARK    3  A    between atoms: C3_4  and  C4_5
REMARK    4  A    between atoms: C4_5  and  C5_6
REMARK    5  A    between atoms: C7_8  and  O5_20
REMARK    6  A    between atoms: C13_15  and  C14_18
REMARK    7  A    between atoms: C14_18  and  O4_19
REMARK                            x       y       z     vdW  Elec       q    Type
REMARK                         _______ _______ _______ _____ _____    ______ ____
ROOT
ATOM      5  C   UNL     1      48.962  16.979  17.655  0.00  0.00    +0.030 A 
ATOM      6  C   UNL     1      47.989  17.917  17.857  0.00  0.00    -0.051 A 
ATOM      7  C   UNL     1      46.667  17.641  17.519  0.00  0.00    +0.186 A 
ATOM     10  C   UNL     1      46.320  16.414  16.970  0.00  0.00    -0.050 A 
ATOM     11  C   UNL     1      47.295  15.453  16.756  0.00  0.00    +0.204 A 
ATOM     12  O   UNL     1      46.960  14.259  16.215  0.00  0.00    -0.295 OA
ATOM     13  C   UNL     1      47.823  13.145  16.419  0.00  0.00    +0.188 C 
ATOM     17  C   UNL     1      49.258  13.525  16.023  0.00  0.00    +0.035 C 
ATOM     18  C   UNL     1      49.658  14.715  16.877  0.00  0.00    +0.401 C 
ATOM     19  O   UNL     1      50.771  14.815  17.351  0.00  0.00    -0.434 OA
ATOM     20  C   UNL     1      48.627  15.741  17.100  0.00  0.00    -0.265 A 
ENDROOT
BRANCH   7   8
ATOM      8  O   UNL     1      45.709  18.579  17.728  0.00  0.00    -0.493 OA
ATOM      9  H   UNL     1      44.896  18.428  17.229  0.00  0.00    +0.402 HD
ENDBRANCH   7   8
BRANCH   5   4
ATOM      4  C   UNL     1      50.392  17.282  18.021  0.00  0.00    +0.097 C 
BRANCH   4   3
ATOM      3  C   UNL     1      50.696  18.750  17.719  0.00  0.00    +0.040 C 
BRANCH   3   2
ATOM      1  C   UNL     1      51.980  20.189  15.961  0.00  0.00    +0.060 C 
ATOM      2  C   UNL     1      51.524  18.844  16.464  0.00  0.00    +0.358 C 
ATOM     21  O   UNL     1      51.823  17.840  15.861  0.00  0.00    -0.457 OA
ENDBRANCH   3   2
ENDBRANCH   4   3
ENDBRANCH   5   4
BRANCH  13  14
ATOM     14  C   UNL     1      47.354  11.966  15.565  0.00  0.00    +0.223 C 
BRANCH  14  15
ATOM     15  O   UNL     1      47.232  12.383  14.204  0.00  0.00    -0.565 OA
ATOM     16  H   UNL     1      47.113  13.336  14.093  0.00  0.00    +0.387 HD
ENDBRANCH  14  15
ENDBRANCH  13  14
TORSDOF 6
ENDMDL
