MODEL 1
REMARK VINA RESULT:      -6.7      0.000      0.000
REMARK  Name = ZINC95485975
REMARK  24 active torsions:
REMARK  status: ('A' for Active; 'I' for Inactive)
REMARK    1  A    between atoms: C1_1  and  C2_2
REMARK    2  A    between atoms: C2_2  and  C3_3
REMARK    3  A    between atoms: C3_3  and  C4_4
REMARK    4  A    between atoms: C6_6  and  C34_41
REMARK    5  A    between atoms: C7_8  and  C26_33
REMARK    6  A    between atoms: C7_8  and  C27_34
REMARK    7  A    between atoms: C8_9  and  C20_27
REMARK    8  A    between atoms: C11_14  and  C13_17
REMARK    9  A    between atoms: C13_17  and  C14_19
REMARK   10  A    between atoms: C17_22  and  O6_26
REMARK   11  A    between atoms: C18_23  and  O5_25
REMARK   12  A    between atoms: C20_27  and  C21_28
REMARK   13  A    between atoms: C21_28  and  C22_29
REMARK   14  A    between atoms: C23_30  and  C24_31
REMARK   15  A    between atoms: C23_30  and  C25_32
REMARK   16  A    between atoms: C27_34  and  C28_35
REMARK   17  A    between atoms: C28_35  and  C29_36
REMARK   18  A    between atoms: C30_37  and  C31_38
REMARK   19  A    between atoms: C30_37  and  C32_39
REMARK   20  A    between atoms: C32_39  and  C33_40
REMARK   21  A    between atoms: C34_41  and  C35_42
REMARK   22  A    between atoms: C35_42  and  C36_43
REMARK   23  A    between atoms: C37_44  and  C38_45
REMARK   24  A    between atoms: C37_44  and  C39_46
REMARK                            x       y       z     vdW  Elec       q    Type
REMARK                         _______ _______ _______ _____ _____    ______ ____
ROOT
ATOM      4  C   UNL     1      45.585  15.853  21.270  0.00  0.00    -0.140 C 
ATOM      5  C   UNL     1      45.622  15.117  19.928  0.00  0.00    +0.086 C 
ATOM      6  C   UNL     1      46.142  16.017  18.813  0.00  0.00    -0.022 C 
ATOM     13  C   UNL     1      47.504  16.624  19.131  0.00  0.00    -0.030 C 
ATOM     21  C   UNL     1      48.563  15.516  19.176  0.00  0.00    +0.052 C 
ATOM     22  C   UNL     1      47.488  17.365  20.471  0.00  0.00    -0.129 C 
ATOM     29  C   UNL     1      46.504  18.513  20.411  0.00  0.00    +0.393 C 
ATOM     30  C   UNL     1      45.019  18.257  20.372  0.00  0.00    -0.071 C 
ATOM     43  O   UNL     1      46.916  19.659  20.400  0.00  0.00    -0.391 OA
ATOM     44  C   UNL     1      44.647  17.035  21.174  0.00  0.00    +0.387 C 
ATOM     45  O   UNL     1      43.577  17.001  21.753  0.00  0.00    -0.404 OA
ATOM     46  C   UNL     1      46.980  16.399  21.530  0.00  0.00    +0.382 C 
ATOM     47  O   UNL     1      47.629  16.093  22.500  0.00  0.00    -0.393 OA
ENDROOT
BRANCH  30  31
ATOM     31  C   UNL     1      44.301  19.459  20.951  0.00  0.00    +0.417 C 
ATOM     42  O   UNL     1      44.609  19.881  22.045  0.00  0.00    -0.408 OA
BRANCH  31  32
ATOM     32  C   UNL     1      43.230  20.113  20.188  0.00  0.00    -0.152 A 
ATOM     33  C   UNL     1      42.084  19.393  19.830  0.00  0.00    +0.071 A 
ATOM     34  C   UNL     1      41.080  20.008  19.114  0.00  0.00    +0.005 A 
ATOM     35  C   UNL     1      41.204  21.342  18.745  0.00  0.00    +0.121 A 
ATOM     38  C   UNL     1      42.343  22.065  19.097  0.00  0.00    +0.073 A 
ATOM     41  C   UNL     1      43.351  21.458  19.819  0.00  0.00    +0.081 A 
BRANCH  35  36
ATOM     36  O   UNL     1      40.212  21.942  18.038  0.00  0.00    -0.484 OA
ATOM     37  H   UNL     1      39.537  22.363  18.588  0.00  0.00    +0.395 HD
ENDBRANCH  35  36
BRANCH  38  39
ATOM     39  O   UNL     1      42.459  23.370  18.733  0.00  0.00    -0.482 OA
ATOM     40  H   UNL     1      43.279  23.576  18.262  0.00  0.00    +0.391 HD
ENDBRANCH  38  39
ENDBRANCH  31  32
ENDBRANCH  30  31
BRANCH   4   3
ATOM      3  C   UNL     1      45.154  14.905  22.400  0.00  0.00    +0.075 C 
BRANCH   3   2
ATOM      1  C   UNL     1      46.496  12.800  22.505  0.00  0.00    +0.018 C 
ATOM      2  C   UNL     1      45.247  13.457  21.913  0.00  0.00    -0.003 C 
ENDBRANCH   3   2
ENDBRANCH   4   3
BRANCH   6   7
ATOM      7  C   UNL     1      46.273  15.177  17.531  0.00  0.00    +0.040 C 
BRANCH   7   8
ATOM      8  C   UNL     1      45.938  13.717  17.841  0.00  0.00    +0.044 C 
BRANCH   8   9
ATOM      9  C   UNL     1      46.574  12.824  16.808  0.00  0.00    -0.059 C 
ATOM     10  C   UNL     1      47.468  11.937  17.169  0.00  0.00    -0.129 C 
ATOM     11  C   UNL     1      48.079  11.020  16.141  0.00  0.00    +0.070 C 
ATOM     12  C   UNL     1      47.886  11.834  18.613  0.00  0.00    +0.071 C 
ENDBRANCH   8   9
ENDBRANCH   7   8
ENDBRANCH   6   7
BRANCH  13  14
ATOM     14  C   UNL     1      47.881  17.609  18.015  0.00  0.00    +0.049 C 
BRANCH  14  15
ATOM     15  C   UNL     1      49.050  17.041  17.207  0.00  0.00    +0.024 C 
BRANCH  15  16
ATOM     16  C   UNL     1      50.024  18.146  16.888  0.00  0.00    -0.048 C 
ATOM     17  C   UNL     1      51.233  18.118  17.391  0.00  0.00    -0.125 C 
ATOM     20  C   UNL     1      51.619  17.036  18.368  0.00  0.00    +0.071 C 
BRANCH  17  18
ATOM     18  C   UNL     1      52.240  19.166  16.994  0.00  0.00    +0.045 C 
ATOM     19  C   UNL     1      51.791  19.838  15.695  0.00  0.00    +0.018 C 
ENDBRANCH  17  18
ENDBRANCH  15  16
ENDBRANCH  14  15
ENDBRANCH  13  14
BRANCH  22  23
ATOM     23  C   UNL     1      48.894  17.871  20.830  0.00  0.00    +0.083 C 
BRANCH  23  24
ATOM     24  C   UNL     1      48.841  19.376  21.098  0.00  0.00    +0.048 C 
BRANCH  24  25
ATOM     25  C   UNL     1      50.231  19.951  21.010  0.00  0.00    -0.056 C 
ATOM     26  C   UNL     1      50.568  20.696  19.987  0.00  0.00    -0.129 C 
ATOM     27  C   UNL     1      51.959  21.271  19.898  0.00  0.00    +0.071 C 
ATOM     28  C   UNL     1      49.566  20.977  18.897  0.00  0.00    +0.073 C 
ENDBRANCH  24  25
ENDBRANCH  23  24
ENDBRANCH  22  23
TORSDOF 16
ENDMDL
MODEL 2
REMARK VINA RESULT:      -6.0      4.172      8.855
REMARK  Name = ZINC95485975
REMARK  24 active torsions:
REMARK  status: ('A' for Active; 'I' for Inactive)
REMARK    1  A    between atoms: C1_1  and  C2_2
REMARK    2  A    between atoms: C2_2  and  C3_3
REMARK    3  A    between atoms: C3_3  and  C4_4
REMARK    4  A    between atoms: C6_6  and  C34_41
REMARK    5  A    between atoms: C7_8  and  C26_33
REMARK    6  A    between atoms: C7_8  and  C27_34
REMARK    7  A    between atoms: C8_9  and  C20_27
REMARK    8  A    between atoms: C11_14  and  C13_17
REMARK    9  A    between atoms: C13_17  and  C14_19
REMARK   10  A    between atoms: C17_22  and  O6_26
REMARK   11  A    between atoms: C18_23  and  O5_25
REMARK   12  A    between atoms: C20_27  and  C21_28
REMARK   13  A    between atoms: C21_28  and  C22_29
REMARK   14  A    between atoms: C23_30  and  C24_31
REMARK   15  A    between atoms: C23_30  and  C25_32
REMARK   16  A    between atoms: C27_34  and  C28_35
REMARK   17  A    between atoms: C28_35  and  C29_36
REMARK   18  A    between atoms: C30_37  and  C31_38
REMARK   19  A    between atoms: C30_37  and  C32_39
REMARK   20  A    between atoms: C32_39  and  C33_40
REMARK   21  A    between atoms: C34_41  and  C35_42
REMARK   22  A    between atoms: C35_42  and  C36_43
REMARK   23  A    between atoms: C37_44  and  C38_45
REMARK   24  A    between atoms: C37_44  and  C39_46
REMARK                            x       y       z     vdW  Elec       q    Type
REMARK                         _______ _______ _______ _____ _____    ______ ____
ROOT
ATOM      4  C   UNL     1      49.608  13.411  19.542  0.00  0.00    -0.140 C 
ATOM      5  C   UNL     1      49.846  14.907  19.763  0.00  0.00    +0.086 C 
ATOM      6  C   UNL     1      49.184  15.744  18.675  0.00  0.00    -0.022 C 
ATOM     13  C   UNL     1      47.695  15.452  18.530  0.00  0.00    -0.030 C 
ATOM     21  C   UNL     1      46.956  15.915  19.792  0.00  0.00    +0.052 C 
ATOM     22  C   UNL     1      47.434  13.959  18.309  0.00  0.00    -0.129 C 
ATOM     29  C   UNL     1      48.092  13.509  17.022  0.00  0.00    +0.393 C 
ATOM     30  C   UNL     1      49.592  13.411  16.914  0.00  0.00    -0.071 C 
ATOM     43  O   UNL     1      47.400  13.217  16.063  0.00  0.00    -0.391 OA
ATOM     44  C   UNL     1      50.214  12.991  18.222  0.00  0.00    +0.387 C 
ATOM     45  O   UNL     1      51.219  12.303  18.215  0.00  0.00    -0.404 OA
ATOM     46  C   UNL     1      48.106  13.198  19.441  0.00  0.00    +0.382 C 
ATOM     47  O   UNL     1      47.497  12.480  20.196  0.00  0.00    -0.393 OA
ENDROOT
BRANCH  30  31
ATOM     31  C   UNL     1      49.939  12.383  15.856  0.00  0.00    +0.417 C 
ATOM     42  O   UNL     1      49.720  11.207  16.057  0.00  0.00    -0.408 OA
BRANCH  31  32
ATOM     32  C   UNL     1      50.541  12.811  14.587  0.00  0.00    -0.152 A 
ATOM     33  C   UNL     1      51.822  13.375  14.573  0.00  0.00    +0.071 A 
ATOM     34  C   UNL     1      52.386  13.775  13.382  0.00  0.00    +0.005 A 
ATOM     35  C   UNL     1      51.685  13.621  12.192  0.00  0.00    +0.121 A 
ATOM     38  C   UNL     1      50.408  13.060  12.197  0.00  0.00    +0.073 A 
ATOM     41  C   UNL     1      49.838  12.652  13.386  0.00  0.00    +0.081 A 
BRANCH  35  36
ATOM     36  O   UNL     1      52.245  14.018  11.021  0.00  0.00    -0.484 OA
ATOM     37  H   UNL     1      51.662  14.557  10.469  0.00  0.00    +0.395 HD
ENDBRANCH  35  36
BRANCH  38  39
ATOM     39  O   UNL     1      49.726  12.912  11.030  0.00  0.00    -0.482 OA
ATOM     40  H   UNL     1      49.633  13.730  10.522  0.00  0.00    +0.391 HD
ENDBRANCH  38  39
ENDBRANCH  31  32
ENDBRANCH  30  31
BRANCH   4   3
ATOM      3  C   UNL     1      50.196  12.589  20.699  0.00  0.00    +0.075 C 
BRANCH   3   2
ATOM      1  C   UNL     1      52.457  12.854  21.729  0.00  0.00    +0.018 C 
ATOM      2  C   UNL     1      51.074  13.490  21.570  0.00  0.00    -0.003 C 
ENDBRANCH   3   2
ENDBRANCH   4   3
BRANCH   6   7
ATOM      7  C   UNL     1      49.355  17.230  19.032  0.00  0.00    +0.040 C 
BRANCH   7   8
ATOM      8  C   UNL     1      50.782  17.673  18.703  0.00  0.00    +0.044 C 
BRANCH   8   9
ATOM      9  C   UNL     1      50.813  18.291  17.330  0.00  0.00    -0.059 C 
ATOM     10  C   UNL     1      51.693  19.220  17.049  0.00  0.00    -0.129 C 
ATOM     11  C   UNL     1      51.749  19.813  15.665  0.00  0.00    +0.070 C 
ATOM     12  C   UNL     1      52.650  19.697  18.112  0.00  0.00    +0.071 C 
ENDBRANCH   8   9
ENDBRANCH   7   8
ENDBRANCH   6   7
BRANCH  13  14
ATOM     14  C   UNL     1      47.148  16.242  17.332  0.00  0.00    +0.049 C 
BRANCH  14  15
ATOM     15  C   UNL     1      46.012  17.156  17.799  0.00  0.00    +0.024 C 
BRANCH  15  16
ATOM     16  C   UNL     1      46.482  18.588  17.780  0.00  0.00    -0.048 C 
ATOM     17  C   UNL     1      46.127  19.406  18.739  0.00  0.00    -0.125 C 
ATOM     20  C   UNL     1      45.169  18.945  19.808  0.00  0.00    +0.071 C 
BRANCH  17  18
ATOM     18  C   UNL     1      46.676  20.810  18.776  0.00  0.00    +0.045 C 
ATOM     19  C   UNL     1      48.162  20.765  19.139  0.00  0.00    +0.018 C 
ENDBRANCH  17  18
ENDBRANCH  15  16
ENDBRANCH  14  15
ENDBRANCH  13  14
BRANCH  22  23
ATOM     23  C   UNL     1      45.926  13.668  18.281  0.00  0.00    +0.083 C 
BRANCH  23  24
ATOM     24  C   UNL     1      45.680  12.320  17.600  0.00  0.00    +0.048 C 
BRANCH  24  25
ATOM     25  C   UNL     1      44.227  12.208  17.217  0.00  0.00    -0.056 C 
ATOM     26  C   UNL     1      43.865  11.404  16.248  0.00  0.00    -0.129 C 
ATOM     27  C   UNL     1      42.412  11.293  15.864  0.00  0.00    +0.071 C 
ATOM     28  C   UNL     1      44.902  10.591  15.516  0.00  0.00    +0.073 C 
ENDBRANCH  24  25
ENDBRANCH  23  24
ENDBRANCH  22  23
TORSDOF 16
ENDMDL
MODEL 3
REMARK VINA RESULT:      -5.8      3.563      7.254
REMARK  Name = ZINC95485975
REMARK  24 active torsions:
REMARK  status: ('A' for Active; 'I' for Inactive)
REMARK    1  A    between atoms: C1_1  and  C2_2
REMARK    2  A    between atoms: C2_2  and  C3_3
REMARK    3  A    between atoms: C3_3  and  C4_4
REMARK    4  A    between atoms: C6_6  and  C34_41
REMARK    5  A    between atoms: C7_8  and  C26_33
REMARK    6  A    between atoms: C7_8  and  C27_34
REMARK    7  A    between atoms: C8_9  and  C20_27
REMARK    8  A    between atoms: C11_14  and  C13_17
REMARK    9  A    between atoms: C13_17  and  C14_19
REMARK   10  A    between atoms: C17_22  and  O6_26
REMARK   11  A    between atoms: C18_23  and  O5_25
REMARK   12  A    between atoms: C20_27  and  C21_28
REMARK   13  A    between atoms: C21_28  and  C22_29
REMARK   14  A    between atoms: C23_30  and  C24_31
REMARK   15  A    between atoms: C23_30  and  C25_32
REMARK   16  A    between atoms: C27_34  and  C28_35
REMARK   17  A    between atoms: C28_35  and  C29_36
REMARK   18  A    between atoms: C30_37  and  C31_38
REMARK   19  A    between atoms: C30_37  and  C32_39
REMARK   20  A    between atoms: C32_39  and  C33_40
REMARK   21  A    between atoms: C34_41  and  C35_42
REMARK   22  A    between atoms: C35_42  and  C36_43
REMARK   23  A    between atoms: C37_44  and  C38_45
REMARK   24  A    between atoms: C37_44  and  C39_46
REMARK                            x       y       z     vdW  Elec       q    Type
REMARK                         _______ _______ _______ _____ _____    ______ ____
ROOT
ATOM      4  C   UNL     1      46.813  14.202  19.851  0.00  0.00    -0.140 C 
ATOM      5  C   UNL     1      47.782  14.332  21.030  0.00  0.00    +0.086 C 
ATOM      6  C   UNL     1      49.080  15.013  20.612  0.00  0.00    -0.022 C 
ATOM     13  C   UNL     1      48.850  16.368  19.953  0.00  0.00    -0.030 C 
ATOM     21  C   UNL     1      48.283  17.352  20.984  0.00  0.00    +0.052 C 
ATOM     22  C   UNL     1      47.883  16.260  18.770  0.00  0.00    -0.129 C 
ATOM     29  C   UNL     1      48.469  15.354  17.709  0.00  0.00    +0.393 C 
ATOM     30  C   UNL     1      48.584  13.869  17.938  0.00  0.00    -0.071 C 
ATOM     43  O   UNL     1      48.849  15.830  16.655  0.00  0.00    -0.391 OA
ATOM     44  C   UNL     1      47.441  13.348  18.772  0.00  0.00    +0.387 C 
ATOM     45  O   UNL     1      47.017  12.224  18.573  0.00  0.00    -0.404 OA
ATOM     46  C   UNL     1      46.611  15.593  19.270  0.00  0.00    +0.382 C 
ATOM     47  O   UNL     1      45.529  16.121  19.208  0.00  0.00    -0.393 OA
ENDROOT
BRANCH  30  31
ATOM     31  C   UNL     1      48.569  13.166  16.595  0.00  0.00    +0.417 C 
ATOM     42  O   UNL     1      47.547  13.124  15.943  0.00  0.00    -0.408 OA
BRANCH  31  32
ATOM     32  C   UNL     1      49.791  12.533  16.084  0.00  0.00    -0.152 A 
ATOM     33  C   UNL     1      50.138  11.241  16.498  0.00  0.00    +0.071 A 
ATOM     34  C   UNL     1      51.285  10.649  16.017  0.00  0.00    +0.005 A 
ATOM     35  C   UNL     1      52.100  11.331  15.123  0.00  0.00    +0.121 A 
ATOM     38  C   UNL     1      51.762  12.618  14.707  0.00  0.00    +0.073 A 
ATOM     41  C   UNL     1      50.611  13.217  15.180  0.00  0.00    +0.081 A 
BRANCH  35  36
ATOM     36  O   UNL     1      53.230  10.743  14.653  0.00  0.00    -0.484 OA
ATOM     37  H   UNL     1      54.046  11.118  15.011  0.00  0.00    +0.395 HD
ENDBRANCH  35  36
BRANCH  38  39
ATOM     39  O   UNL     1      52.564  13.283  13.832  0.00  0.00    -0.482 OA
ATOM     40  H   UNL     1      53.283  12.746  13.471  0.00  0.00    +0.391 HD
ENDBRANCH  38  39
ENDBRANCH  31  32
ENDBRANCH  30  31
BRANCH   4   3
ATOM      3  C   UNL     1      45.474  13.605  20.310  0.00  0.00    +0.075 C 
BRANCH   3   2
ATOM      1  C   UNL     1      44.646  14.692  22.401  0.00  0.00    +0.018 C 
ATOM      2  C   UNL     1      45.451  13.519  21.837  0.00  0.00    -0.003 C 
ENDBRANCH   3   2
ENDBRANCH   4   3
BRANCH   6   7
ATOM      7  C   UNL     1      49.944  15.225  21.867  0.00  0.00    +0.040 C 
BRANCH   7   8
ATOM      8  C   UNL     1      50.966  14.092  21.979  0.00  0.00    +0.044 C 
BRANCH   8   9
ATOM      9  C   UNL     1      51.824  14.063  20.741  0.00  0.00    -0.059 C 
ATOM     10  C   UNL     1      51.749  13.049  19.915  0.00  0.00    -0.129 C 
ATOM     11  C   UNL     1      52.580  13.036  18.659  0.00  0.00    +0.070 C 
ATOM     12  C   UNL     1      50.831  11.893  20.223  0.00  0.00    +0.071 C 
ENDBRANCH   8   9
ENDBRANCH   7   8
ENDBRANCH   6   7
BRANCH  13  14
ATOM     14  C   UNL     1      50.196  16.913  19.454  0.00  0.00    +0.049 C 
BRANCH  14  15
ATOM     15  C   UNL     1      50.403  18.331  19.991  0.00  0.00    +0.024 C 
BRANCH  15  16
ATOM     16  C   UNL     1      50.951  19.208  18.894  0.00  0.00    -0.048 C 
ATOM     17  C   UNL     1      50.401  20.371  18.650  0.00  0.00    -0.125 C 
ATOM     20  C   UNL     1      49.161  20.791  19.397  0.00  0.00    +0.071 C 
BRANCH  17  18
ATOM     18  C   UNL     1      51.009  21.293  17.623  0.00  0.00    +0.045 C 
ATOM     19  C   UNL     1      51.766  20.466  16.582  0.00  0.00    +0.018 C 
ENDBRANCH  17  18
ENDBRANCH  15  16
ENDBRANCH  14  15
ENDBRANCH  13  14
BRANCH  22  23
ATOM     23  C   UNL     1      47.573  17.648  18.191  0.00  0.00    +0.083 C 
BRANCH  23  24
ATOM     24  C   UNL     1      46.101  17.985  18.434  0.00  0.00    +0.048 C 
BRANCH  24  25
ATOM     25  C   UNL     1      45.892  19.469  18.273  0.00  0.00    -0.056 C 
ATOM     26  C   UNL     1      45.526  20.194  19.301  0.00  0.00    -0.129 C 
ATOM     27  C   UNL     1      45.316  21.678  19.141  0.00  0.00    +0.071 C 
ATOM     28  C   UNL     1      45.313  19.544  20.644  0.00  0.00    +0.073 C 
ENDBRANCH  24  25
ENDBRANCH  23  24
ENDBRANCH  22  23
TORSDOF 16
ENDMDL
MODEL 4
REMARK VINA RESULT:      -5.6      3.232      7.769
REMARK  Name = ZINC95485975
REMARK  24 active torsions:
REMARK  status: ('A' for Active; 'I' for Inactive)
REMARK    1  A    between atoms: C1_1  and  C2_2
REMARK    2  A    between atoms: C2_2  and  C3_3
REMARK    3  A    between atoms: C3_3  and  C4_4
REMARK    4  A    between atoms: C6_6  and  C34_41
REMARK    5  A    between atoms: C7_8  and  C26_33
REMARK    6  A    between atoms: C7_8  and  C27_34
REMARK    7  A    between atoms: C8_9  and  C20_27
REMARK    8  A    between atoms: C11_14  and  C13_17
REMARK    9  A    between atoms: C13_17  and  C14_19
REMARK   10  A    between atoms: C17_22  and  O6_26
REMARK   11  A    between atoms: C18_23  and  O5_25
REMARK   12  A    between atoms: C20_27  and  C21_28
REMARK   13  A    between atoms: C21_28  and  C22_29
REMARK   14  A    between atoms: C23_30  and  C24_31
REMARK   15  A    between atoms: C23_30  and  C25_32
REMARK   16  A    between atoms: C27_34  and  C28_35
REMARK   17  A    between atoms: C28_35  and  C29_36
REMARK   18  A    between atoms: C30_37  and  C31_38
REMARK   19  A    between atoms: C30_37  and  C32_39
REMARK   20  A    between atoms: C32_39  and  C33_40
REMARK   21  A    between atoms: C34_41  and  C35_42
REMARK   22  A    between atoms: C35_42  and  C36_43
REMARK   23  A    between atoms: C37_44  and  C38_45
REMARK   24  A    between atoms: C37_44  and  C39_46
REMARK                            x       y       z     vdW  Elec       q    Type
REMARK                         _______ _______ _______ _____ _____    ______ ____
ROOT
ATOM      4  C   UNL     1      50.727  19.337  18.727  0.00  0.00    -0.140 C 
ATOM      5  C   UNL     1      49.522  20.248  18.978  0.00  0.00    +0.086 C 
ATOM      6  C   UNL     1      48.542  19.617  19.959  0.00  0.00    -0.022 C 
ATOM     13  C   UNL     1      49.198  19.219  21.276  0.00  0.00    -0.030 C 
ATOM     21  C   UNL     1      49.647  20.479  22.028  0.00  0.00    +0.052 C 
ATOM     22  C   UNL     1      50.408  18.308  21.048  0.00  0.00    -0.129 C 
ATOM     29  C   UNL     1      49.964  17.025  20.379  0.00  0.00    +0.393 C 
ATOM     30  C   UNL     1      49.507  17.020  18.943  0.00  0.00    -0.071 C 
ATOM     43  O   UNL     1      49.981  15.982  21.008  0.00  0.00    -0.391 OA
ATOM     44  C   UNL     1      50.260  18.033  18.120  0.00  0.00    +0.387 C 
ATOM     45  O   UNL     1      50.496  17.799  16.948  0.00  0.00    -0.404 OA
ATOM     46  C   UNL     1      51.344  19.013  20.079  0.00  0.00    +0.382 C 
ATOM     47  O   UNL     1      52.485  19.290  20.358  0.00  0.00    -0.393 OA
ENDROOT
BRANCH  30  31
ATOM     31  C   UNL     1      49.745  15.642  18.360  0.00  0.00    +0.417 C 
ATOM     42  O   UNL     1      50.873  15.200  18.287  0.00  0.00    -0.408 OA
BRANCH  31  32
ATOM     32  C   UNL     1      48.611  14.840  17.881  0.00  0.00    -0.152 A 
ATOM     33  C   UNL     1      47.601  14.454  18.769  0.00  0.00    +0.071 A 
ATOM     34  C   UNL     1      46.538  13.702  18.318  0.00  0.00    +0.005 A 
ATOM     35  C   UNL     1      46.467  13.326  16.983  0.00  0.00    +0.121 A 
ATOM     38  C   UNL     1      47.469  13.707  16.092  0.00  0.00    +0.073 A 
ATOM     41  C   UNL     1      48.535  14.465  16.535  0.00  0.00    +0.081 A 
BRANCH  35  36
ATOM     36  O   UNL     1      45.417  12.585  16.544  0.00  0.00    -0.484 OA
ATOM     37  H   UNL     1      44.601  13.089  16.429  0.00  0.00    +0.395 HD
ENDBRANCH  35  36
BRANCH  38  39
ATOM     39  O   UNL     1      47.396  13.336  14.786  0.00  0.00    -0.482 OA
ATOM     40  H   UNL     1      48.192  12.897  14.456  0.00  0.00    +0.391 HD
ENDBRANCH  38  39
ENDBRANCH  31  32
ENDBRANCH  30  31
BRANCH   4   3
ATOM      3  C   UNL     1      51.752  20.028  17.815  0.00  0.00    +0.075 C 
BRANCH   3   2
ATOM      1  C   UNL     1      51.545  21.439  15.764  0.00  0.00    +0.018 C 
ATOM      2  C   UNL     1      51.138  21.303  17.232  0.00  0.00    -0.003 C 
ENDBRANCH   3   2
ENDBRANCH   4   3
BRANCH   6   7
ATOM      7  C   UNL     1      47.430  20.637  20.260  0.00  0.00    +0.040 C 
BRANCH   7   8
ATOM      8  C   UNL     1      46.754  21.053  18.953  0.00  0.00    +0.044 C 
BRANCH   8   9
ATOM      9  C   UNL     1      45.486  20.261  18.768  0.00  0.00    -0.059 C 
ATOM     10  C   UNL     1      44.334  20.773  19.127  0.00  0.00    -0.129 C 
ATOM     11  C   UNL     1      43.062  19.996  18.909  0.00  0.00    +0.070 C 
ATOM     12  C   UNL     1      44.282  22.141  19.759  0.00  0.00    +0.071 C 
ENDBRANCH   8   9
ENDBRANCH   7   8
ENDBRANCH   6   7
BRANCH  13  14
ATOM     14  C   UNL     1      48.168  18.481  22.143  0.00  0.00    +0.049 C 
BRANCH  14  15
ATOM     15  C   UNL     1      47.086  17.876  21.244  0.00  0.00    +0.024 C 
BRANCH  15  16
ATOM     16  C   UNL     1      45.795  17.770  22.015  0.00  0.00    -0.048 C 
ATOM     17  C   UNL     1      44.741  17.231  21.455  0.00  0.00    -0.125 C 
ATOM     20  C   UNL     1      44.788  16.809  20.009  0.00  0.00    +0.071 C 
BRANCH  17  18
ATOM     18  C   UNL     1      43.480  17.032  22.256  0.00  0.00    +0.045 C 
ATOM     19  C   UNL     1      42.467  18.119  21.890  0.00  0.00    +0.018 C 
ENDBRANCH  17  18
ENDBRANCH  15  16
ENDBRANCH  14  15
ENDBRANCH  13  14
BRANCH  22  23
ATOM     23  C   UNL     1      51.125  18.012  22.374  0.00  0.00    +0.083 C 
BRANCH  23  24
ATOM     24  C   UNL     1      52.615  17.787  22.108  0.00  0.00    +0.048 C 
BRANCH  24  25
ATOM     25  C   UNL     1      52.990  16.382  22.505  0.00  0.00    -0.056 C 
ATOM     26  C   UNL     1      53.465  15.554  21.610  0.00  0.00    -0.129 C 
ATOM     27  C   UNL     1      53.839  14.148  22.006  0.00  0.00    +0.071 C 
ATOM     28  C   UNL     1      53.637  16.005  20.182  0.00  0.00    +0.073 C 
ENDBRANCH  24  25
ENDBRANCH  23  24
ENDBRANCH  22  23
TORSDOF 16
ENDMDL
MODEL 5
REMARK VINA RESULT:      -5.6      4.128      8.291
REMARK  Name = ZINC95485975
REMARK  24 active torsions:
REMARK  status: ('A' for Active; 'I' for Inactive)
REMARK    1  A    between atoms: C1_1  and  C2_2
REMARK    2  A    between atoms: C2_2  and  C3_3
REMARK    3  A    between atoms: C3_3  and  C4_4
REMARK    4  A    between atoms: C6_6  and  C34_41
REMARK    5  A    between atoms: C7_8  and  C26_33
REMARK    6  A    between atoms: C7_8  and  C27_34
REMARK    7  A    between atoms: C8_9  and  C20_27
REMARK    8  A    between atoms: C11_14  and  C13_17
REMARK    9  A    between atoms: C13_17  and  C14_19
REMARK   10  A    between atoms: C17_22  and  O6_26
REMARK   11  A    between atoms: C18_23  and  O5_25
REMARK   12  A    between atoms: C20_27  and  C21_28
REMARK   13  A    between atoms: C21_28  and  C22_29
REMARK   14  A    between atoms: C23_30  and  C24_31
REMARK   15  A    between atoms: C23_30  and  C25_32
REMARK   16  A    between atoms: C27_34  and  C28_35
REMARK   17  A    between atoms: C28_35  and  C29_36
REMARK   18  A    between atoms: C30_37  and  C31_38
REMARK   19  A    between atoms: C30_37  and  C32_39
REMARK   20  A    between atoms: C32_39  and  C33_40
REMARK   21  A    between atoms: C34_41  and  C35_42
REMARK   22  A    between atoms: C35_42  and  C36_43
REMARK   23  A    between atoms: C37_44  and  C38_45
REMARK   24  A    between atoms: C37_44  and  C39_46
REMARK                            x       y       z     vdW  Elec       q    Type
REMARK                         _______ _______ _______ _____ _____    ______ ____
ROOT
ATOM      4  C   UNL     1      50.770  12.525  19.733  0.00  0.00    -0.140 C 
ATOM      5  C   UNL     1      51.719  13.670  20.098  0.00  0.00    +0.086 C 
ATOM      6  C   UNL     1      51.216  15.003  19.558  0.00  0.00    -0.022 C 
ATOM     13  C   UNL     1      49.793  15.322  20.001  0.00  0.00    -0.030 C 
ATOM     21  C   UNL     1      49.767  15.555  21.517  0.00  0.00    +0.052 C 
ATOM     22  C   UNL     1      48.828  14.188  19.646  0.00  0.00    -0.129 C 
ATOM     29  C   UNL     1      48.783  14.003  18.145  0.00  0.00    +0.393 C 
ATOM     30  C   UNL     1      49.961  13.427  17.402  0.00  0.00    -0.071 C 
ATOM     43  O   UNL     1      47.781  14.319  17.529  0.00  0.00    -0.391 OA
ATOM     44  C   UNL     1      50.686  12.396  18.229  0.00  0.00    +0.387 C 
ATOM     45  O   UNL     1      51.211  11.445  17.678  0.00  0.00    -0.404 OA
ATOM     46  C   UNL     1      49.385  12.902  20.235  0.00  0.00    +0.382 C 
ATOM     47  O   UNL     1      48.777  12.232  21.034  0.00  0.00    -0.393 OA
ENDROOT
BRANCH  30  31
ATOM     31  C   UNL     1      49.463  12.770  16.130  0.00  0.00    +0.417 C 
ATOM     42  O   UNL     1      48.492  12.044  16.162  0.00  0.00    -0.408 OA
BRANCH  31  32
ATOM     32  C   UNL     1      50.156  13.012  14.858  0.00  0.00    -0.152 A 
ATOM     33  C   UNL     1      51.493  13.427  14.856  0.00  0.00    +0.071 A 
ATOM     34  C   UNL     1      52.142  13.653  13.662  0.00  0.00    +0.005 A 
ATOM     35  C   UNL     1      51.472  13.470  12.459  0.00  0.00    +0.121 A 
ATOM     38  C   UNL     1      50.140  13.057  12.453  0.00  0.00    +0.073 A 
ATOM     41  C   UNL     1      49.484  12.823  13.645  0.00  0.00    +0.081 A 
BRANCH  35  36
ATOM     36  O   UNL     1      52.116  13.696  11.285  0.00  0.00    -0.484 OA
ATOM     37  H   UNL     1      52.276  14.630  11.098  0.00  0.00    +0.395 HD
ENDBRANCH  35  36
BRANCH  38  39
ATOM     39  O   UNL     1      49.488  12.881  11.273  0.00  0.00    -0.482 OA
ATOM     40  H   UNL     1      49.991  12.380  10.616  0.00  0.00    +0.391 HD
ENDBRANCH  38  39
ENDBRANCH  31  32
ENDBRANCH  30  31
BRANCH   4   3
ATOM      3  C   UNL     1      51.238  11.207  20.369  0.00  0.00    +0.075 C 
BRANCH   3   2
ATOM      1  C   UNL     1      53.607  10.449  20.133  0.00  0.00    +0.018 C 
ATOM      2  C   UNL     1      52.662  11.375  20.903  0.00  0.00    -0.003 C 
ENDBRANCH   3   2
ENDBRANCH   4   3
BRANCH   6   7
ATOM      7  C   UNL     1      52.145  16.117  20.070  0.00  0.00    +0.040 C 
BRANCH   7   8
ATOM      8  C   UNL     1      52.994  16.646  18.913  0.00  0.00    +0.044 C 
BRANCH   8   9
ATOM      9  C   UNL     1      52.650  18.089  18.654  0.00  0.00    -0.059 C 
ATOM     10  C   UNL     1      52.007  18.424  17.562  0.00  0.00    -0.129 C 
ATOM     11  C   UNL     1      51.631  19.863  17.319  0.00  0.00    +0.070 C 
ATOM     12  C   UNL     1      51.644  17.369  16.548  0.00  0.00    +0.071 C 
ENDBRANCH   8   9
ENDBRANCH   7   8
ENDBRANCH   6   7
BRANCH  13  14
ATOM     14  C   UNL     1      49.333  16.611  19.306  0.00  0.00    +0.049 C 
BRANCH  14  15
ATOM     15  C   UNL     1      49.302  17.756  20.322  0.00  0.00    +0.024 C 
BRANCH  15  16
ATOM     16  C   UNL     1      48.686  18.975  19.686  0.00  0.00    -0.048 C 
ATOM     17  C   UNL     1      47.818  19.694  20.354  0.00  0.00    -0.125 C 
ATOM     20  C   UNL     1      47.360  19.247  21.719  0.00  0.00    +0.071 C 
BRANCH  17  18
ATOM     18  C   UNL     1      47.278  20.969  19.759  0.00  0.00    +0.045 C 
ATOM     19  C   UNL     1      46.609  21.800  20.856  0.00  0.00    +0.018 C 
ENDBRANCH  17  18
ENDBRANCH  15  16
ENDBRANCH  14  15
ENDBRANCH  13  14
BRANCH  22  23
ATOM     23  C   UNL     1      47.424  14.473  20.201  0.00  0.00    +0.083 C 
BRANCH  23  24
ATOM     24  C   UNL     1      46.542  15.043  19.089  0.00  0.00    +0.048 C 
BRANCH  24  25
ATOM     25  C   UNL     1      45.613  16.080  19.666  0.00  0.00    -0.056 C 
ATOM     26  C   UNL     1      45.412  17.207  19.029  0.00  0.00    -0.129 C 
ATOM     27  C   UNL     1      44.485  18.245  19.606  0.00  0.00    +0.071 C 
ATOM     28  C   UNL     1      46.111  17.466  17.718  0.00  0.00    +0.073 C 
ENDBRANCH  24  25
ENDBRANCH  23  24
ENDBRANCH  22  23
TORSDOF 16
ENDMDL
MODEL 6
REMARK VINA RESULT:      -5.6      1.541      2.093
REMARK  Name = ZINC95485975
REMARK  24 active torsions:
REMARK  status: ('A' for Active; 'I' for Inactive)
REMARK    1  A    between atoms: C1_1  and  C2_2
REMARK    2  A    between atoms: C2_2  and  C3_3
REMARK    3  A    between atoms: C3_3  and  C4_4
REMARK    4  A    between atoms: C6_6  and  C34_41
REMARK    5  A    between atoms: C7_8  and  C26_33
REMARK    6  A    between atoms: C7_8  and  C27_34
REMARK    7  A    between atoms: C8_9  and  C20_27
REMARK    8  A    between atoms: C11_14  and  C13_17
REMARK    9  A    between atoms: C13_17  and  C14_19
REMARK   10  A    between atoms: C17_22  and  O6_26
REMARK   11  A    between atoms: C18_23  and  O5_25
REMARK   12  A    between atoms: C20_27  and  C21_28
REMARK   13  A    between atoms: C21_28  and  C22_29
REMARK   14  A    between atoms: C23_30  and  C24_31
REMARK   15  A    between atoms: C23_30  and  C25_32
REMARK   16  A    between atoms: C27_34  and  C28_35
REMARK   17  A    between atoms: C28_35  and  C29_36
REMARK   18  A    between atoms: C30_37  and  C31_38
REMARK   19  A    between atoms: C30_37  and  C32_39
REMARK   20  A    between atoms: C32_39  and  C33_40
REMARK   21  A    between atoms: C34_41  and  C35_42
REMARK   22  A    between atoms: C35_42  and  C36_43
REMARK   23  A    between atoms: C37_44  and  C38_45
REMARK   24  A    between atoms: C37_44  and  C39_46
REMARK                            x       y       z     vdW  Elec       q    Type
REMARK                         _______ _______ _______ _____ _____    ______ ____
ROOT
ATOM      4  C   UNL     1      47.452  14.670  20.957  0.00  0.00    -0.140 C 
ATOM      5  C   UNL     1      47.608  14.160  19.521  0.00  0.00    +0.086 C 
ATOM      6  C   UNL     1      47.866  15.305  18.549  0.00  0.00    -0.022 C 
ATOM     13  C   UNL     1      49.062  16.161  18.949  0.00  0.00    -0.030 C 
ATOM     21  C   UNL     1      50.349  15.335  18.828  0.00  0.00    +0.052 C 
ATOM     22  C   UNL     1      48.926  16.681  20.383  0.00  0.00    -0.129 C 
ATOM     29  C   UNL     1      47.703  17.565  20.495  0.00  0.00    +0.393 C 
ATOM     30  C   UNL     1      46.317  16.978  20.422  0.00  0.00    -0.071 C 
ATOM     43  O   UNL     1      47.840  18.765  20.651  0.00  0.00    -0.391 OA
ATOM     44  C   UNL     1      46.265  15.602  21.037  0.00  0.00    +0.387 C 
ATOM     45  O   UNL     1      45.253  15.238  21.608  0.00  0.00    -0.404 OA
ATOM     46  C   UNL     1      48.693  15.483  21.290  0.00  0.00    +0.382 C 
ATOM     47  O   UNL     1      49.430  15.201  22.203  0.00  0.00    -0.393 OA
ENDROOT
BRANCH  30  31
ATOM     31  C   UNL     1      45.363  17.885  21.173  0.00  0.00    +0.417 C 
ATOM     42  O   UNL     1      45.441  17.983  22.379  0.00  0.00    -0.408 OA
BRANCH  31  32
ATOM     32  C   UNL     1      44.342  18.645  20.440  0.00  0.00    -0.152 A 
ATOM     33  C   UNL     1      44.648  19.215  19.199  0.00  0.00    +0.071 A 
ATOM     34  C   UNL     1      43.688  19.927  18.513  0.00  0.00    +0.005 A 
ATOM     35  C   UNL     1      42.417  20.082  19.051  0.00  0.00    +0.121 A 
ATOM     38  C   UNL     1      42.105  19.517  20.288  0.00  0.00    +0.073 A 
ATOM     41  C   UNL     1      43.058  18.798  20.979  0.00  0.00    +0.081 A 
BRANCH  35  36
ATOM     36  O   UNL     1      41.476  20.786  18.372  0.00  0.00    -0.484 OA
ATOM     37  H   UNL     1      40.705  21.027  18.903  0.00  0.00    +0.395 HD
ENDBRANCH  35  36
BRANCH  38  39
ATOM     39  O   UNL     1      40.859  19.672  20.811  0.00  0.00    -0.482 OA
ATOM     40  H   UNL     1      40.852  19.921  21.746  0.00  0.00    +0.391 HD
ENDBRANCH  38  39
ENDBRANCH  31  32
ENDBRANCH  30  31
BRANCH   4   3
ATOM      3  C   UNL     1      47.293  13.497  21.936  0.00  0.00    +0.075 C 
BRANCH   3   2
ATOM      1  C   UNL     1      48.855  11.632  22.505  0.00  0.00    +0.018 C 
ATOM      2  C   UNL     1      48.028  12.271  21.388  0.00  0.00    -0.003 C 
ENDBRANCH   3   2
ENDBRANCH   4   3
BRANCH   6   7
ATOM      7  C   UNL     1      48.139  14.710  17.157  0.00  0.00    +0.040 C 
BRANCH   7   8
ATOM      8  C   UNL     1      47.901  13.199  17.193  0.00  0.00    +0.044 C 
BRANCH   8   9
ATOM      9  C   UNL     1      49.034  12.494  16.494  0.00  0.00    -0.059 C 
ATOM     10  C   UNL     1      48.810  11.830  15.387  0.00  0.00    -0.129 C 
ATOM     11  C   UNL     1      49.949  11.155  14.668  0.00  0.00    +0.070 C 
ATOM     12  C   UNL     1      47.411  11.742  14.832  0.00  0.00    +0.071 C 
ENDBRANCH   8   9
ENDBRANCH   7   8
ENDBRANCH   6   7
BRANCH  13  14
ATOM     14  C   UNL     1      49.162  17.355  17.988  0.00  0.00    +0.049 C 
BRANCH  14  15
ATOM     15  C   UNL     1      50.359  17.160  17.054  0.00  0.00    +0.024 C 
BRANCH  15  16
ATOM     16  C   UNL     1      50.853  18.504  16.583  0.00  0.00    -0.048 C 
ATOM     17  C   UNL     1      51.941  19.019  17.098  0.00  0.00    -0.125 C 
ATOM     20  C   UNL     1      52.644  18.317  18.232  0.00  0.00    +0.071 C 
BRANCH  17  18
ATOM     18  C   UNL     1      52.491  20.314  16.558  0.00  0.00    +0.045 C 
ATOM     19  C   UNL     1      51.338  21.277  16.269  0.00  0.00    +0.018 C 
ENDBRANCH  17  18
ENDBRANCH  15  16
ENDBRANCH  14  15
ENDBRANCH  13  14
BRANCH  22  23
ATOM     23  C   UNL     1      50.190  17.443  20.808  0.00  0.00    +0.083 C 
BRANCH  23  24
ATOM     24  C   UNL     1      49.802  18.842  21.294  0.00  0.00    +0.048 C 
BRANCH  24  25
ATOM     25  C   UNL     1      50.980  19.770  21.144  0.00  0.00    -0.056 C 
ATOM     26  C   UNL     1      50.948  20.729  20.252  0.00  0.00    -0.129 C 
ATOM     27  C   UNL     1      52.126  21.657  20.101  0.00  0.00    +0.071 C 
ATOM     28  C   UNL     1      49.733  20.904  19.377  0.00  0.00    +0.073 C 
ENDBRANCH  24  25
ENDBRANCH  23  24
ENDBRANCH  22  23
TORSDOF 16
ENDMDL
MODEL 7
REMARK VINA RESULT:      -5.5      3.222      8.072
REMARK  Name = ZINC95485975
REMARK  24 active torsions:
REMARK  status: ('A' for Active; 'I' for Inactive)
REMARK    1  A    between atoms: C1_1  and  C2_2
REMARK    2  A    between atoms: C2_2  and  C3_3
REMARK    3  A    between atoms: C3_3  and  C4_4
REMARK    4  A    between atoms: C6_6  and  C34_41
REMARK    5  A    between atoms: C7_8  and  C26_33
REMARK    6  A    between atoms: C7_8  and  C27_34
REMARK    7  A    between atoms: C8_9  and  C20_27
REMARK    8  A    between atoms: C11_14  and  C13_17
REMARK    9  A    between atoms: C13_17  and  C14_19
REMARK   10  A    between atoms: C17_22  and  O6_26
REMARK   11  A    between atoms: C18_23  and  O5_25
REMARK   12  A    between atoms: C20_27  and  C21_28
REMARK   13  A    between atoms: C21_28  and  C22_29
REMARK   14  A    between atoms: C23_30  and  C24_31
REMARK   15  A    between atoms: C23_30  and  C25_32
REMARK   16  A    between atoms: C27_34  and  C28_35
REMARK   17  A    between atoms: C28_35  and  C29_36
REMARK   18  A    between atoms: C30_37  and  C31_38
REMARK   19  A    between atoms: C30_37  and  C32_39
REMARK   20  A    between atoms: C32_39  and  C33_40
REMARK   21  A    between atoms: C34_41  and  C35_42
REMARK   22  A    between atoms: C35_42  and  C36_43
REMARK   23  A    between atoms: C37_44  and  C38_45
REMARK   24  A    between atoms: C37_44  and  C39_46
REMARK                            x       y       z     vdW  Elec       q    Type
REMARK                         _______ _______ _______ _____ _____    ______ ____
ROOT
ATOM      4  C   UNL     1      46.918  16.025  20.905  0.00  0.00    -0.140 C 
ATOM      5  C   UNL     1      46.923  17.502  20.499  0.00  0.00    +0.086 C 
ATOM      6  C   UNL     1      47.745  17.730  19.237  0.00  0.00    -0.022 C 
ATOM     13  C   UNL     1      47.295  16.855  18.073  0.00  0.00    -0.030 C 
ATOM     21  C   UNL     1      45.890  17.275  17.626  0.00  0.00    +0.052 C 
ATOM     22  C   UNL     1      47.283  15.372  18.458  0.00  0.00    -0.129 C 
ATOM     29  C   UNL     1      48.682  14.925  18.822  0.00  0.00    +0.393 C 
ATOM     30  C   UNL     1      49.337  15.398  20.094  0.00  0.00    -0.071 C 
ATOM     43  O   UNL     1      49.284  14.168  18.082  0.00  0.00    -0.391 OA
ATOM     44  C   UNL     1      48.330  15.577  21.202  0.00  0.00    +0.387 C 
ATOM     45  O   UNL     1      48.660  15.355  22.354  0.00  0.00    -0.404 OA
ATOM     46  C   UNL     1      46.429  15.225  19.707  0.00  0.00    +0.382 C 
ATOM     47  O   UNL     1      45.446  14.527  19.748  0.00  0.00    -0.393 OA
ENDROOT
BRANCH  30  31
ATOM     31  C   UNL     1      50.363  14.369  20.527  0.00  0.00    +0.417 C 
ATOM     42  O   UNL     1      50.004  13.267  20.884  0.00  0.00    -0.408 OA
BRANCH  31  32
ATOM     32  C   UNL     1      51.792  14.707  20.515  0.00  0.00    -0.152 A 
ATOM     33  C   UNL     1      52.225  15.943  21.011  0.00  0.00    +0.071 A 
ATOM     34  C   UNL     1      53.566  16.258  21.000  0.00  0.00    +0.005 A 
ATOM     35  C   UNL     1      54.490  15.352  20.496  0.00  0.00    +0.121 A 
ATOM     38  C   UNL     1      54.067  14.119  20.000  0.00  0.00    +0.073 A 
ATOM     41  C   UNL     1      52.726  13.793  20.013  0.00  0.00    +0.081 A 
BRANCH  35  36
ATOM     36  O   UNL     1      55.811  15.668  20.486  0.00  0.00    -0.484 OA
ATOM     37  H   UNL     1      56.327  15.182  19.829  0.00  0.00    +0.395 HD
ENDBRANCH  35  36
BRANCH  38  39
ATOM     39  O   UNL     1      54.976  13.236  19.508  0.00  0.00    -0.482 OA
ATOM     40  H   UNL     1      55.061  13.254  18.544  0.00  0.00    +0.391 HD
ENDBRANCH  38  39
ENDBRANCH  31  32
ENDBRANCH  30  31
BRANCH   4   3
ATOM      3  C   UNL     1      46.004  15.797  22.119  0.00  0.00    +0.075 C 
BRANCH   3   2
ATOM      1  C   UNL     1      43.657  16.647  22.200  0.00  0.00    +0.018 C 
ATOM      2  C   UNL     1      45.131  17.034  22.339  0.00  0.00    -0.003 C 
ENDBRANCH   3   2
ENDBRANCH   4   3
BRANCH   6   7
ATOM      7  C   UNL     1      47.599  19.203  18.820  0.00  0.00    +0.040 C 
BRANCH   7   8
ATOM      8  C   UNL     1      48.181  20.102  19.912  0.00  0.00    +0.044 C 
BRANCH   8   9
ATOM      9  C   UNL     1      49.427  20.776  19.398  0.00  0.00    -0.059 C 
ATOM     10  C   UNL     1      50.532  20.734  20.101  0.00  0.00    -0.129 C 
ATOM     11  C   UNL     1      51.788  21.377  19.572  0.00  0.00    +0.070 C 
ATOM     12  C   UNL     1      50.547  20.043  21.441  0.00  0.00    +0.071 C 
ENDBRANCH   8   9
ENDBRANCH   7   8
ENDBRANCH   6   7
BRANCH  13  14
ATOM     14  C   UNL     1      48.259  17.060  16.895  0.00  0.00    +0.049 C 
BRANCH  14  15
ATOM     15  C   UNL     1      49.666  17.341  17.429  0.00  0.00    +0.024 C 
BRANCH  15  16
ATOM     16  C   UNL     1      50.305  18.433  16.610  0.00  0.00    -0.048 C 
ATOM     17  C   UNL     1      51.539  18.796  16.853  0.00  0.00    -0.125 C 
ATOM     20  C   UNL     1      52.288  18.193  18.015  0.00  0.00    +0.071 C 
BRANCH  17  18
ATOM     18  C   UNL     1      52.214  19.816  15.972  0.00  0.00    +0.045 C 
ATOM     19  C   UNL     1      51.473  21.150  16.079  0.00  0.00    +0.018 C 
ENDBRANCH  17  18
ENDBRANCH  15  16
ENDBRANCH  14  15
ENDBRANCH  13  14
BRANCH  22  23
ATOM     23  C   UNL     1      46.718  14.517  17.313  0.00  0.00    +0.083 C 
BRANCH  23  24
ATOM     24  C   UNL     1      46.919  13.035  17.638  0.00  0.00    +0.048 C 
BRANCH  24  25
ATOM     25  C   UNL     1      45.835  12.225  16.974  0.00  0.00    -0.056 C 
ATOM     26  C   UNL     1      46.145  11.350  16.050  0.00  0.00    -0.129 C 
ATOM     27  C   UNL     1      45.062  10.540  15.385  0.00  0.00    +0.071 C 
ATOM     28  C   UNL     1      47.585  11.154  15.649  0.00  0.00    +0.073 C 
ENDBRANCH  24  25
ENDBRANCH  23  24
ENDBRANCH  22  23
TORSDOF 16
ENDMDL
MODEL 8
REMARK VINA RESULT:      -5.3      4.250      8.861
REMARK  Name = ZINC95485975
REMARK  24 active torsions:
REMARK  status: ('A' for Active; 'I' for Inactive)
REMARK    1  A    between atoms: C1_1  and  C2_2
REMARK    2  A    between atoms: C2_2  and  C3_3
REMARK    3  A    between atoms: C3_3  and  C4_4
REMARK    4  A    between atoms: C6_6  and  C34_41
REMARK    5  A    between atoms: C7_8  and  C26_33
REMARK    6  A    between atoms: C7_8  and  C27_34
REMARK    7  A    between atoms: C8_9  and  C20_27
REMARK    8  A    between atoms: C11_14  and  C13_17
REMARK    9  A    between atoms: C13_17  and  C14_19
REMARK   10  A    between atoms: C17_22  and  O6_26
REMARK   11  A    between atoms: C18_23  and  O5_25
REMARK   12  A    between atoms: C20_27  and  C21_28
REMARK   13  A    between atoms: C21_28  and  C22_29
REMARK   14  A    between atoms: C23_30  and  C24_31
REMARK   15  A    between atoms: C23_30  and  C25_32
REMARK   16  A    between atoms: C27_34  and  C28_35
REMARK   17  A    between atoms: C28_35  and  C29_36
REMARK   18  A    between atoms: C30_37  and  C31_38
REMARK   19  A    between atoms: C30_37  and  C32_39
REMARK   20  A    between atoms: C32_39  and  C33_40
REMARK   21  A    between atoms: C34_41  and  C35_42
REMARK   22  A    between atoms: C35_42  and  C36_43
REMARK   23  A    between atoms: C37_44  and  C38_45
REMARK   24  A    between atoms: C37_44  and  C39_46
REMARK                            x       y       z     vdW  Elec       q    Type
REMARK                         _______ _______ _______ _____ _____    ______ ____
ROOT
ATOM      4  C   UNL     1      48.488  13.493  20.831  0.00  0.00    -0.140 C 
ATOM      5  C   UNL     1      48.441  14.876  21.487  0.00  0.00    +0.086 C 
ATOM      6  C   UNL     1      49.254  15.895  20.698  0.00  0.00    -0.022 C 
ATOM     13  C   UNL     1      48.835  15.979  19.235  0.00  0.00    -0.030 C 
ATOM     21  C   UNL     1      47.415  16.551  19.139  0.00  0.00    +0.052 C 
ATOM     22  C   UNL     1      48.874  14.605  18.560  0.00  0.00    -0.129 C 
ATOM     29  C   UNL     1      50.288  14.066  18.576  0.00  0.00    +0.393 C 
ATOM     30  C   UNL     1      50.927  13.612  19.863  0.00  0.00    -0.071 C 
ATOM     43  O   UNL     1      50.916  13.993  17.535  0.00  0.00    -0.391 OA
ATOM     44  C   UNL     1      49.915  12.997  20.796  0.00  0.00    +0.387 C 
ATOM     45  O   UNL     1      50.253  12.087  21.532  0.00  0.00    -0.404 OA
ATOM     46  C   UNL     1      48.027  13.655  19.391  0.00  0.00    +0.382 C 
ATOM     47  O   UNL     1      47.069  13.073  18.944  0.00  0.00    -0.393 OA
ENDROOT
BRANCH  30  31
ATOM     31  C   UNL     1      51.989  12.578  19.543  0.00  0.00    +0.417 C 
ATOM     42  O   UNL     1      51.667  11.436  19.292  0.00  0.00    -0.408 OA
BRANCH  31  32
ATOM     32  C   UNL     1      53.407  12.959  19.539  0.00  0.00    -0.152 A 
ATOM     33  C   UNL     1      54.398  11.972  19.479  0.00  0.00    +0.071 A 
ATOM     34  C   UNL     1      55.728  12.332  19.474  0.00  0.00    +0.005 A 
ATOM     35  C   UNL     1      56.089  13.672  19.531  0.00  0.00    +0.121 A 
ATOM     38  C   UNL     1      55.107  14.661  19.592  0.00  0.00    +0.073 A 
ATOM     41  C   UNL     1      53.772  14.310  19.591  0.00  0.00    +0.081 A 
BRANCH  35  36
ATOM     36  O   UNL     1      57.401  14.020  19.528  0.00  0.00    -0.484 OA
ATOM     37  H   UNL     1      57.688  14.477  20.330  0.00  0.00    +0.395 HD
ENDBRANCH  35  36
BRANCH  38  39
ATOM     39  O   UNL     1      55.465  15.971  19.648  0.00  0.00    -0.482 OA
ATOM     40  H   UNL     1      56.336  16.158  19.272  0.00  0.00    +0.391 HD
ENDBRANCH  38  39
ENDBRANCH  31  32
ENDBRANCH  30  31
BRANCH   4   3
ATOM      3  C   UNL     1      47.584  12.503  21.582  0.00  0.00    +0.075 C 
BRANCH   3   2
ATOM      1  C   UNL     1      45.204  13.145  21.988  0.00  0.00    +0.018 C 
ATOM      2  C   UNL     1      46.638  13.275  22.505  0.00  0.00    -0.003 C 
ENDBRANCH   3   2
ENDBRANCH   4   3
BRANCH   6   7
ATOM      7  C   UNL     1      49.055  17.278  21.340  0.00  0.00    +0.040 C 
BRANCH   7   8
ATOM      8  C   UNL     1      50.168  17.532  22.359  0.00  0.00    +0.044 C 
BRANCH   8   9
ATOM      9  C   UNL     1      50.763  18.896  22.124  0.00  0.00    -0.059 C 
ATOM     10  C   UNL     1      51.879  19.017  21.449  0.00  0.00    -0.129 C 
ATOM     11  C   UNL     1      52.457  20.383  21.184  0.00  0.00    +0.070 C 
ATOM     12  C   UNL     1      52.587  17.788  20.937  0.00  0.00    +0.071 C 
ENDBRANCH   8   9
ENDBRANCH   7   8
ENDBRANCH   6   7
BRANCH  13  14
ATOM     14  C   UNL     1      49.790  16.930  18.498  0.00  0.00    +0.049 C 
BRANCH  14  15
ATOM     15  C   UNL     1      49.065  18.242  18.188  0.00  0.00    +0.024 C 
BRANCH  15  16
ATOM     16  C   UNL     1      50.065  19.269  17.720  0.00  0.00    -0.048 C 
ATOM     17  C   UNL     1      50.126  20.437  18.308  0.00  0.00    -0.125 C 
ATOM     20  C   UNL     1      49.132  20.793  19.384  0.00  0.00    +0.071 C 
BRANCH  17  18
ATOM     18  C   UNL     1      51.191  21.427  17.910  0.00  0.00    +0.045 C 
ATOM     19  C   UNL     1      51.581  21.195  16.449  0.00  0.00    +0.018 C 
ENDBRANCH  17  18
ENDBRANCH  15  16
ENDBRANCH  14  15
ENDBRANCH  13  14
BRANCH  22  23
ATOM     23  C   UNL     1      48.340  14.689  17.122  0.00  0.00    +0.083 C 
BRANCH  23  24
ATOM     24  C   UNL     1      48.833  13.481  16.323  0.00  0.00    +0.048 C 
BRANCH  24  25
ATOM     25  C   UNL     1      47.661  12.809  15.654  0.00  0.00    -0.056 C 
ATOM     26  C   UNL     1      47.450  11.529  15.835  0.00  0.00    -0.129 C 
ATOM     27  C   UNL     1      46.279  10.856  15.165  0.00  0.00    +0.071 C 
ATOM     28  C   UNL     1      48.379  10.728  16.711  0.00  0.00    +0.073 C 
ENDBRANCH  24  25
ENDBRANCH  23  24
ENDBRANCH  22  23
TORSDOF 16
ENDMDL
MODEL 9
REMARK VINA RESULT:      -5.2      3.534      8.752
REMARK  Name = ZINC95485975
REMARK  24 active torsions:
REMARK  status: ('A' for Active; 'I' for Inactive)
REMARK    1  A    between atoms: C1_1  and  C2_2
REMARK    2  A    between atoms: C2_2  and  C3_3
REMARK    3  A    between atoms: C3_3  and  C4_4
REMARK    4  A    between atoms: C6_6  and  C34_41
REMARK    5  A    between atoms: C7_8  and  C26_33
REMARK    6  A    between atoms: C7_8  and  C27_34
REMARK    7  A    between atoms: C8_9  and  C20_27
REMARK    8  A    between atoms: C11_14  and  C13_17
REMARK    9  A    between atoms: C13_17  and  C14_19
REMARK   10  A    between atoms: C17_22  and  O6_26
REMARK   11  A    between atoms: C18_23  and  O5_25
REMARK   12  A    between atoms: C20_27  and  C21_28
REMARK   13  A    between atoms: C21_28  and  C22_29
REMARK   14  A    between atoms: C23_30  and  C24_31
REMARK   15  A    between atoms: C23_30  and  C25_32
REMARK   16  A    between atoms: C27_34  and  C28_35
REMARK   17  A    between atoms: C28_35  and  C29_36
REMARK   18  A    between atoms: C30_37  and  C31_38
REMARK   19  A    between atoms: C30_37  and  C32_39
REMARK   20  A    between atoms: C32_39  and  C33_40
REMARK   21  A    between atoms: C34_41  and  C35_42
REMARK   22  A    between atoms: C35_42  and  C36_43
REMARK   23  A    between atoms: C37_44  and  C38_45
REMARK   24  A    between atoms: C37_44  and  C39_46
REMARK                            x       y       z     vdW  Elec       q    Type
REMARK                         _______ _______ _______ _____ _____    ______ ____
ROOT
ATOM      4  C   UNL     1      50.443  18.342  18.672  0.00  0.00    -0.140 C 
ATOM      5  C   UNL     1      50.015  17.377  17.563  0.00  0.00    +0.086 C 
ATOM      6  C   UNL     1      49.794  15.969  18.104  0.00  0.00    -0.022 C 
ATOM     13  C   UNL     1      48.804  15.931  19.262  0.00  0.00    -0.030 C 
ATOM     21  C   UNL     1      47.406  16.308  18.756  0.00  0.00    +0.052 C 
ATOM     22  C   UNL     1      49.213  16.890  20.383  0.00  0.00    -0.129 C 
ATOM     29  C   UNL     1      50.556  16.479  20.947  0.00  0.00    +0.393 C 
ATOM     30  C   UNL     1      51.818  16.652  20.141  0.00  0.00    -0.071 C 
ATOM     43  O   UNL     1      50.619  16.006  22.067  0.00  0.00    -0.391 OA
ATOM     44  C   UNL     1      51.753  17.880  19.269  0.00  0.00    +0.387 C 
ATOM     45  O   UNL     1      52.770  18.510  19.042  0.00  0.00    -0.404 OA
ATOM     46  C   UNL     1      49.393  18.270  19.770  0.00  0.00    +0.382 C 
ATOM     47  O   UNL     1      48.757  19.232  20.127  0.00  0.00    -0.393 OA
ENDROOT
BRANCH  30  31
ATOM     31  C   UNL     1      52.990  16.790  21.092  0.00  0.00    +0.417 C 
ATOM     42  O   UNL     1      52.970  17.636  21.960  0.00  0.00    -0.408 OA
BRANCH  31  32
ATOM     32  C   UNL     1      54.150  15.898  20.962  0.00  0.00    -0.152 A 
ATOM     33  C   UNL     1      54.393  14.918  21.930  0.00  0.00    +0.071 A 
ATOM     34  C   UNL     1      55.481  14.082  21.807  0.00  0.00    +0.005 A 
ATOM     35  C   UNL     1      56.340  14.212  20.722  0.00  0.00    +0.121 A 
ATOM     38  C   UNL     1      56.105  15.187  19.754  0.00  0.00    +0.073 A 
ATOM     41  C   UNL     1      55.013  16.025  19.867  0.00  0.00    +0.081 A 
BRANCH  35  36
ATOM     36  O   UNL     1      57.412  13.387  20.606  0.00  0.00    -0.484 OA
ATOM     37  H   UNL     1      58.250  13.849  20.468  0.00  0.00    +0.395 HD
ENDBRANCH  35  36
BRANCH  38  39
ATOM     39  O   UNL     1      56.949  15.311  18.695  0.00  0.00    -0.482 OA
ATOM     40  H   UNL     1      56.697  16.005  18.069  0.00  0.00    +0.391 HD
ENDBRANCH  38  39
ENDBRANCH  31  32
ENDBRANCH  30  31
BRANCH   4   3
ATOM      3  C   UNL     1      50.564  19.775  18.131  0.00  0.00    +0.075 C 
BRANCH   3   2
ATOM      1  C   UNL     1      51.588  21.139  16.306  0.00  0.00    +0.018 C 
ATOM      2  C   UNL     1      51.131  19.736  16.710  0.00  0.00    -0.003 C 
ENDBRANCH   3   2
ENDBRANCH   4   3
BRANCH   6   7
ATOM      7  C   UNL     1      49.245  15.091  16.967  0.00  0.00    +0.040 C 
BRANCH   7   8
ATOM      8  C   UNL     1      50.345  14.150  16.473  0.00  0.00    +0.044 C 
BRANCH   8   9
ATOM      9  C   UNL     1      51.462  14.107  17.483  0.00  0.00    -0.059 C 
ATOM     10  C   UNL     1      51.740  12.988  18.105  0.00  0.00    -0.129 C 
ATOM     11  C   UNL     1      52.880  12.935  19.089  0.00  0.00    +0.070 C 
ATOM     12  C   UNL     1      50.919  11.752  17.836  0.00  0.00    +0.071 C 
ENDBRANCH   8   9
ENDBRANCH   7   8
ENDBRANCH   6   7
BRANCH  13  14
ATOM     14  C   UNL     1      48.746  14.501  19.820  0.00  0.00    +0.049 C 
BRANCH  14  15
ATOM     15  C   UNL     1      47.360  13.907  19.560  0.00  0.00    +0.024 C 
BRANCH  15  16
ATOM     16  C   UNL     1      47.505  12.492  19.061  0.00  0.00    -0.048 C 
ATOM     17  C   UNL     1      47.008  12.155  17.897  0.00  0.00    -0.125 C 
ATOM     20  C   UNL     1      46.203  13.152  17.103  0.00  0.00    +0.071 C 
BRANCH  17  18
ATOM     18  C   UNL     1      47.240  10.769  17.351  0.00  0.00    +0.045 C 
ATOM     19  C   UNL     1      47.338  10.832  15.826  0.00  0.00    +0.018 C 
ENDBRANCH  17  18
ENDBRANCH  15  16
ENDBRANCH  14  15
ENDBRANCH  13  14
BRANCH  22  23
ATOM     23  C   UNL     1      48.146  16.924  21.488  0.00  0.00    +0.083 C 
BRANCH  23  24
ATOM     24  C   UNL     1      46.885  17.610  20.958  0.00  0.00    +0.048 C 
BRANCH  24  25
ATOM     25  C   UNL     1      45.709  17.238  21.825  0.00  0.00    -0.056 C 
ATOM     26  C   UNL     1      44.489  17.397  21.376  0.00  0.00    -0.129 C 
ATOM     27  C   UNL     1      43.313  17.026  22.242  0.00  0.00    +0.071 C 
ATOM     28  C   UNL     1      44.261  17.954  19.994  0.00  0.00    +0.073 C 
ENDBRANCH  24  25
ENDBRANCH  23  24
ENDBRANCH  22  23
TORSDOF 16
ENDMDL
