MODEL 1
REMARK VINA RESULT:      -6.0      0.000      0.000
REMARK  Name = ZINC01663629
REMARK  6 active torsions:
REMARK  status: ('A' for Active; 'I' for Inactive)
REMARK    1  A    between atoms: C1_1  and  O1_2
REMARK    2  A    between atoms: O1_2  and  C2_3
REMARK    3  A    between atoms: C4_5  and  O5_23
REMARK    4  A    between atoms: C9_11  and  C11_15
REMARK    5  A    between atoms: C11_15  and  C12_16
REMARK    6  A    between atoms: C15_19  and  O4_22
REMARK                            x       y       z     vdW  Elec       q    Type
REMARK                         _______ _______ _______ _____ _____    ______ ____
ROOT
ATOM      3  C   UNL     1      41.524  20.348  19.113  0.00  0.00    +0.214 A 
ATOM      4  C   UNL     1      41.795  19.287  19.969  0.00  0.00    -0.139 A 
ATOM      5  C   UNL     1      42.980  19.258  20.682  0.00  0.00    +0.242 A 
ATOM      8  C   UNL     1      43.898  20.312  20.542  0.00  0.00    -0.315 A 
ATOM      9  C   UNL     1      43.619  21.383  19.673  0.00  0.00    +0.231 A 
ATOM     10  O   UNL     1      44.503  22.396  19.518  0.00  0.00    -0.299 OA
ATOM     11  C   UNL     1      45.458  22.637  20.551  0.00  0.00    +0.274 C 
ATOM     12  C   UNL     1      46.200  21.332  20.873  0.00  0.00    -0.051 C 
ATOM     22  C   UNL     1      45.155  20.315  21.298  0.00  0.00    +0.404 C 
ATOM     23  O   UNL     1      45.350  19.544  22.215  0.00  0.00    -0.420 OA
ATOM     24  C   UNL     1      42.427  21.393  18.971  0.00  0.00    -0.058 A 
ENDROOT
BRANCH   3   2
ATOM      1  C   UNL     1      39.495  21.485  18.625  0.00  0.00    +0.254 C 
ATOM      2  O   UNL     1      40.360  20.366  18.415  0.00  0.00    -0.305 OA
ENDBRANCH   3   2
BRANCH   5   6
ATOM      6  O   UNL     1      43.252  18.221  21.513  0.00  0.00    -0.476 OA
ATOM      7  H   UNL     1      42.830  17.390  21.255  0.00  0.00    +0.399 HD
ENDBRANCH   5   6
BRANCH  12  13
ATOM     13  C   UNL     1      46.939  20.833  19.630  0.00  0.00    +0.110 C 
BRANCH  13  14
ATOM     14  C   UNL     1      48.423  20.840  19.892  0.00  0.00    -0.099 A 
ATOM     15  C   UNL     1      48.895  20.886  21.191  0.00  0.00    +0.033 A 
ATOM     16  C   UNL     1      50.255  20.887  21.434  0.00  0.00    -0.012 A 
ATOM     17  C   UNL     1      51.148  20.854  20.373  0.00  0.00    +0.106 A 
ATOM     20  C   UNL     1      50.672  20.813  19.070  0.00  0.00    -0.011 A 
ATOM     21  C   UNL     1      49.312  20.806  18.832  0.00  0.00    +0.026 A 
BRANCH  17  18
ATOM     18  O   UNL     1      52.486  20.862  20.608  0.00  0.00    -0.499 OA
ATOM     19  H   UNL     1      52.774  21.553  21.220  0.00  0.00    +0.391 HD
ENDBRANCH  17  18
ENDBRANCH  13  14
ENDBRANCH  12  13
TORSDOF 5
ENDMDL
MODEL 2
REMARK VINA RESULT:      -5.9      3.928      5.506
REMARK  Name = ZINC01663629
REMARK  6 active torsions:
REMARK  status: ('A' for Active; 'I' for Inactive)
REMARK    1  A    between atoms: C1_1  and  O1_2
REMARK    2  A    between atoms: O1_2  and  C2_3
REMARK    3  A    between atoms: C4_5  and  O5_23
REMARK    4  A    between atoms: C9_11  and  C11_15
REMARK    5  A    between atoms: C11_15  and  C12_16
REMARK    6  A    between atoms: C15_19  and  O4_22
REMARK                            x       y       z     vdW  Elec       q    Type
REMARK                         _______ _______ _______ _____ _____    ______ ____
ROOT
ATOM      3  C   UNL     1      45.046  16.437  20.768  0.00  0.00    +0.214 A 
ATOM      4  C   UNL     1      44.729  17.323  19.746  0.00  0.00    -0.139 A 
ATOM      5  C   UNL     1      45.636  17.562  18.729  0.00  0.00    +0.242 A 
ATOM      8  C   UNL     1      46.872  16.896  18.735  0.00  0.00    -0.315 A 
ATOM      9  C   UNL     1      47.189  16.000  19.772  0.00  0.00    +0.231 A 
ATOM     10  O   UNL     1      48.384  15.364  19.796  0.00  0.00    -0.299 OA
ATOM     11  C   UNL     1      49.106  15.214  18.574  0.00  0.00    +0.274 C 
ATOM     12  C   UNL     1      49.249  16.585  17.896  0.00  0.00    -0.051 C 
ATOM     22  C   UNL     1      47.847  17.118  17.661  0.00  0.00    +0.404 C 
ATOM     23  O   UNL     1      47.548  17.699  16.638  0.00  0.00    -0.420 OA
ATOM     24  C   UNL     1      46.267  15.774  20.778  0.00  0.00    -0.058 A 
ENDROOT
BRANCH   3   2
ATOM      1  C   UNL     1      43.211  17.252  22.037  0.00  0.00    +0.254 C 
ATOM      2  O   UNL     1      44.152  16.211  21.763  0.00  0.00    -0.305 OA
ENDBRANCH   3   2
BRANCH   5   6
ATOM      6  O   UNL     1      45.333  18.432  17.734  0.00  0.00    -0.476 OA
ATOM      7  H   UNL     1      44.501  18.906  17.866  0.00  0.00    +0.399 HD
ENDBRANCH   5   6
BRANCH  12  13
ATOM     13  C   UNL     1      50.024  17.537  18.808  0.00  0.00    +0.110 C 
BRANCH  13  14
ATOM     14  C   UNL     1      50.588  18.669  17.988  0.00  0.00    -0.099 A 
ATOM     15  C   UNL     1      51.263  18.400  16.812  0.00  0.00    +0.033 A 
ATOM     16  C   UNL     1      51.777  19.435  16.055  0.00  0.00    -0.012 A 
ATOM     17  C   UNL     1      51.625  20.747  16.483  0.00  0.00    +0.106 A 
ATOM     20  C   UNL     1      50.951  21.015  17.666  0.00  0.00    -0.011 A 
ATOM     21  C   UNL     1      50.435  19.976  18.416  0.00  0.00    +0.026 A 
BRANCH  17  18
ATOM     18  O   UNL     1      52.135  21.767  15.745  0.00  0.00    -0.499 OA
ATOM     19  H   UNL     1      52.726  21.482  15.035  0.00  0.00    +0.391 HD
ENDBRANCH  17  18
ENDBRANCH  13  14
ENDBRANCH  12  13
TORSDOF 5
ENDMDL
MODEL 3
REMARK VINA RESULT:      -5.7      4.085      7.128
REMARK  Name = ZINC01663629
REMARK  6 active torsions:
REMARK  status: ('A' for Active; 'I' for Inactive)
REMARK    1  A    between atoms: C1_1  and  O1_2
REMARK    2  A    between atoms: O1_2  and  C2_3
REMARK    3  A    between atoms: C4_5  and  O5_23
REMARK    4  A    between atoms: C9_11  and  C11_15
REMARK    5  A    between atoms: C11_15  and  C12_16
REMARK    6  A    between atoms: C15_19  and  O4_22
REMARK                            x       y       z     vdW  Elec       q    Type
REMARK                         _______ _______ _______ _____ _____    ______ ____
ROOT
ATOM      3  C   UNL     1      45.966  14.062  18.531  0.00  0.00    +0.214 A 
ATOM      4  C   UNL     1      46.291  15.038  17.596  0.00  0.00    -0.139 A 
ATOM      5  C   UNL     1      46.123  16.376  17.904  0.00  0.00    +0.242 A 
ATOM      8  C   UNL     1      45.629  16.738  19.168  0.00  0.00    -0.315 A 
ATOM      9  C   UNL     1      45.300  15.746  20.111  0.00  0.00    +0.231 A 
ATOM     10  O   UNL     1      44.809  16.083  21.327  0.00  0.00    -0.299 OA
ATOM     11  C   UNL     1      45.073  17.391  21.834  0.00  0.00    +0.274 C 
ATOM     12  C   UNL     1      44.658  18.435  20.788  0.00  0.00    -0.051 C 
ATOM     22  C   UNL     1      45.455  18.149  19.527  0.00  0.00    +0.404 C 
ATOM     23  O   UNL     1      45.923  19.042  18.852  0.00  0.00    -0.420 OA
ATOM     24  C   UNL     1      45.479  14.414  19.783  0.00  0.00    -0.058 A 
ENDROOT
BRANCH   3   2
ATOM      1  C   UNL     1      45.346  12.237  17.141  0.00  0.00    +0.254 C 
ATOM      2  O   UNL     1      46.132  12.752  18.219  0.00  0.00    -0.305 OA
ENDBRANCH   3   2
BRANCH   5   6
ATOM      6  O   UNL     1      46.433  17.331  16.993  0.00  0.00    -0.476 OA
ATOM      7  H   UNL     1      45.665  17.705  16.539  0.00  0.00    +0.399 HD
ENDBRANCH   5   6
BRANCH  12  13
ATOM     13  C   UNL     1      43.161  18.316  20.498  0.00  0.00    +0.110 C 
BRANCH  13  14
ATOM     14  C   UNL     1      42.667  19.594  19.870  0.00  0.00    -0.099 A 
ATOM     15  C   UNL     1      43.373  20.769  20.050  0.00  0.00    +0.033 A 
ATOM     16  C   UNL     1      42.926  21.941  19.471  0.00  0.00    -0.012 A 
ATOM     17  C   UNL     1      41.762  21.941  18.717  0.00  0.00    +0.106 A 
ATOM     20  C   UNL     1      41.052  20.761  18.541  0.00  0.00    -0.011 A 
ATOM     21  C   UNL     1      41.506  19.591  19.117  0.00  0.00    +0.026 A 
BRANCH  17  18
ATOM     18  O   UNL     1      41.316  23.093  18.152  0.00  0.00    -0.499 OA
ATOM     19  H   UNL     1      40.444  23.372  18.463  0.00  0.00    +0.391 HD
ENDBRANCH  17  18
ENDBRANCH  13  14
ENDBRANCH  12  13
TORSDOF 5
ENDMDL
MODEL 4
REMARK VINA RESULT:      -5.6      1.848      3.105
REMARK  Name = ZINC01663629
REMARK  6 active torsions:
REMARK  status: ('A' for Active; 'I' for Inactive)
REMARK    1  A    between atoms: C1_1  and  O1_2
REMARK    2  A    between atoms: O1_2  and  C2_3
REMARK    3  A    between atoms: C4_5  and  O5_23
REMARK    4  A    between atoms: C9_11  and  C11_15
REMARK    5  A    between atoms: C11_15  and  C12_16
REMARK    6  A    between atoms: C15_19  and  O4_22
REMARK                            x       y       z     vdW  Elec       q    Type
REMARK                         _______ _______ _______ _____ _____    ______ ____
ROOT
ATOM      3  C   UNL     1      42.841  18.865  20.685  0.00  0.00    +0.214 A 
ATOM      4  C   UNL     1      42.798  20.178  20.230  0.00  0.00    -0.139 A 
ATOM      5  C   UNL     1      43.905  20.735  19.616  0.00  0.00    +0.242 A 
ATOM      8  C   UNL     1      45.066  19.962  19.448  0.00  0.00    -0.315 A 
ATOM      9  C   UNL     1      45.104  18.633  19.910  0.00  0.00    +0.231 A 
ATOM     10  O   UNL     1      46.222  17.884  19.768  0.00  0.00    -0.299 OA
ATOM     11  C   UNL     1      47.162  18.240  18.754  0.00  0.00    +0.274 C 
ATOM     12  C   UNL     1      47.534  19.722  18.904  0.00  0.00    -0.051 C 
ATOM     22  C   UNL     1      46.249  20.522  18.786  0.00  0.00    +0.404 C 
ATOM     23  O   UNL     1      46.203  21.570  18.177  0.00  0.00    -0.420 OA
ATOM     24  C   UNL     1      43.985  18.095  20.520  0.00  0.00    -0.058 A 
ENDROOT
BRANCH   3   2
ATOM      1  C   UNL     1      40.586  19.152  21.376  0.00  0.00    +0.254 C 
ATOM      2  O   UNL     1      41.752  18.328  21.289  0.00  0.00    -0.305 OA
ENDBRANCH   3   2
BRANCH   5   6
ATOM      6  O   UNL     1      43.870  22.018  19.178  0.00  0.00    -0.476 OA
ATOM      7  H   UNL     1      43.021  22.458  19.319  0.00  0.00    +0.399 HD
ENDBRANCH   5   6
BRANCH  12  13
ATOM     13  C   UNL     1      48.175  19.962  20.271  0.00  0.00    +0.110 C 
BRANCH  13  14
ATOM     14  C   UNL     1      49.568  20.507  20.085  0.00  0.00    -0.099 A 
ATOM     15  C   UNL     1      50.056  20.733  18.811  0.00  0.00    +0.033 A 
ATOM     16  C   UNL     1      51.331  21.238  18.636  0.00  0.00    -0.012 A 
ATOM     17  C   UNL     1      52.125  21.507  19.741  0.00  0.00    +0.106 A 
ATOM     20  C   UNL     1      51.636  21.275  21.019  0.00  0.00    -0.011 A 
ATOM     21  C   UNL     1      50.359  20.776  21.188  0.00  0.00    +0.026 A 
BRANCH  17  18
ATOM     18  O   UNL     1      53.381  21.996  19.573  0.00  0.00    -0.499 OA
ATOM     19  H   UNL     1      53.638  22.112  18.648  0.00  0.00    +0.391 HD
ENDBRANCH  17  18
ENDBRANCH  13  14
ENDBRANCH  12  13
TORSDOF 5
ENDMDL
MODEL 5
REMARK VINA RESULT:      -5.5      3.274      7.694
REMARK  Name = ZINC01663629
REMARK  6 active torsions:
REMARK  status: ('A' for Active; 'I' for Inactive)
REMARK    1  A    between atoms: C1_1  and  O1_2
REMARK    2  A    between atoms: O1_2  and  C2_3
REMARK    3  A    between atoms: C4_5  and  O5_23
REMARK    4  A    between atoms: C9_11  and  C11_15
REMARK    5  A    between atoms: C11_15  and  C12_16
REMARK    6  A    between atoms: C15_19  and  O4_22
REMARK                            x       y       z     vdW  Elec       q    Type
REMARK                         _______ _______ _______ _____ _____    ______ ____
ROOT
ATOM      3  C   UNL     1      51.173  16.697  17.050  0.00  0.00    +0.214 A 
ATOM      4  C   UNL     1      51.648  17.853  16.442  0.00  0.00    -0.139 A 
ATOM      5  C   UNL     1      51.329  19.093  16.966  0.00  0.00    +0.242 A 
ATOM      8  C   UNL     1      50.529  19.172  18.118  0.00  0.00    -0.315 A 
ATOM      9  C   UNL     1      50.049  17.999  18.729  0.00  0.00    +0.231 A 
ATOM     10  O   UNL     1      49.265  18.064  19.830  0.00  0.00    -0.299 OA
ATOM     11  C   UNL     1      49.319  19.236  20.643  0.00  0.00    +0.274 C 
ATOM     12  C   UNL     1      49.099  20.475  19.763  0.00  0.00    -0.051 C 
ATOM     22  C   UNL     1      50.187  20.473  18.704  0.00  0.00    +0.404 C 
ATOM     23  O   UNL     1      50.745  21.494  18.359  0.00  0.00    -0.420 OA
ATOM     24  C   UNL     1      50.383  16.769  18.189  0.00  0.00    -0.058 A 
ENDROOT
BRANCH   3   2
ATOM      1  C   UNL     1      50.499  14.459  16.624  0.00  0.00    +0.254 C 
ATOM      2  O   UNL     1      51.489  15.486  16.527  0.00  0.00    -0.305 OA
ENDBRANCH   3   2
BRANCH   5   6
ATOM      6  O   UNL     1      51.785  20.224  16.372  0.00  0.00    -0.476 OA
ATOM      7  H   UNL     1      52.745  20.331  16.417  0.00  0.00    +0.399 HD
ENDBRANCH   5   6
BRANCH  12  13
ATOM     13  C   UNL     1      47.723  20.404  19.097  0.00  0.00    +0.110 C 
BRANCH  13  14
ATOM     14  C   UNL     1      46.735  21.211  19.899  0.00  0.00    -0.099 A 
ATOM     15  C   UNL     1      45.415  21.285  19.495  0.00  0.00    +0.033 A 
ATOM     16  C   UNL     1      44.505  22.020  20.232  0.00  0.00    -0.012 A 
ATOM     17  C   UNL     1      44.920  22.693  21.372  0.00  0.00    +0.106 A 
ATOM     20  C   UNL     1      46.247  22.621  21.773  0.00  0.00    -0.011 A 
ATOM     21  C   UNL     1      47.151  21.881  21.036  0.00  0.00    +0.026 A 
BRANCH  17  18
ATOM     18  O   UNL     1      44.030  23.422  22.094  0.00  0.00    -0.499 OA
ATOM     19  H   UNL     1      44.079  24.374  21.933  0.00  0.00    +0.391 HD
ENDBRANCH  17  18
ENDBRANCH  13  14
ENDBRANCH  12  13
TORSDOF 5
ENDMDL
MODEL 6
REMARK VINA RESULT:      -5.5      5.048      6.123
REMARK  Name = ZINC01663629
REMARK  6 active torsions:
REMARK  status: ('A' for Active; 'I' for Inactive)
REMARK    1  A    between atoms: C1_1  and  O1_2
REMARK    2  A    between atoms: O1_2  and  C2_3
REMARK    3  A    between atoms: C4_5  and  O5_23
REMARK    4  A    between atoms: C9_11  and  C11_15
REMARK    5  A    between atoms: C11_15  and  C12_16
REMARK    6  A    between atoms: C15_19  and  O4_22
REMARK                            x       y       z     vdW  Elec       q    Type
REMARK                         _______ _______ _______ _____ _____    ______ ____
ROOT
ATOM      3  C   UNL     1      45.905  13.175  17.915  0.00  0.00    +0.214 A 
ATOM      4  C   UNL     1      45.422  13.582  19.153  0.00  0.00    -0.139 A 
ATOM      5  C   UNL     1      45.601  14.889  19.570  0.00  0.00    +0.242 A 
ATOM      8  C   UNL     1      46.265  15.799  18.731  0.00  0.00    -0.315 A 
ATOM      9  C   UNL     1      46.753  15.380  17.479  0.00  0.00    +0.231 A 
ATOM     10  O   UNL     1      47.408  16.244  16.669  0.00  0.00    -0.299 OA
ATOM     11  C   UNL     1      47.190  17.645  16.839  0.00  0.00    +0.274 C 
ATOM     12  C   UNL     1      47.421  18.020  18.310  0.00  0.00    -0.051 C 
ATOM     22  C   UNL     1      46.456  17.194  19.141  0.00  0.00    +0.404 C 
ATOM     23  O   UNL     1      45.872  17.663  20.096  0.00  0.00    -0.420 OA
ATOM     24  C   UNL     1      46.561  14.070  17.081  0.00  0.00    -0.058 A 
ENDROOT
BRANCH   3   2
ATOM      1  C   UNL     1      46.416  11.478  16.333  0.00  0.00    +0.254 C 
ATOM      2  O   UNL     1      45.727  11.890  17.516  0.00  0.00    -0.305 OA
ENDBRANCH   3   2
BRANCH   5   6
ATOM      6  O   UNL     1      45.138  15.289  20.781  0.00  0.00    -0.476 OA
ATOM      7  H   UNL     1      44.705  14.588  21.287  0.00  0.00    +0.399 HD
ENDBRANCH   5   6
BRANCH  12  13
ATOM     13  C   UNL     1      48.862  17.697  18.709  0.00  0.00    +0.110 C 
BRANCH  13  14
ATOM     14  C   UNL     1      49.799  18.664  18.033  0.00  0.00    -0.099 A 
ATOM     15  C   UNL     1      50.574  18.244  16.968  0.00  0.00    +0.033 A 
ATOM     16  C   UNL     1      51.430  19.130  16.341  0.00  0.00    -0.012 A 
ATOM     17  C   UNL     1      51.520  20.440  16.791  0.00  0.00    +0.106 A 
ATOM     20  C   UNL     1      50.746  20.858  17.864  0.00  0.00    -0.011 A 
ATOM     21  C   UNL     1      49.887  19.970  18.482  0.00  0.00    +0.026 A 
BRANCH  17  18
ATOM     18  O   UNL     1      52.366  21.311  16.182  0.00  0.00    -0.499 OA
ATOM     19  H   UNL     1      53.294  21.193  16.424  0.00  0.00    +0.391 HD
ENDBRANCH  17  18
ENDBRANCH  13  14
ENDBRANCH  12  13
TORSDOF 5
ENDMDL
MODEL 7
REMARK VINA RESULT:      -5.4      1.748      7.230
REMARK  Name = ZINC01663629
REMARK  6 active torsions:
REMARK  status: ('A' for Active; 'I' for Inactive)
REMARK    1  A    between atoms: C1_1  and  O1_2
REMARK    2  A    between atoms: O1_2  and  C2_3
REMARK    3  A    between atoms: C4_5  and  O5_23
REMARK    4  A    between atoms: C9_11  and  C11_15
REMARK    5  A    between atoms: C11_15  and  C12_16
REMARK    6  A    between atoms: C15_19  and  O4_22
REMARK                            x       y       z     vdW  Elec       q    Type
REMARK                         _______ _______ _______ _____ _____    ______ ____
ROOT
ATOM      3  C   UNL     1      49.731  20.395  19.757  0.00  0.00    +0.214 A 
ATOM      4  C   UNL     1      49.644  19.502  20.818  0.00  0.00    -0.139 A 
ATOM      5  C   UNL     1      48.447  18.865  21.092  0.00  0.00    +0.242 A 
ATOM      8  C   UNL     1      47.327  19.122  20.285  0.00  0.00    -0.315 A 
ATOM      9  C   UNL     1      47.420  20.028  19.212  0.00  0.00    +0.231 A 
ATOM     10  O   UNL     1      46.342  20.294  18.437  0.00  0.00    -0.299 OA
ATOM     11  C   UNL     1      45.283  19.340  18.383  0.00  0.00    +0.274 C 
ATOM     12  C   UNL     1      44.836  18.995  19.811  0.00  0.00    -0.051 C 
ATOM     22  C   UNL     1      46.049  18.449  20.542  0.00  0.00    +0.404 C 
ATOM     23  O   UNL     1      45.966  17.506  21.301  0.00  0.00    -0.420 OA
ATOM     24  C   UNL     1      48.627  20.652  18.955  0.00  0.00    -0.058 A 
ENDROOT
BRANCH   3   2
ATOM      1  C   UNL     1      51.279  21.161  18.125  0.00  0.00    +0.254 C 
ATOM      2  O   UNL     1      50.909  21.017  19.498  0.00  0.00    -0.305 OA
ENDBRANCH   3   2
BRANCH   5   6
ATOM      6  O   UNL     1      48.357  17.998  22.131  0.00  0.00    -0.476 OA
ATOM      7  H   UNL     1      47.465  17.657  22.281  0.00  0.00    +0.399 HD
ENDBRANCH   5   6
BRANCH  12  13
ATOM     13  C   UNL     1      44.324  20.253  20.514  0.00  0.00    +0.110 C 
BRANCH  13  14
ATOM     14  C   UNL     1      43.025  20.687  19.886  0.00  0.00    -0.099 A 
ATOM     15  C   UNL     1      41.957  19.810  19.834  0.00  0.00    +0.033 A 
ATOM     16  C   UNL     1      40.762  20.207  19.264  0.00  0.00    -0.012 A 
ATOM     17  C   UNL     1      40.639  21.482  18.732  0.00  0.00    +0.106 A 
ATOM     20  C   UNL     1      41.713  22.359  18.781  0.00  0.00    -0.011 A 
ATOM     21  C   UNL     1      42.903  21.959  19.357  0.00  0.00    +0.026 A 
BRANCH  17  18
ATOM     18  O   UNL     1      39.468  21.873  18.165  0.00  0.00    -0.499 OA
ATOM     19  H   UNL     1      38.771  22.078  18.803  0.00  0.00    +0.391 HD
ENDBRANCH  17  18
ENDBRANCH  13  14
ENDBRANCH  12  13
TORSDOF 5
ENDMDL
MODEL 8
REMARK VINA RESULT:      -5.4      1.760      2.134
REMARK  Name = ZINC01663629
REMARK  6 active torsions:
REMARK  status: ('A' for Active; 'I' for Inactive)
REMARK    1  A    between atoms: C1_1  and  O1_2
REMARK    2  A    between atoms: O1_2  and  C2_3
REMARK    3  A    between atoms: C4_5  and  O5_23
REMARK    4  A    between atoms: C9_11  and  C11_15
REMARK    5  A    between atoms: C11_15  and  C12_16
REMARK    6  A    between atoms: C15_19  and  O4_22
REMARK                            x       y       z     vdW  Elec       q    Type
REMARK                         _______ _______ _______ _____ _____    ______ ____
ROOT
ATOM      3  C   UNL     1      42.935  21.683  19.363  0.00  0.00    +0.214 A 
ATOM      4  C   UNL     1      43.008  20.306  19.195  0.00  0.00    -0.139 A 
ATOM      5  C   UNL     1      44.177  19.631  19.497  0.00  0.00    +0.242 A 
ATOM      8  C   UNL     1      45.283  20.347  19.982  0.00  0.00    -0.315 A 
ATOM      9  C   UNL     1      45.205  21.742  20.150  0.00  0.00    +0.231 A 
ATOM     10  O   UNL     1      46.270  22.445  20.602  0.00  0.00    -0.299 OA
ATOM     11  C   UNL     1      47.275  21.762  21.351  0.00  0.00    +0.274 C 
ATOM     12  C   UNL     1      47.748  20.531  20.564  0.00  0.00    -0.051 C 
ATOM     22  C   UNL     1      46.530  19.656  20.324  0.00  0.00    +0.404 C 
ATOM     23  O   UNL     1      46.587  18.447  20.411  0.00  0.00    -0.420 OA
ATOM     24  C   UNL     1      44.025  22.397  19.844  0.00  0.00    -0.058 A 
ENDROOT
BRANCH   3   2
ATOM      1  C   UNL     1      40.675  21.538  18.644  0.00  0.00    +0.254 C 
ATOM      2  O   UNL     1      41.785  22.337  19.062  0.00  0.00    -0.305 OA
ENDBRANCH   3   2
BRANCH   5   6
ATOM      6  O   UNL     1      44.254  18.288  19.327  0.00  0.00    -0.476 OA
ATOM      7  H   UNL     1      45.132  17.920  19.495  0.00  0.00    +0.399 HD
ENDBRANCH   5   6
BRANCH  12  13
ATOM     13  C   UNL     1      48.348  20.968  19.226  0.00  0.00    +0.110 C 
BRANCH  13  14
ATOM     14  C   UNL     1      49.663  20.263  19.011  0.00  0.00    -0.099 A 
ATOM     15  C   UNL     1      49.959  19.120  19.730  0.00  0.00    +0.033 A 
ATOM     16  C   UNL     1      51.161  18.468  19.531  0.00  0.00    -0.012 A 
ATOM     17  C   UNL     1      52.076  18.969  18.617  0.00  0.00    +0.106 A 
ATOM     20  C   UNL     1      51.779  20.119  17.899  0.00  0.00    -0.011 A 
ATOM     21  C   UNL     1      50.574  20.763  18.098  0.00  0.00    +0.026 A 
BRANCH  17  18
ATOM     18  O   UNL     1      53.262  18.334  18.424  0.00  0.00    -0.499 OA
ATOM     19  H   UNL     1      53.944  18.570  19.067  0.00  0.00    +0.391 HD
ENDBRANCH  17  18
ENDBRANCH  13  14
ENDBRANCH  12  13
TORSDOF 5
ENDMDL
MODEL 9
REMARK VINA RESULT:      -5.4      5.200      7.207
REMARK  Name = ZINC01663629
REMARK  6 active torsions:
REMARK  status: ('A' for Active; 'I' for Inactive)
REMARK    1  A    between atoms: C1_1  and  O1_2
REMARK    2  A    between atoms: O1_2  and  C2_3
REMARK    3  A    between atoms: C4_5  and  O5_23
REMARK    4  A    between atoms: C9_11  and  C11_15
REMARK    5  A    between atoms: C11_15  and  C12_16
REMARK    6  A    between atoms: C15_19  and  O4_22
REMARK                            x       y       z     vdW  Elec       q    Type
REMARK                         _______ _______ _______ _____ _____    ______ ____
ROOT
ATOM      3  C   UNL     1      46.302  13.062  17.590  0.00  0.00    +0.214 A 
ATOM      4  C   UNL     1      47.460  13.475  16.941  0.00  0.00    -0.139 A 
ATOM      5  C   UNL     1      47.946  14.755  17.140  0.00  0.00    +0.242 A 
ATOM      8  C   UNL     1      47.267  15.626  18.007  0.00  0.00    -0.315 A 
ATOM      9  C   UNL     1      46.095  15.204  18.660  0.00  0.00    +0.231 A 
ATOM     10  O   UNL     1      45.423  16.040  19.486  0.00  0.00    -0.299 OA
ATOM     11  C   UNL     1      46.125  17.138  20.069  0.00  0.00    +0.274 C 
ATOM     12  C   UNL     1      46.828  17.937  18.963  0.00  0.00    -0.051 C 
ATOM     22  C   UNL     1      47.768  16.983  18.247  0.00  0.00    +0.404 C 
ATOM     23  O   UNL     1      48.877  17.326  17.893  0.00  0.00    -0.420 OA
ATOM     24  C   UNL     1      45.627  13.919  18.449  0.00  0.00    -0.058 A 
ENDROOT
BRANCH   3   2
ATOM      1  C   UNL     1      46.269  11.132  16.204  0.00  0.00    +0.254 C 
ATOM      2  O   UNL     1      45.831  11.806  17.387  0.00  0.00    -0.305 OA
ENDBRANCH   3   2
BRANCH   5   6
ATOM      6  O   UNL     1      49.072  15.164  16.503  0.00  0.00    -0.476 OA
ATOM      7  H   UNL     1      49.778  15.450  17.098  0.00  0.00    +0.399 HD
ENDBRANCH   5   6
BRANCH  12  13
ATOM     13  C   UNL     1      45.793  18.486  17.979  0.00  0.00    +0.110 C 
BRANCH  13  14
ATOM     14  C   UNL     1      45.140  19.710  18.567  0.00  0.00    -0.099 A 
ATOM     15  C   UNL     1      45.892  20.847  18.804  0.00  0.00    +0.033 A 
ATOM     16  C   UNL     1      45.295  21.973  19.338  0.00  0.00    -0.012 A 
ATOM     17  C   UNL     1      43.943  21.959  19.646  0.00  0.00    +0.106 A 
ATOM     20  C   UNL     1      43.191  20.816  19.412  0.00  0.00    -0.011 A 
ATOM     21  C   UNL     1      43.791  19.695  18.873  0.00  0.00    +0.026 A 
BRANCH  17  18
ATOM     18  O   UNL     1      43.354  23.062  20.177  0.00  0.00    -0.499 OA
ATOM     19  H   UNL     1      42.839  23.578  19.542  0.00  0.00    +0.391 HD
ENDBRANCH  17  18
ENDBRANCH  13  14
ENDBRANCH  12  13
TORSDOF 5
ENDMDL
