MODEL 1
REMARK VINA RESULT:      -5.3      0.000      0.000
REMARK  Name = ZINC95486371
REMARK  9 active torsions:
REMARK  status: ('A' for Active; 'I' for Inactive)
REMARK    1  A    between atoms: C1_1  and  C2_2
REMARK    2  A    between atoms: C6_6  and  C20_27
REMARK    3  A    between atoms: C6_6  and  C21_28
REMARK    4  A    between atoms: C11_12  and  C12_14
REMARK    5  A    between atoms: C12_14  and  C13_15
REMARK    6  A    between atoms: C14_16  and  C15_17
REMARK    7  A    between atoms: C14_16  and  C17_21
REMARK    8  A    between atoms: C17_21  and  O3_23
REMARK    9  A    between atoms: O3_23  and  C18_24
REMARK                            x       y       z     vdW  Elec       q    Type
REMARK                         _______ _______ _______ _____ _____    ______ ____
ROOT
ATOM      1  C   UNL     1      44.103  19.236  18.418  0.00  0.00    +0.027 C 
ATOM      2  C   UNL     1      43.805  20.432  19.335  0.00  0.00    -0.031 C 
ATOM      3  C   UNL     1      43.465  19.920  20.732  0.00  0.00    +0.014 C 
ATOM      4  C   UNL     1      42.167  19.111  20.687  0.00  0.00    +0.004 C 
ATOM      5  C   UNL     1      41.024  19.991  20.197  0.00  0.00    +0.012 C 
ATOM      6  C   UNL     1      41.316  20.580  18.818  0.00  0.00    -0.052 C 
ATOM      7  C   UNL     1      40.190  21.594  18.510  0.00  0.00    +0.013 C 
ATOM      8  C   UNL     1      41.198  19.500  17.743  0.00  0.00    +0.024 C 
ATOM      9  C   UNL     1      45.117  21.232  19.370  0.00  0.00    +0.032 C 
ATOM     20  C   UNL     1      44.933  22.484  20.214  0.00  0.00    +0.018 C 
ATOM     21  C   UNL     1      45.169  22.441  21.717  0.00  0.00    +0.183 C 
ATOM     22  O   UNL     1      46.073  23.086  20.815  0.00  0.00    -0.335 OA
ATOM     23  C   UNL     1      43.823  23.393  19.679  0.00  0.00    +0.048 C 
ATOM     24  C   UNL     1      42.526  22.584  19.619  0.00  0.00    +0.025 C 
ATOM     25  C   UNL     1      42.667  21.296  18.799  0.00  0.00    +0.020 C 
ENDROOT
BRANCH   9  10
ATOM     10  C   UNL     1      46.264  20.372  19.887  0.00  0.00    +0.070 C 
BRANCH  10  11
ATOM     11  C   UNL     1      47.493  20.616  19.048  0.00  0.00    +0.086 C 
ATOM     12  C   UNL     1      48.691  20.670  19.624  0.00  0.00    -0.139 C 
BRANCH  12  17
ATOM     17  C   UNL     1      49.921  20.890  18.782  0.00  0.00    +0.191 C 
ATOM     18  C   UNL     1      50.741  19.662  18.382  0.00  0.00    +0.202 C 
ATOM     19  O   UNL     1      51.191  20.596  19.369  0.00  0.00    -0.344 OA
ENDBRANCH  12  17
BRANCH  12  13
ATOM     13  C   UNL     1      48.815  20.516  21.080  0.00  0.00    +0.509 C 
ATOM     16  O   UNL     1      48.846  21.498  21.795  0.00  0.00    -0.481 OA
BRANCH  13  14
ATOM     14  O   UNL     1      48.893  19.284  21.623  0.00  0.00    -0.353 OA
ATOM     15  C   UNL     1      50.141  18.913  22.213  0.00  0.00    +0.256 C 
ENDBRANCH  13  14
ENDBRANCH  12  13
ENDBRANCH  10  11
ENDBRANCH   9  10
TORSDOF 5
ENDMDL
MODEL 2
REMARK VINA RESULT:      -5.3      2.525      7.210
REMARK  Name = ZINC95486371
REMARK  9 active torsions:
REMARK  status: ('A' for Active; 'I' for Inactive)
REMARK    1  A    between atoms: C1_1  and  C2_2
REMARK    2  A    between atoms: C6_6  and  C20_27
REMARK    3  A    between atoms: C6_6  and  C21_28
REMARK    4  A    between atoms: C11_12  and  C12_14
REMARK    5  A    between atoms: C12_14  and  C13_15
REMARK    6  A    between atoms: C14_16  and  C15_17
REMARK    7  A    between atoms: C14_16  and  C17_21
REMARK    8  A    between atoms: C17_21  and  O3_23
REMARK    9  A    between atoms: O3_23  and  C18_24
REMARK                            x       y       z     vdW  Elec       q    Type
REMARK                         _______ _______ _______ _____ _____    ______ ____
ROOT
ATOM      1  C   UNL     1      48.208  20.757  19.374  0.00  0.00    +0.027 C 
ATOM      2  C   UNL     1      48.476  19.279  19.050  0.00  0.00    -0.031 C 
ATOM      3  C   UNL     1      48.935  18.564  20.317  0.00  0.00    +0.014 C 
ATOM      4  C   UNL     1      50.282  19.128  20.774  0.00  0.00    +0.004 C 
ATOM      5  C   UNL     1      51.328  18.918  19.686  0.00  0.00    +0.012 C 
ATOM      6  C   UNL     1      50.912  19.569  18.369  0.00  0.00    -0.052 C 
ATOM      7  C   UNL     1      51.943  19.134  17.302  0.00  0.00    +0.013 C 
ATOM      8  C   UNL     1      51.040  21.090  18.464  0.00  0.00    +0.024 C 
ATOM      9  C   UNL     1      47.115  18.728  18.595  0.00  0.00    +0.032 C 
ATOM     20  C   UNL     1      47.261  17.268  18.191  0.00  0.00    +0.018 C 
ATOM     21  C   UNL     1      47.121  16.164  19.230  0.00  0.00    +0.183 C 
ATOM     22  O   UNL     1      46.120  16.420  18.240  0.00  0.00    -0.335 OA
ATOM     23  C   UNL     1      48.270  17.073  17.056  0.00  0.00    +0.048 C 
ATOM     24  C   UNL     1      49.615  17.649  17.503  0.00  0.00    +0.025 C 
ATOM     25  C   UNL     1      49.515  19.114  17.945  0.00  0.00    +0.020 C 
ENDROOT
BRANCH   9  10
ATOM     10  C   UNL     1      46.065  18.903  19.685  0.00  0.00    +0.070 C 
BRANCH  10  11
ATOM     11  C   UNL     1      44.815  19.498  19.087  0.00  0.00    +0.086 C 
ATOM     12  C   UNL     1      44.018  20.259  19.833  0.00  0.00    -0.139 C 
BRANCH  12  17
ATOM     17  C   UNL     1      42.781  20.872  19.230  0.00  0.00    +0.191 C 
ATOM     18  C   UNL     1      41.457  20.127  19.407  0.00  0.00    +0.202 C 
ATOM     19  O   UNL     1      42.148  20.174  18.155  0.00  0.00    -0.344 OA
ENDBRANCH  12  17
BRANCH  12  13
ATOM     13  C   UNL     1      44.345  20.502  21.245  0.00  0.00    +0.509 C 
ATOM     16  O   UNL     1      43.818  19.836  22.114  0.00  0.00    -0.481 OA
BRANCH  13  14
ATOM     14  O   UNL     1      45.229  21.465  21.576  0.00  0.00    -0.353 OA
ATOM     15  C   UNL     1      44.754  22.812  21.573  0.00  0.00    +0.256 C 
ENDBRANCH  13  14
ENDBRANCH  12  13
ENDBRANCH  10  11
ENDBRANCH   9  10
TORSDOF 5
ENDMDL
MODEL 3
REMARK VINA RESULT:      -5.2      2.591      7.447
REMARK  Name = ZINC95486371
REMARK  9 active torsions:
REMARK  status: ('A' for Active; 'I' for Inactive)
REMARK    1  A    between atoms: C1_1  and  C2_2
REMARK    2  A    between atoms: C6_6  and  C20_27
REMARK    3  A    between atoms: C6_6  and  C21_28
REMARK    4  A    between atoms: C11_12  and  C12_14
REMARK    5  A    between atoms: C12_14  and  C13_15
REMARK    6  A    between atoms: C14_16  and  C15_17
REMARK    7  A    between atoms: C14_16  and  C17_21
REMARK    8  A    between atoms: C17_21  and  O3_23
REMARK    9  A    between atoms: O3_23  and  C18_24
REMARK                            x       y       z     vdW  Elec       q    Type
REMARK                         _______ _______ _______ _____ _____    ______ ____
ROOT
ATOM      1  C   UNL     1      49.740  20.952  18.683  0.00  0.00    +0.027 C 
ATOM      2  C   UNL     1      49.696  19.419  18.597  0.00  0.00    -0.031 C 
ATOM      3  C   UNL     1      50.544  18.830  19.721  0.00  0.00    +0.014 C 
ATOM      4  C   UNL     1      52.013  19.204  19.516  0.00  0.00    +0.004 C 
ATOM      5  C   UNL     1      52.508  18.649  18.186  0.00  0.00    +0.012 C 
ATOM      6  C   UNL     1      51.673  19.161  17.014  0.00  0.00    -0.052 C 
ATOM      7  C   UNL     1      52.140  18.394  15.755  0.00  0.00    +0.013 C 
ATOM      8  C   UNL     1      51.992  20.631  16.736  0.00  0.00    +0.024 C 
ATOM      9  C   UNL     1      48.216  19.061  18.806  0.00  0.00    +0.032 C 
ATOM     20  C   UNL     1      48.032  17.555  18.690  0.00  0.00    +0.018 C 
ATOM     21  C   UNL     1      48.199  16.661  19.911  0.00  0.00    +0.183 C 
ATOM     22  O   UNL     1      46.920  16.943  19.335  0.00  0.00    -0.335 OA
ATOM     23  C   UNL     1      48.476  17.014  17.328  0.00  0.00    +0.048 C 
ATOM     24  C   UNL     1      49.941  17.399  17.112  0.00  0.00    +0.025 C 
ATOM     25  C   UNL     1      50.184  18.907  17.245  0.00  0.00    +0.020 C 
ENDROOT
BRANCH   9  10
ATOM     10  C   UNL     1      47.714  19.583  20.147  0.00  0.00    +0.070 C 
BRANCH  10  11
ATOM     11  C   UNL     1      47.044  20.918  19.946  0.00  0.00    +0.086 C 
ATOM     12  C   UNL     1      45.737  20.976  19.705  0.00  0.00    -0.139 C 
BRANCH  12  17
ATOM     17  C   UNL     1      45.062  22.312  19.527  0.00  0.00    +0.191 C 
ATOM     18  C   UNL     1      44.463  22.979  20.767  0.00  0.00    +0.202 C 
ATOM     19  O   UNL     1      43.652  22.382  19.750  0.00  0.00    -0.344 OA
ENDBRANCH  12  17
BRANCH  12  13
ATOM     13  C   UNL     1      44.951  19.739  19.610  0.00  0.00    +0.509 C 
ATOM     16  O   UNL     1      44.692  19.264  18.522  0.00  0.00    -0.481 OA
BRANCH  13  14
ATOM     14  O   UNL     1      44.517  19.129  20.732  0.00  0.00    -0.353 OA
ATOM     15  C   UNL     1      43.108  18.927  20.858  0.00  0.00    +0.256 C 
ENDBRANCH  13  14
ENDBRANCH  12  13
ENDBRANCH  10  11
ENDBRANCH   9  10
TORSDOF 5
ENDMDL
MODEL 4
REMARK VINA RESULT:      -5.1      2.637      4.530
REMARK  Name = ZINC95486371
REMARK  9 active torsions:
REMARK  status: ('A' for Active; 'I' for Inactive)
REMARK    1  A    between atoms: C1_1  and  C2_2
REMARK    2  A    between atoms: C6_6  and  C20_27
REMARK    3  A    between atoms: C6_6  and  C21_28
REMARK    4  A    between atoms: C11_12  and  C12_14
REMARK    5  A    between atoms: C12_14  and  C13_15
REMARK    6  A    between atoms: C14_16  and  C15_17
REMARK    7  A    between atoms: C14_16  and  C17_21
REMARK    8  A    between atoms: C17_21  and  O3_23
REMARK    9  A    between atoms: O3_23  and  C18_24
REMARK                            x       y       z     vdW  Elec       q    Type
REMARK                         _______ _______ _______ _____ _____    ______ ____
ROOT
ATOM      1  C   UNL     1      46.629  20.779  20.921  0.00  0.00    +0.027 C 
ATOM      2  C   UNL     1      46.244  19.583  20.037  0.00  0.00    -0.031 C 
ATOM      3  C   UNL     1      45.559  20.094  18.773  0.00  0.00    +0.014 C 
ATOM      4  C   UNL     1      44.236  20.771  19.136  0.00  0.00    +0.004 C 
ATOM      5  C   UNL     1      43.314  19.771  19.822  0.00  0.00    +0.012 C 
ATOM      6  C   UNL     1      43.956  19.179  21.076  0.00  0.00    -0.052 C 
ATOM      7  C   UNL     1      43.021  18.053  21.575  0.00  0.00    +0.013 C 
ATOM      8  C   UNL     1      43.981  20.215  22.199  0.00  0.00    +0.024 C 
ATOM      9  C   UNL     1      47.583  18.917  19.680  0.00  0.00    +0.032 C 
ATOM     20  C   UNL     1      47.330  17.674  18.840  0.00  0.00    +0.018 C 
ATOM     21  C   UNL     1      47.223  17.777  17.325  0.00  0.00    +0.183 C 
ATOM     22  O   UNL     1      48.359  17.202  17.977  0.00  0.00    -0.335 OA
ATOM     23  C   UNL     1      46.453  16.648  19.561  0.00  0.00    +0.048 C 
ATOM     24  C   UNL     1      45.133  17.324  19.939  0.00  0.00    +0.025 C 
ATOM     25  C   UNL     1      45.336  18.599  20.768  0.00  0.00    +0.020 C 
ENDROOT
BRANCH   9  10
ATOM     10  C   UNL     1      48.505  19.897  18.965  0.00  0.00    +0.070 C 
BRANCH  10  11
ATOM     11  C   UNL     1      49.772  20.069  19.763  0.00  0.00    +0.086 C 
ATOM     12  C   UNL     1      50.928  20.278  19.139  0.00  0.00    -0.139 C 
BRANCH  12  17
ATOM     17  C   UNL     1      52.191  20.473  19.938  0.00  0.00    +0.191 C 
ATOM     18  C   UNL     1      52.588  21.903  20.308  0.00  0.00    +0.202 C 
ATOM     19  O   UNL     1      53.281  21.150  19.308  0.00  0.00    -0.344 OA
ENDBRANCH  12  17
BRANCH  12  13
ATOM     13  C   UNL     1      50.974  20.321  17.671  0.00  0.00    +0.509 C 
ATOM     16  O   UNL     1      50.893  21.385  17.091  0.00  0.00    -0.481 OA
BRANCH  13  14
ATOM     14  O   UNL     1      51.105  19.178  16.967  0.00  0.00    -0.353 OA
ATOM     15  C   UNL     1      51.859  19.244  15.756  0.00  0.00    +0.256 C 
ENDBRANCH  13  14
ENDBRANCH  12  13
ENDBRANCH  10  11
ENDBRANCH   9  10
TORSDOF 5
ENDMDL
MODEL 5
REMARK VINA RESULT:      -5.1      1.576      2.127
REMARK  Name = ZINC95486371
REMARK  9 active torsions:
REMARK  status: ('A' for Active; 'I' for Inactive)
REMARK    1  A    between atoms: C1_1  and  C2_2
REMARK    2  A    between atoms: C6_6  and  C20_27
REMARK    3  A    between atoms: C6_6  and  C21_28
REMARK    4  A    between atoms: C11_12  and  C12_14
REMARK    5  A    between atoms: C12_14  and  C13_15
REMARK    6  A    between atoms: C14_16  and  C15_17
REMARK    7  A    between atoms: C14_16  and  C17_21
REMARK    8  A    between atoms: C17_21  and  O3_23
REMARK    9  A    between atoms: O3_23  and  C18_24
REMARK                            x       y       z     vdW  Elec       q    Type
REMARK                         _______ _______ _______ _____ _____    ______ ____
ROOT
ATOM      1  C   UNL     1      45.497  19.459  18.537  0.00  0.00    +0.027 C 
ATOM      2  C   UNL     1      45.164  20.435  19.676  0.00  0.00    -0.031 C 
ATOM      3  C   UNL     1      44.841  19.640  20.938  0.00  0.00    +0.014 C 
ATOM      4  C   UNL     1      43.568  18.819  20.724  0.00  0.00    +0.004 C 
ATOM      5  C   UNL     1      42.399  19.746  20.416  0.00  0.00    +0.012 C 
ATOM      6  C   UNL     1      42.672  20.610  19.187  0.00  0.00    -0.052 C 
ATOM      7  C   UNL     1      41.515  21.631  19.084  0.00  0.00    +0.013 C 
ATOM      8  C   UNL     1      42.585  19.767  17.914  0.00  0.00    +0.024 C 
ATOM      9  C   UNL     1      46.452  21.250  19.879  0.00  0.00    +0.032 C 
ATOM     20  C   UNL     1      46.230  22.299  20.958  0.00  0.00    +0.018 C 
ATOM     21  C   UNL     1      46.469  21.960  22.423  0.00  0.00    +0.183 C 
ATOM     22  O   UNL     1      47.352  22.800  21.675  0.00  0.00    -0.335 OA
ATOM     23  C   UNL     1      45.092  23.264  20.613  0.00  0.00    +0.048 C 
ATOM     24  C   UNL     1      43.820  22.445  20.383  0.00  0.00    +0.025 C 
ATOM     25  C   UNL     1      44.000  21.355  19.320  0.00  0.00    +0.020 C 
ENDROOT
BRANCH   9  10
ATOM     10  C   UNL     1      47.624  20.338  20.218  0.00  0.00    +0.070 C 
BRANCH  10  11
ATOM     11  C   UNL     1      48.812  20.710  19.367  0.00  0.00    +0.086 C 
ATOM     12  C   UNL     1      49.609  19.760  18.886  0.00  0.00    -0.139 C 
BRANCH  12  17
ATOM     17  C   UNL     1      50.783  20.131  18.016  0.00  0.00    +0.191 C 
ATOM     18  C   UNL     1      52.155  20.246  18.683  0.00  0.00    +0.202 C 
ATOM     19  O   UNL     1      51.414  21.391  18.251  0.00  0.00    -0.344 OA
ENDBRANCH  12  17
BRANCH  12  13
ATOM     13  C   UNL     1      49.344  18.349  19.200  0.00  0.00    +0.509 C 
ATOM     16  O   UNL     1      49.938  17.808  20.112  0.00  0.00    -0.481 OA
BRANCH  13  14
ATOM     14  O   UNL     1      48.442  17.655  18.477  0.00  0.00    -0.353 OA
ATOM     15  C   UNL     1      48.864  17.181  17.196  0.00  0.00    +0.256 C 
ENDBRANCH  13  14
ENDBRANCH  12  13
ENDBRANCH  10  11
ENDBRANCH   9  10
TORSDOF 5
ENDMDL
MODEL 6
REMARK VINA RESULT:      -4.8      2.867      5.023
REMARK  Name = ZINC95486371
REMARK  9 active torsions:
REMARK  status: ('A' for Active; 'I' for Inactive)
REMARK    1  A    between atoms: C1_1  and  C2_2
REMARK    2  A    between atoms: C6_6  and  C20_27
REMARK    3  A    between atoms: C6_6  and  C21_28
REMARK    4  A    between atoms: C11_12  and  C12_14
REMARK    5  A    between atoms: C12_14  and  C13_15
REMARK    6  A    between atoms: C14_16  and  C15_17
REMARK    7  A    between atoms: C14_16  and  C17_21
REMARK    8  A    between atoms: C17_21  and  O3_23
REMARK    9  A    between atoms: O3_23  and  C18_24
REMARK                            x       y       z     vdW  Elec       q    Type
REMARK                         _______ _______ _______ _____ _____    ______ ____
ROOT
ATOM      1  C   UNL     1      47.637  20.120  20.522  0.00  0.00    +0.027 C 
ATOM      2  C   UNL     1      46.692  19.192  19.744  0.00  0.00    -0.031 C 
ATOM      3  C   UNL     1      46.184  19.921  18.503  0.00  0.00    +0.014 C 
ATOM      4  C   UNL     1      45.324  21.117  18.918  0.00  0.00    +0.004 C 
ATOM      5  C   UNL     1      44.127  20.638  19.731  0.00  0.00    +0.012 C 
ATOM      6  C   UNL     1      44.561  19.856  20.969  0.00  0.00    -0.052 C 
ATOM      7  C   UNL     1      43.281  19.265  21.604  0.00  0.00    +0.013 C 
ATOM      8  C   UNL     1      45.137  20.804  22.021  0.00  0.00    +0.024 C 
ATOM      9  C   UNL     1      47.570  17.999  19.334  0.00  0.00    +0.032 C 
ATOM     20  C   UNL     1      46.727  16.972  18.592  0.00  0.00    +0.018 C 
ATOM     21  C   UNL     1      46.536  17.075  17.086  0.00  0.00    +0.183 C 
ATOM     22  O   UNL     1      47.365  16.077  17.689  0.00  0.00    -0.335 OA
ATOM     23  C   UNL     1      45.561  16.451  19.438  0.00  0.00    +0.048 C 
ATOM     24  C   UNL     1      44.707  17.646  19.868  0.00  0.00    +0.025 C 
ATOM     25  C   UNL     1      45.518  18.723  20.598  0.00  0.00    +0.020 C 
ENDROOT
BRANCH   9  10
ATOM     10  C   UNL     1      48.756  18.459  18.494  0.00  0.00    +0.070 C 
BRANCH  10  11
ATOM     11  C   UNL     1      50.033  17.934  19.099  0.00  0.00    +0.086 C 
ATOM     12  C   UNL     1      51.205  18.246  18.551  0.00  0.00    -0.139 C 
BRANCH  12  17
ATOM     17  C   UNL     1      52.483  17.740  19.169  0.00  0.00    +0.191 C 
ATOM     18  C   UNL     1      52.966  16.345  18.768  0.00  0.00    +0.202 C 
ATOM     19  O   UNL     1      52.399  16.620  20.052  0.00  0.00    -0.344 OA
ENDBRANCH  12  17
BRANCH  12  13
ATOM     13  C   UNL     1      51.253  19.083  17.344  0.00  0.00    +0.509 C 
ATOM     16  O   UNL     1      51.185  18.569  16.245  0.00  0.00    -0.481 OA
BRANCH  13  14
ATOM     14  O   UNL     1      51.373  20.421  17.457  0.00  0.00    -0.353 OA
ATOM     15  C   UNL     1      51.596  21.156  16.252  0.00  0.00    +0.256 C 
ENDBRANCH  13  14
ENDBRANCH  12  13
ENDBRANCH  10  11
ENDBRANCH   9  10
TORSDOF 5
ENDMDL
MODEL 7
REMARK VINA RESULT:      -4.8      3.946      6.829
REMARK  Name = ZINC95486371
REMARK  9 active torsions:
REMARK  status: ('A' for Active; 'I' for Inactive)
REMARK    1  A    between atoms: C1_1  and  C2_2
REMARK    2  A    between atoms: C6_6  and  C20_27
REMARK    3  A    between atoms: C6_6  and  C21_28
REMARK    4  A    between atoms: C11_12  and  C12_14
REMARK    5  A    between atoms: C12_14  and  C13_15
REMARK    6  A    between atoms: C14_16  and  C15_17
REMARK    7  A    between atoms: C14_16  and  C17_21
REMARK    8  A    between atoms: C17_21  and  O3_23
REMARK    9  A    between atoms: O3_23  and  C18_24
REMARK                            x       y       z     vdW  Elec       q    Type
REMARK                         _______ _______ _______ _____ _____    ______ ____
ROOT
ATOM      1  C   UNL     1      46.225  17.029  17.316  0.00  0.00    +0.027 C 
ATOM      2  C   UNL     1      46.288  16.506  18.759  0.00  0.00    -0.031 C 
ATOM      3  C   UNL     1      47.624  16.905  19.379  0.00  0.00    +0.014 C 
ATOM      4  C   UNL     1      48.768  16.203  18.645  0.00  0.00    +0.004 C 
ATOM      5  C   UNL     1      48.607  14.693  18.758  0.00  0.00    +0.012 C 
ATOM      6  C   UNL     1      47.266  14.224  18.198  0.00  0.00    -0.052 C 
ATOM      7  C   UNL     1      47.134  12.720  18.535  0.00  0.00    +0.013 C 
ATOM      8  C   UNL     1      47.272  14.299  16.671  0.00  0.00    +0.024 C 
ATOM      9  C   UNL     1      45.134  17.221  19.482  0.00  0.00    +0.032 C 
ATOM     20  C   UNL     1      45.058  16.742  20.924  0.00  0.00    +0.018 C 
ATOM     21  C   UNL     1      45.877  17.428  22.008  0.00  0.00    +0.183 C 
ATOM     22  O   UNL     1      44.460  17.587  21.901  0.00  0.00    -0.335 OA
ATOM     23  C   UNL     1      44.835  15.231  21.028  0.00  0.00    +0.048 C 
ATOM     24  C   UNL     1      45.970  14.525  20.283  0.00  0.00    +0.025 C 
ATOM     25  C   UNL     1      46.105  14.993  18.829  0.00  0.00    +0.020 C 
ENDROOT
BRANCH   9  10
ATOM     10  C   UNL     1      45.298  18.734  19.403  0.00  0.00    +0.070 C 
BRANCH  10  11
ATOM     11  C   UNL     1      44.000  19.358  18.958  0.00  0.00    +0.086 C 
ATOM     12  C   UNL     1      43.588  20.498  19.504  0.00  0.00    -0.139 C 
BRANCH  12  17
ATOM     17  C   UNL     1      42.302  21.134  19.043  0.00  0.00    +0.191 C 
ATOM     18  C   UNL     1      40.989  20.460  19.445  0.00  0.00    +0.202 C 
ATOM     19  O   UNL     1      41.498  20.410  18.109  0.00  0.00    -0.344 OA
ENDBRANCH  12  17
BRANCH  12  13
ATOM     13  C   UNL     1      44.388  21.140  20.557  0.00  0.00    +0.509 C 
ATOM     16  O   UNL     1      44.234  20.818  21.719  0.00  0.00    -0.481 OA
BRANCH  13  14
ATOM     14  O   UNL     1      45.293  22.086  20.235  0.00  0.00    -0.353 OA
ATOM     15  C   UNL     1      46.402  22.252  21.120  0.00  0.00    +0.256 C 
ENDBRANCH  13  14
ENDBRANCH  12  13
ENDBRANCH  10  11
ENDBRANCH   9  10
TORSDOF 5
ENDMDL
MODEL 8
REMARK VINA RESULT:      -4.8      3.755      6.690
REMARK  Name = ZINC95486371
REMARK  9 active torsions:
REMARK  status: ('A' for Active; 'I' for Inactive)
REMARK    1  A    between atoms: C1_1  and  C2_2
REMARK    2  A    between atoms: C6_6  and  C20_27
REMARK    3  A    between atoms: C6_6  and  C21_28
REMARK    4  A    between atoms: C11_12  and  C12_14
REMARK    5  A    between atoms: C12_14  and  C13_15
REMARK    6  A    between atoms: C14_16  and  C15_17
REMARK    7  A    between atoms: C14_16  and  C17_21
REMARK    8  A    between atoms: C17_21  and  O3_23
REMARK    9  A    between atoms: O3_23  and  C18_24
REMARK                            x       y       z     vdW  Elec       q    Type
REMARK                         _______ _______ _______ _____ _____    ______ ____
ROOT
ATOM      1  C   UNL     1      44.708  16.801  20.597  0.00  0.00    +0.027 C 
ATOM      2  C   UNL     1      46.117  16.505  20.062  0.00  0.00    -0.031 C 
ATOM      3  C   UNL     1      46.006  15.650  18.803  0.00  0.00    +0.014 C 
ATOM      4  C   UNL     1      45.412  14.284  19.153  0.00  0.00    +0.004 C 
ATOM      5  C   UNL     1      46.310  13.568  20.153  0.00  0.00    +0.012 C 
ATOM      6  C   UNL     1      46.507  14.391  21.426  0.00  0.00    -0.052 C 
ATOM      7  C   UNL     1      47.574  13.663  22.276  0.00  0.00    +0.013 C 
ATOM      8  C   UNL     1      45.232  14.374  22.271  0.00  0.00    +0.024 C 
ATOM      9  C   UNL     1      46.698  17.885  19.715  0.00  0.00    +0.032 C 
ATOM     20  C   UNL     1      48.128  17.729  19.218  0.00  0.00    +0.018 C 
ATOM     21  C   UNL     1      48.407  17.478  17.743  0.00  0.00    +0.183 C 
ATOM     22  O   UNL     1      48.679  18.733  18.373  0.00  0.00    -0.335 OA
ATOM     23  C   UNL     1      49.039  17.064  20.253  0.00  0.00    +0.048 C 
ATOM     24  C   UNL     1      48.440  15.703  20.616  0.00  0.00    +0.025 C 
ATOM     25  C   UNL     1      46.989  15.804  21.100  0.00  0.00    +0.020 C 
ENDROOT
BRANCH   9  10
ATOM     10  C   UNL     1      45.826  18.601  18.692  0.00  0.00    +0.070 C 
BRANCH  10  11
ATOM     11  C   UNL     1      45.934  20.091  18.893  0.00  0.00    +0.086 C 
ATOM     12  C   UNL     1      44.847  20.804  19.175  0.00  0.00    -0.139 C 
BRANCH  12  17
ATOM     17  C   UNL     1      44.959  22.290  19.399  0.00  0.00    +0.191 C 
ATOM     18  C   UNL     1      44.870  22.803  20.838  0.00  0.00    +0.202 C 
ATOM     19  O   UNL     1      43.808  22.978  19.895  0.00  0.00    -0.344 OA
ENDBRANCH  12  17
BRANCH  12  13
ATOM     13  C   UNL     1      43.537  20.144  19.267  0.00  0.00    +0.509 C 
ATOM     16  O   UNL     1      42.866  19.983  18.268  0.00  0.00    -0.481 OA
BRANCH  13  14
ATOM     14  O   UNL     1      43.081  19.718  20.463  0.00  0.00    -0.353 OA
ATOM     15  C   UNL     1      41.750  19.198  20.501  0.00  0.00    +0.256 C 
ENDBRANCH  13  14
ENDBRANCH  12  13
ENDBRANCH  10  11
ENDBRANCH   9  10
TORSDOF 5
ENDMDL
MODEL 9
REMARK VINA RESULT:      -4.6      5.316      8.758
REMARK  Name = ZINC95486371
REMARK  9 active torsions:
REMARK  status: ('A' for Active; 'I' for Inactive)
REMARK    1  A    between atoms: C1_1  and  C2_2
REMARK    2  A    between atoms: C6_6  and  C20_27
REMARK    3  A    between atoms: C6_6  and  C21_28
REMARK    4  A    between atoms: C11_12  and  C12_14
REMARK    5  A    between atoms: C12_14  and  C13_15
REMARK    6  A    between atoms: C14_16  and  C15_17
REMARK    7  A    between atoms: C14_16  and  C17_21
REMARK    8  A    between atoms: C17_21  and  O3_23
REMARK    9  A    between atoms: O3_23  and  C18_24
REMARK                            x       y       z     vdW  Elec       q    Type
REMARK                         _______ _______ _______ _____ _____    ______ ____
ROOT
ATOM      1  C   UNL     1      51.891  16.871  18.074  0.00  0.00    +0.027 C 
ATOM      2  C   UNL     1      50.591  17.664  17.873  0.00  0.00    -0.031 C 
ATOM      3  C   UNL     1      50.453  18.035  16.399  0.00  0.00    +0.014 C 
ATOM      4  C   UNL     1      51.576  18.993  15.997  0.00  0.00    +0.004 C 
ATOM      5  C   UNL     1      51.496  20.265  16.832  0.00  0.00    +0.012 C 
ATOM      6  C   UNL     1      51.580  19.965  18.328  0.00  0.00    -0.052 C 
ATOM      7  C   UNL     1      51.300  21.291  19.073  0.00  0.00    +0.013 C 
ATOM      8  C   UNL     1      53.008  19.575  18.712  0.00  0.00    +0.024 C 
ATOM      9  C   UNL     1      49.474  16.688  18.279  0.00  0.00    +0.032 C 
ATOM     20  C   UNL     1      48.124  17.380  18.173  0.00  0.00    +0.018 C 
ATOM     21  C   UNL     1      47.357  17.374  16.858  0.00  0.00    +0.183 C 
ATOM     22  O   UNL     1      46.956  16.590  17.985  0.00  0.00    -0.335 OA
ATOM     23  C   UNL     1      48.031  18.623  19.062  0.00  0.00    +0.048 C 
ATOM     24  C   UNL     1      49.162  19.578  18.673  0.00  0.00    +0.025 C 
ATOM     25  C   UNL     1      50.544  18.918  18.740  0.00  0.00    +0.020 C 
ENDROOT
BRANCH   9  10
ATOM     10  C   UNL     1      49.523  15.423  17.431  0.00  0.00    +0.070 C 
BRANCH  10  11
ATOM     11  C   UNL     1      49.228  14.225  18.298  0.00  0.00    +0.086 C 
ATOM     12  C   UNL     1      48.495  13.223  17.820  0.00  0.00    -0.139 C 
BRANCH  12  17
ATOM     17  C   UNL     1      48.220  12.015  18.678  0.00  0.00    +0.191 C 
ATOM     18  C   UNL     1      49.119  10.791  18.496  0.00  0.00    +0.202 C 
ATOM     19  O   UNL     1      47.767  10.825  18.029  0.00  0.00    -0.344 OA
ENDBRANCH  12  17
BRANCH  12  13
ATOM     13  C   UNL     1      47.954  13.293  16.456  0.00  0.00    +0.509 C 
ATOM     16  O   UNL     1      46.858  13.779  16.261  0.00  0.00    -0.481 OA
BRANCH  13  14
ATOM     14  O   UNL     1      48.674  12.817  15.419  0.00  0.00    -0.353 OA
ATOM     15  C   UNL     1      47.997  12.673  14.170  0.00  0.00    +0.256 C 
ENDBRANCH  13  14
ENDBRANCH  12  13
ENDBRANCH  10  11
ENDBRANCH   9  10
TORSDOF 5
ENDMDL
