MODEL 1
REMARK VINA RESULT:      -5.2      0.000      0.000
REMARK  Name = ZINC95486346
REMARK  11 active torsions:
REMARK  status: ('A' for Active; 'I' for Inactive)
REMARK    1  A    between atoms: C1_1  and  O1_2
REMARK    2  A    between atoms: O1_2  and  C2_3
REMARK    3  A    between atoms: C7_8  and  O2_9
REMARK    4  A    between atoms: C12_15  and  O6_27
REMARK    5  A    between atoms: C13_16  and  O4_24
REMARK    6  A    between atoms: C14_17  and  O3_22
REMARK    7  A    between atoms: O3_22  and  C18_23
REMARK    8  A    between atoms: O4_24  and  C19_25
REMARK    9  A    between atoms: C19_25  and  O5_26
REMARK   10  A    between atoms: O6_27  and  C20_28
REMARK   11  A    between atoms: C20_28  and  O7_29
REMARK                            x       y       z     vdW  Elec       q    Type
REMARK                         _______ _______ _______ _____ _____    ______ ____
ROOT
ATOM      3  C   UNL     1      45.147  21.447  19.410  0.00  0.00    +0.115 A 
ATOM      4  C   UNL     1      46.336  20.809  19.102  0.00  0.00    -0.008 A 
ATOM      5  C   UNL     1      46.354  19.431  18.918  0.00  0.00    -0.025 A 
ATOM      6  C   UNL     1      45.183  18.689  19.076  0.00  0.00    -0.107 A 
ATOM      7  C   UNL     1      45.228  17.191  18.946  0.00  0.00    +0.121 C 
ATOM      8  C   UNL     1      46.213  16.771  17.857  0.00  0.00    +0.247 C 
ATOM      9  C   UNL     1      47.558  17.417  18.073  0.00  0.00    -0.110 A 
ATOM     10  C   UNL     1      48.718  16.750  17.749  0.00  0.00    -0.096 A 
ATOM     11  C   UNL     1      48.706  15.376  17.141  0.00  0.00    +0.134 C 
ATOM     12  C   UNL     1      47.297  14.897  16.836  0.00  0.00    +0.279 C 
ATOM     13  C   UNL     1      49.949  17.384  17.956  0.00  0.00    +0.097 A 
ATOM     16  C   UNL     1      50.012  18.672  18.467  0.00  0.00    +0.105 A 
ATOM     21  C   UNL     1      48.842  19.350  18.778  0.00  0.00    +0.123 A 
ATOM     26  N   UNL     1      46.375  15.312  17.894  0.00  0.00    -0.503 N 
ATOM     27  H   UNL     1      45.479  14.871  17.744  0.00  0.00    +0.436 HD
ATOM     28  H   UNL     1      46.739  15.036  18.794  0.00  0.00    +0.430 HD
ATOM     29  C   UNL     1      43.999  19.329  19.375  0.00  0.00    +0.050 A 
ATOM     30  C   UNL     1      47.611  18.723  18.578  0.00  0.00    -0.023 A 
ATOM     31  C   UNL     1      43.976  20.705  19.548  0.00  0.00    +0.096 A 
ENDROOT
BRANCH   3   2
ATOM      1  C   UNL     1      45.482  23.288  20.876  0.00  0.00    +0.250 C 
ATOM      2  O   UNL     1      45.123  22.796  19.585  0.00  0.00    -0.299 OA
ENDBRANCH   3   2
BRANCH  13  14
ATOM     14  O   UNL     1      51.097  16.721  17.656  0.00  0.00    -0.327 OA
ATOM     15  C   UNL     1      51.757  16.047  18.731  0.00  0.00    +0.245 C 
ENDBRANCH  13  14
BRANCH  31  32
ATOM     32  O   UNL     1      42.807  21.332  19.847  0.00  0.00    -0.482 OA
ATOM     33  H   UNL     1      42.212  20.810  20.402  0.00  0.00    +0.396 HD
ENDBRANCH  31  32
BRANCH  16  17
ATOM     17  O   UNL     1      51.220  19.269  18.665  0.00  0.00    -0.286 OA
BRANCH  17  18
ATOM     18  C   UNL     1      51.704  20.114  17.619  0.00  0.00    +0.401 C 
BRANCH  18  19
ATOM     19  O   UNL     1      51.594  21.481  18.022  0.00  0.00    -0.583 OA
ATOM     20  H   UNL     1      51.294  22.074  17.321  0.00  0.00    +0.398 HD
ENDBRANCH  18  19
ENDBRANCH  17  18
ENDBRANCH  16  17
BRANCH  21  22
ATOM     22  O   UNL     1      48.894  20.616  19.272  0.00  0.00    -0.289 OA
BRANCH  22  23
ATOM     23  C   UNL     1      49.194  20.757  20.663  0.00  0.00    +0.389 C 
BRANCH  23  24
ATOM     24  O   UNL     1      50.580  21.065  20.823  0.00  0.00    -0.574 OA
ATOM     25  H   UNL     1      51.084  20.380  21.281  0.00  0.00    +0.398 HD
ENDBRANCH  23  24
ENDBRANCH  22  23
ENDBRANCH  21  22
TORSDOF 9
ENDMDL
MODEL 2
REMARK VINA RESULT:      -5.1      1.685      5.470
REMARK  Name = ZINC95486346
REMARK  11 active torsions:
REMARK  status: ('A' for Active; 'I' for Inactive)
REMARK    1  A    between atoms: C1_1  and  O1_2
REMARK    2  A    between atoms: O1_2  and  C2_3
REMARK    3  A    between atoms: C7_8  and  O2_9
REMARK    4  A    between atoms: C12_15  and  O6_27
REMARK    5  A    between atoms: C13_16  and  O4_24
REMARK    6  A    between atoms: C14_17  and  O3_22
REMARK    7  A    between atoms: O3_22  and  C18_23
REMARK    8  A    between atoms: O4_24  and  C19_25
REMARK    9  A    between atoms: C19_25  and  O5_26
REMARK   10  A    between atoms: O6_27  and  C20_28
REMARK   11  A    between atoms: C20_28  and  O7_29
REMARK                            x       y       z     vdW  Elec       q    Type
REMARK                         _______ _______ _______ _____ _____    ______ ____
ROOT
ATOM      3  C   UNL     1      50.769  20.137  18.205  0.00  0.00    +0.115 A 
ATOM      4  C   UNL     1      49.515  19.929  18.752  0.00  0.00    -0.008 A 
ATOM      5  C   UNL     1      48.847  18.732  18.515  0.00  0.00    -0.025 A 
ATOM      6  C   UNL     1      49.425  17.758  17.702  0.00  0.00    -0.107 A 
ATOM      7  C   UNL     1      48.663  16.498  17.393  0.00  0.00    +0.121 C 
ATOM      8  C   UNL     1      47.852  16.045  18.605  0.00  0.00    +0.247 C 
ATOM      9  C   UNL     1      47.002  17.173  19.132  0.00  0.00    -0.110 A 
ATOM     10  C   UNL     1      45.760  16.923  19.674  0.00  0.00    -0.096 A 
ATOM     11  C   UNL     1      45.208  15.531  19.796  0.00  0.00    +0.134 C 
ATOM     12  C   UNL     1      46.215  14.475  19.370  0.00  0.00    +0.279 C 
ATOM     13  C   UNL     1      45.002  17.994  20.161  0.00  0.00    +0.097 A 
ATOM     16  C   UNL     1      45.487  19.292  20.117  0.00  0.00    +0.105 A 
ATOM     21  C   UNL     1      46.746  19.542  19.587  0.00  0.00    +0.123 A 
ATOM     26  N   UNL     1      46.977  14.934  18.208  0.00  0.00    -0.503 N 
ATOM     27  H   UNL     1      47.539  14.173  17.859  0.00  0.00    +0.436 HD
ATOM     28  H   UNL     1      46.345  15.245  17.485  0.00  0.00    +0.430 HD
ATOM     29  C   UNL     1      50.678  17.966  17.165  0.00  0.00    +0.050 A 
ATOM     30  C   UNL     1      47.507  18.479  19.096  0.00  0.00    -0.023 A 
ATOM     31  C   UNL     1      51.351  19.153  17.409  0.00  0.00    +0.096 A 
ENDROOT
BRANCH   3   2
ATOM      1  C   UNL     1      52.112  21.422  19.688  0.00  0.00    +0.250 C 
ATOM      2  O   UNL     1      51.429  21.303  18.439  0.00  0.00    -0.299 OA
ENDBRANCH   3   2
BRANCH  13  14
ATOM     14  O   UNL     1      43.767  17.753  20.677  0.00  0.00    -0.327 OA
ATOM     15  C   UNL     1      43.675  17.602  22.095  0.00  0.00    +0.245 C 
ENDBRANCH  13  14
BRANCH  31  32
ATOM     32  O   UNL     1      52.585  19.356  16.875  0.00  0.00    -0.482 OA
ATOM     33  H   UNL     1      53.305  19.312  17.519  0.00  0.00    +0.396 HD
ENDBRANCH  31  32
BRANCH  16  17
ATOM     17  O   UNL     1      44.732  20.320  20.593  0.00  0.00    -0.286 OA
BRANCH  17  18
ATOM     18  C   UNL     1      43.835  20.945  19.673  0.00  0.00    +0.401 C 
BRANCH  18  19
ATOM     19  O   UNL     1      44.465  22.092  19.097  0.00  0.00    -0.583 OA
ATOM     20  H   UNL     1      43.919  22.889  19.111  0.00  0.00    +0.398 HD
ENDBRANCH  18  19
ENDBRANCH  17  18
ENDBRANCH  16  17
BRANCH  21  22
ATOM     22  O   UNL     1      47.234  20.810  19.548  0.00  0.00    -0.289 OA
BRANCH  22  23
ATOM     23  C   UNL     1      47.575  21.413  20.798  0.00  0.00    +0.389 C 
BRANCH  23  24
ATOM     24  O   UNL     1      46.676  22.491  21.067  0.00  0.00    -0.574 OA
ATOM     25  H   UNL     1      45.904  22.515  20.485  0.00  0.00    +0.398 HD
ENDBRANCH  23  24
ENDBRANCH  22  23
ENDBRANCH  21  22
TORSDOF 9
ENDMDL
MODEL 3
REMARK VINA RESULT:      -5.0      2.574      4.474
REMARK  Name = ZINC95486346
REMARK  11 active torsions:
REMARK  status: ('A' for Active; 'I' for Inactive)
REMARK    1  A    between atoms: C1_1  and  O1_2
REMARK    2  A    between atoms: O1_2  and  C2_3
REMARK    3  A    between atoms: C7_8  and  O2_9
REMARK    4  A    between atoms: C12_15  and  O6_27
REMARK    5  A    between atoms: C13_16  and  O4_24
REMARK    6  A    between atoms: C14_17  and  O3_22
REMARK    7  A    between atoms: O3_22  and  C18_23
REMARK    8  A    between atoms: O4_24  and  C19_25
REMARK    9  A    between atoms: C19_25  and  O5_26
REMARK   10  A    between atoms: O6_27  and  C20_28
REMARK   11  A    between atoms: C20_28  and  O7_29
REMARK                            x       y       z     vdW  Elec       q    Type
REMARK                         _______ _______ _______ _____ _____    ______ ____
ROOT
ATOM      3  C   UNL     1      43.714  19.452  19.685  0.00  0.00    +0.115 A 
ATOM      4  C   UNL     1      44.791  18.625  19.417  0.00  0.00    -0.008 A 
ATOM      5  C   UNL     1      46.023  19.180  19.089  0.00  0.00    -0.025 A 
ATOM      6  C   UNL     1      46.166  20.565  19.000  0.00  0.00    -0.107 A 
ATOM      7  C   UNL     1      47.484  21.151  18.574  0.00  0.00    +0.121 C 
ATOM      8  C   UNL     1      48.646  20.337  19.138  0.00  0.00    +0.247 C 
ATOM      9  C   UNL     1      48.482  18.874  18.812  0.00  0.00    -0.110 A 
ATOM     10  C   UNL     1      49.581  18.084  18.555  0.00  0.00    -0.096 A 
ATOM     11  C   UNL     1      50.983  18.621  18.618  0.00  0.00    +0.134 C 
ATOM     12  C   UNL     1      51.024  20.062  19.099  0.00  0.00    +0.279 C 
ATOM     13  C   UNL     1      49.392  16.729  18.264  0.00  0.00    +0.097 A 
ATOM     16  C   UNL     1      48.122  16.172  18.244  0.00  0.00    +0.105 A 
ATOM     21  C   UNL     1      47.016  16.965  18.519  0.00  0.00    +0.123 A 
ATOM     26  N   UNL     1      49.901  20.819  18.545  0.00  0.00    -0.503 N 
ATOM     27  H   UNL     1      50.020  21.797  18.764  0.00  0.00    +0.436 HD
ATOM     28  H   UNL     1      49.867  20.700  17.544  0.00  0.00    +0.430 HD
ATOM     29  C   UNL     1      45.091  21.385  19.275  0.00  0.00    +0.050 A 
ATOM     30  C   UNL     1      47.196  18.319  18.807  0.00  0.00    -0.023 A 
ATOM     31  C   UNL     1      43.865  20.835  19.613  0.00  0.00    +0.096 A 
ENDROOT
BRANCH   3   2
ATOM      1  C   UNL     1      42.318  18.527  21.374  0.00  0.00    +0.250 C 
ATOM      2  O   UNL     1      42.508  18.915  20.012  0.00  0.00    -0.299 OA
ENDBRANCH   3   2
BRANCH  13  14
ATOM     14  O   UNL     1      50.472  15.950  17.990  0.00  0.00    -0.327 OA
ATOM     15  C   UNL     1      51.002  15.172  19.066  0.00  0.00    +0.245 C 
ENDBRANCH  13  14
BRANCH  31  32
ATOM     32  O   UNL     1      42.807  21.647  19.880  0.00  0.00    -0.482 OA
ATOM     33  H   UNL     1      42.036  21.185  20.236  0.00  0.00    +0.396 HD
ENDBRANCH  31  32
BRANCH  16  17
ATOM     17  O   UNL     1      47.959  14.852  17.955  0.00  0.00    -0.286 OA
BRANCH  17  18
ATOM     18  C   UNL     1      47.918  14.491  16.572  0.00  0.00    +0.401 C 
BRANCH  18  19
ATOM     19  O   UNL     1      46.588  14.662  16.075  0.00  0.00    -0.583 OA
ATOM     20  H   UNL     1      46.037  15.239  16.619  0.00  0.00    +0.398 HD
ENDBRANCH  18  19
ENDBRANCH  17  18
ENDBRANCH  16  17
BRANCH  21  22
ATOM     22  O   UNL     1      45.767  16.426  18.510  0.00  0.00    -0.289 OA
BRANCH  22  23
ATOM     23  C   UNL     1      45.477  15.443  19.505  0.00  0.00    +0.389 C 
BRANCH  23  24
ATOM     24  O   UNL     1      45.181  14.197  18.872  0.00  0.00    -0.574 OA
ATOM     25  H   UNL     1      44.238  13.987  18.838  0.00  0.00    +0.398 HD
ENDBRANCH  23  24
ENDBRANCH  22  23
ENDBRANCH  21  22
TORSDOF 9
ENDMDL
MODEL 4
REMARK VINA RESULT:      -5.0      2.954      5.506
REMARK  Name = ZINC95486346
REMARK  11 active torsions:
REMARK  status: ('A' for Active; 'I' for Inactive)
REMARK    1  A    between atoms: C1_1  and  O1_2
REMARK    2  A    between atoms: O1_2  and  C2_3
REMARK    3  A    between atoms: C7_8  and  O2_9
REMARK    4  A    between atoms: C12_15  and  O6_27
REMARK    5  A    between atoms: C13_16  and  O4_24
REMARK    6  A    between atoms: C14_17  and  O3_22
REMARK    7  A    between atoms: O3_22  and  C18_23
REMARK    8  A    between atoms: O4_24  and  C19_25
REMARK    9  A    between atoms: C19_25  and  O5_26
REMARK   10  A    between atoms: O6_27  and  C20_28
REMARK   11  A    between atoms: C20_28  and  O7_29
REMARK                            x       y       z     vdW  Elec       q    Type
REMARK                         _______ _______ _______ _____ _____    ______ ____
ROOT
ATOM      3  C   UNL     1      47.918  14.734  17.076  0.00  0.00    +0.115 A 
ATOM      4  C   UNL     1      48.722  15.842  17.277  0.00  0.00    -0.008 A 
ATOM      5  C   UNL     1      48.264  16.894  18.063  0.00  0.00    -0.025 A 
ATOM      6  C   UNL     1      46.986  16.847  18.620  0.00  0.00    -0.107 A 
ATOM      7  C   UNL     1      46.474  18.022  19.408  0.00  0.00    +0.121 C 
ATOM      8  C   UNL     1      47.597  18.659  20.221  0.00  0.00    +0.247 C 
ATOM      9  C   UNL     1      48.784  18.969  19.345  0.00  0.00    -0.110 A 
ATOM     10  C   UNL     1      49.562  20.081  19.582  0.00  0.00    -0.096 A 
ATOM     11  C   UNL     1      49.294  21.013  20.729  0.00  0.00    +0.134 C 
ATOM     12  C   UNL     1      48.169  20.515  21.622  0.00  0.00    +0.279 C 
ATOM     13  C   UNL     1      50.661  20.333  18.753  0.00  0.00    +0.097 A 
ATOM     16  C   UNL     1      50.981  19.475  17.710  0.00  0.00    +0.105 A 
ATOM     21  C   UNL     1      50.208  18.345  17.482  0.00  0.00    +0.123 A 
ATOM     26  N   UNL     1      47.107  19.909  20.818  0.00  0.00    -0.503 N 
ATOM     27  H   UNL     1      46.316  19.710  21.411  0.00  0.00    +0.436 HD
ATOM     28  H   UNL     1      46.827  20.544  20.085  0.00  0.00    +0.430 HD
ATOM     29  C   UNL     1      46.192  15.737  18.423  0.00  0.00    +0.050 A 
ATOM     30  C   UNL     1      49.108  18.090  18.303  0.00  0.00    -0.023 A 
ATOM     31  C   UNL     1      46.650  14.682  17.650  0.00  0.00    +0.096 A 
ENDROOT
BRANCH   3   2
ATOM      1  C   UNL     1      49.777  13.497  16.257  0.00  0.00    +0.250 C 
ATOM      2  O   UNL     1      48.364  13.699  16.313  0.00  0.00    -0.299 OA
ENDBRANCH   3   2
BRANCH  13  14
ATOM     14  O   UNL     1      51.418  21.440  18.971  0.00  0.00    -0.327 OA
ATOM     15  C   UNL     1      52.571  21.285  19.801  0.00  0.00    +0.245 C 
ENDBRANCH  13  14
BRANCH  31  32
ATOM     32  O   UNL     1      45.862  13.591  17.455  0.00  0.00    -0.482 OA
ATOM     33  H   UNL     1      45.097  13.754  16.886  0.00  0.00    +0.396 HD
ENDBRANCH  31  32
BRANCH  16  17
ATOM     17  O   UNL     1      52.052  19.740  16.913  0.00  0.00    -0.286 OA
BRANCH  17  18
ATOM     18  C   UNL     1      51.792  20.421  15.683  0.00  0.00    +0.401 C 
BRANCH  18  19
ATOM     19  O   UNL     1      51.777  21.831  15.914  0.00  0.00    -0.583 OA
ATOM     20  H   UNL     1      51.442  22.348  15.169  0.00  0.00    +0.398 HD
ENDBRANCH  18  19
ENDBRANCH  17  18
ENDBRANCH  16  17
BRANCH  21  22
ATOM     22  O   UNL     1      50.518  17.495  16.469  0.00  0.00    -0.289 OA
BRANCH  22  23
ATOM     23  C   UNL     1      51.758  16.791  16.570  0.00  0.00    +0.389 C 
BRANCH  23  24
ATOM     24  O   UNL     1      52.520  16.994  15.378  0.00  0.00    -0.574 OA
ATOM     25  H   UNL     1      52.951  16.195  15.046  0.00  0.00    +0.398 HD
ENDBRANCH  23  24
ENDBRANCH  22  23
ENDBRANCH  21  22
TORSDOF 9
ENDMDL
MODEL 5
REMARK VINA RESULT:      -5.0      2.756      5.920
REMARK  Name = ZINC95486346
REMARK  11 active torsions:
REMARK  status: ('A' for Active; 'I' for Inactive)
REMARK    1  A    between atoms: C1_1  and  O1_2
REMARK    2  A    between atoms: O1_2  and  C2_3
REMARK    3  A    between atoms: C7_8  and  O2_9
REMARK    4  A    between atoms: C12_15  and  O6_27
REMARK    5  A    between atoms: C13_16  and  O4_24
REMARK    6  A    between atoms: C14_17  and  O3_22
REMARK    7  A    between atoms: O3_22  and  C18_23
REMARK    8  A    between atoms: O4_24  and  C19_25
REMARK    9  A    between atoms: C19_25  and  O5_26
REMARK   10  A    between atoms: O6_27  and  C20_28
REMARK   11  A    between atoms: C20_28  and  O7_29
REMARK                            x       y       z     vdW  Elec       q    Type
REMARK                         _______ _______ _______ _____ _____    ______ ____
ROOT
ATOM      3  C   UNL     1      51.251  19.479  17.796  0.00  0.00    +0.115 A 
ATOM      4  C   UNL     1      50.311  18.466  17.854  0.00  0.00    -0.008 A 
ATOM      5  C   UNL     1      49.223  18.581  18.713  0.00  0.00    -0.025 A 
ATOM      6  C   UNL     1      49.098  19.699  19.538  0.00  0.00    -0.107 A 
ATOM      7  C   UNL     1      47.957  19.779  20.515  0.00  0.00    +0.121 C 
ATOM      8  C   UNL     1      46.690  19.171  19.918  0.00  0.00    +0.247 C 
ATOM      9  C   UNL     1      46.959  17.786  19.389  0.00  0.00    -0.110 A 
ATOM     10  C   UNL     1      45.993  16.806  19.462  0.00  0.00    -0.096 A 
ATOM     11  C   UNL     1      44.629  17.070  20.034  0.00  0.00    +0.134 C 
ATOM     12  C   UNL     1      44.432  18.534  20.394  0.00  0.00    +0.279 C 
ATOM     13  C   UNL     1      46.275  15.533  18.953  0.00  0.00    +0.097 A 
ATOM     16  C   UNL     1      47.501  15.252  18.369  0.00  0.00    +0.105 A 
ATOM     21  C   UNL     1      48.468  16.244  18.280  0.00  0.00    +0.123 A 
ATOM     26  N   UNL     1      45.660  19.091  20.963  0.00  0.00    -0.503 N 
ATOM     27  H   UNL     1      45.470  20.016  21.319  0.00  0.00    +0.436 HD
ATOM     28  H   UNL     1      45.988  18.502  21.714  0.00  0.00    +0.430 HD
ATOM     29  C   UNL     1      50.034  20.710  19.471  0.00  0.00    +0.050 A 
ATOM     30  C   UNL     1      48.195  17.515  18.788  0.00  0.00    -0.023 A 
ATOM     31  C   UNL     1      51.113  20.603  18.607  0.00  0.00    +0.096 A 
ENDROOT
BRANCH   3   2
ATOM      1  C   UNL     1      52.087  19.701  15.581  0.00  0.00    +0.250 C 
ATOM      2  O   UNL     1      52.314  19.375  16.953  0.00  0.00    -0.299 OA
ENDBRANCH   3   2
BRANCH  13  14
ATOM     14  O   UNL     1      45.332  14.558  19.042  0.00  0.00    -0.327 OA
ATOM     15  C   UNL     1      45.425  13.664  20.153  0.00  0.00    +0.245 C 
ENDBRANCH  13  14
BRANCH  31  32
ATOM     32  O   UNL     1      52.036  21.600  18.547  0.00  0.00    -0.482 OA
ATOM     33  H   UNL     1      52.609  21.653  19.324  0.00  0.00    +0.396 HD
ENDBRANCH  31  32
BRANCH  16  17
ATOM     17  O   UNL     1      47.756  14.006  17.883  0.00  0.00    -0.286 OA
BRANCH  17  18
ATOM     18  C   UNL     1      47.406  13.757  16.520  0.00  0.00    +0.401 C 
BRANCH  18  19
ATOM     19  O   UNL     1      48.557  13.932  15.693  0.00  0.00    -0.583 OA
ATOM     20  H   UNL     1      49.397  13.828  16.160  0.00  0.00    +0.398 HD
ENDBRANCH  18  19
ENDBRANCH  17  18
ENDBRANCH  16  17
BRANCH  21  22
ATOM     22  O   UNL     1      49.670  15.981  17.702  0.00  0.00    -0.289 OA
BRANCH  22  23
ATOM     23  C   UNL     1      50.564  15.131  18.423  0.00  0.00    +0.389 C 
BRANCH  23  24
ATOM     24  O   UNL     1      50.757  13.916  17.696  0.00  0.00    -0.574 OA
ATOM     25  H   UNL     1      49.995  13.650  17.164  0.00  0.00    +0.398 HD
ENDBRANCH  23  24
ENDBRANCH  22  23
ENDBRANCH  21  22
TORSDOF 9
ENDMDL
MODEL 6
REMARK VINA RESULT:      -4.9      2.699      6.740
REMARK  Name = ZINC95486346
REMARK  11 active torsions:
REMARK  status: ('A' for Active; 'I' for Inactive)
REMARK    1  A    between atoms: C1_1  and  O1_2
REMARK    2  A    between atoms: O1_2  and  C2_3
REMARK    3  A    between atoms: C7_8  and  O2_9
REMARK    4  A    between atoms: C12_15  and  O6_27
REMARK    5  A    between atoms: C13_16  and  O4_24
REMARK    6  A    between atoms: C14_17  and  O3_22
REMARK    7  A    between atoms: O3_22  and  C18_23
REMARK    8  A    between atoms: O4_24  and  C19_25
REMARK    9  A    between atoms: C19_25  and  O5_26
REMARK   10  A    between atoms: O6_27  and  C20_28
REMARK   11  A    between atoms: C20_28  and  O7_29
REMARK                            x       y       z     vdW  Elec       q    Type
REMARK                         _______ _______ _______ _____ _____    ______ ____
ROOT
ATOM      3  C   UNL     1      48.405  14.027  16.309  0.00  0.00    +0.115 A 
ATOM      4  C   UNL     1      48.205  15.267  16.890  0.00  0.00    -0.008 A 
ATOM      5  C   UNL     1      49.298  16.038  17.268  0.00  0.00    -0.025 A 
ATOM      6  C   UNL     1      50.593  15.550  17.091  0.00  0.00    -0.107 A 
ATOM      7  C   UNL     1      51.766  16.362  17.569  0.00  0.00    +0.121 C 
ATOM      8  C   UNL     1      51.516  17.852  17.354  0.00  0.00    +0.247 C 
ATOM      9  C   UNL     1      50.193  18.265  17.946  0.00  0.00    -0.110 A 
ATOM     10  C   UNL     1      50.033  19.511  18.511  0.00  0.00    -0.096 A 
ATOM     11  C   UNL     1      51.143  20.524  18.538  0.00  0.00    +0.134 C 
ATOM     12  C   UNL     1      52.372  20.047  17.782  0.00  0.00    +0.279 C 
ATOM     13  C   UNL     1      48.788  19.862  19.044  0.00  0.00    +0.097 A 
ATOM     16  C   UNL     1      47.716  18.982  18.998  0.00  0.00    +0.105 A 
ATOM     21  C   UNL     1      47.873  17.733  18.413  0.00  0.00    +0.123 A 
ATOM     26  N   UNL     1      52.588  18.617  18.006  0.00  0.00    -0.503 N 
ATOM     27  H   UNL     1      53.478  18.351  17.611  0.00  0.00    +0.436 HD
ATOM     28  H   UNL     1      52.587  18.421  18.996  0.00  0.00    +0.430 HD
ATOM     29  C   UNL     1      50.789  14.317  16.505  0.00  0.00    +0.050 A 
ATOM     30  C   UNL     1      49.113  17.374  17.883  0.00  0.00    -0.023 A 
ATOM     31  C   UNL     1      49.700  13.551  16.117  0.00  0.00    +0.096 A 
ENDROOT
BRANCH   3   2
ATOM      1  C   UNL     1      46.398  12.925  16.950  0.00  0.00    +0.250 C 
ATOM      2  O   UNL     1      47.339  13.270  15.933  0.00  0.00    -0.299 OA
ENDBRANCH   3   2
BRANCH  13  14
ATOM     14  O   UNL     1      48.632  21.083  19.621  0.00  0.00    -0.327 OA
ATOM     15  C   UNL     1      48.694  21.140  21.048  0.00  0.00    +0.245 C 
ENDBRANCH  13  14
BRANCH  31  32
ATOM     32  O   UNL     1      49.897  12.334  15.543  0.00  0.00    -0.482 OA
ATOM     33  H   UNL     1      49.442  11.609  15.992  0.00  0.00    +0.396 HD
ENDBRANCH  31  32
BRANCH  16  17
ATOM     17  O   UNL     1      46.514  19.342  19.526  0.00  0.00    -0.286 OA
BRANCH  17  18
ATOM     18  C   UNL     1      45.620  20.061  18.673  0.00  0.00    +0.401 C 
BRANCH  18  19
ATOM     19  O   UNL     1      44.756  19.140  18.005  0.00  0.00    -0.583 OA
ATOM     20  H   UNL     1      45.211  18.544  17.396  0.00  0.00    +0.398 HD
ENDBRANCH  18  19
ENDBRANCH  17  18
ENDBRANCH  16  17
BRANCH  21  22
ATOM     22  O   UNL     1      46.826  16.867  18.357  0.00  0.00    -0.289 OA
BRANCH  22  23
ATOM     23  C   UNL     1      46.357  16.334  19.597  0.00  0.00    +0.389 C 
BRANCH  23  24
ATOM     24  O   UNL     1      45.001  16.733  19.805  0.00  0.00    -0.574 OA
ATOM     25  H   UNL     1      44.672  17.363  19.149  0.00  0.00    +0.398 HD
ENDBRANCH  23  24
ENDBRANCH  22  23
ENDBRANCH  21  22
TORSDOF 9
ENDMDL
MODEL 7
REMARK VINA RESULT:      -4.8      2.689      6.601
REMARK  Name = ZINC95486346
REMARK  11 active torsions:
REMARK  status: ('A' for Active; 'I' for Inactive)
REMARK    1  A    between atoms: C1_1  and  O1_2
REMARK    2  A    between atoms: O1_2  and  C2_3
REMARK    3  A    between atoms: C7_8  and  O2_9
REMARK    4  A    between atoms: C12_15  and  O6_27
REMARK    5  A    between atoms: C13_16  and  O4_24
REMARK    6  A    between atoms: C14_17  and  O3_22
REMARK    7  A    between atoms: O3_22  and  C18_23
REMARK    8  A    between atoms: O4_24  and  C19_25
REMARK    9  A    between atoms: C19_25  and  O5_26
REMARK   10  A    between atoms: O6_27  and  C20_28
REMARK   11  A    between atoms: C20_28  and  O7_29
REMARK                            x       y       z     vdW  Elec       q    Type
REMARK                         _______ _______ _______ _____ _____    ______ ____
ROOT
ATOM      3  C   UNL     1      51.155  19.666  18.132  0.00  0.00    +0.115 A 
ATOM      4  C   UNL     1      49.855  19.238  18.342  0.00  0.00    -0.008 A 
ATOM      5  C   UNL     1      49.106  19.787  19.377  0.00  0.00    -0.025 A 
ATOM      6  C   UNL     1      49.672  20.742  20.220  0.00  0.00    -0.107 A 
ATOM      7  C   UNL     1      48.877  21.276  21.380  0.00  0.00    +0.121 C 
ATOM      8  C   UNL     1      47.404  21.420  21.005  0.00  0.00    +0.247 C 
ATOM      9  C   UNL     1      46.871  20.135  20.425  0.00  0.00    -0.110 A 
ATOM     10  C   UNL     1      45.569  19.747  20.655  0.00  0.00    -0.096 A 
ATOM     11  C   UNL     1      44.615  20.586  21.456  0.00  0.00    +0.134 C 
ATOM     12  C   UNL     1      45.223  21.920  21.857  0.00  0.00    +0.279 C 
ATOM     13  C   UNL     1      45.106  18.551  20.093  0.00  0.00    +0.097 A 
ATOM     16  C   UNL     1      45.932  17.765  19.304  0.00  0.00    +0.105 A 
ATOM     21  C   UNL     1      47.239  18.165  19.059  0.00  0.00    +0.123 A 
ATOM     26  N   UNL     1      46.633  21.754  22.211  0.00  0.00    -0.503 N 
ATOM     27  H   UNL     1      46.980  22.617  22.602  0.00  0.00    +0.436 HD
ATOM     28  H   UNL     1      46.732  21.013  22.889  0.00  0.00    +0.430 HD
ATOM     29  C   UNL     1      50.965  21.171  20.002  0.00  0.00    +0.050 A 
ATOM     30  C   UNL     1      47.709  19.354  19.618  0.00  0.00    -0.023 A 
ATOM     31  C   UNL     1      51.711  20.634  18.965  0.00  0.00    +0.096 A 
ENDROOT
BRANCH   3   2
ATOM      1  C   UNL     1      51.830  19.803  15.856  0.00  0.00    +0.250 C 
ATOM      2  O   UNL     1      51.890  19.136  17.117  0.00  0.00    -0.299 OA
ENDBRANCH   3   2
BRANCH  13  14
ATOM     14  O   UNL     1      43.828  18.154  20.335  0.00  0.00    -0.327 OA
ATOM     15  C   UNL     1      43.584  17.460  21.560  0.00  0.00    +0.245 C 
ENDBRANCH  13  14
BRANCH  31  32
ATOM     32  O   UNL     1      52.986  21.057  18.756  0.00  0.00    -0.482 OA
ATOM     33  H   UNL     1      53.349  21.585  19.479  0.00  0.00    +0.396 HD
ENDBRANCH  31  32
BRANCH  16  17
ATOM     17  O   UNL     1      45.464  16.603  18.771  0.00  0.00    -0.286 OA
BRANCH  17  18
ATOM     18  C   UNL     1      45.683  15.408  19.524  0.00  0.00    +0.401 C 
BRANCH  18  19
ATOM     19  O   UNL     1      46.754  14.666  18.936  0.00  0.00    -0.583 OA
ATOM     20  H   UNL     1      47.563  15.178  18.807  0.00  0.00    +0.398 HD
ENDBRANCH  18  19
ENDBRANCH  17  18
ENDBRANCH  16  17
BRANCH  21  22
ATOM     22  O   UNL     1      48.054  17.405  18.280  0.00  0.00    -0.289 OA
BRANCH  22  23
ATOM     23  C   UNL     1      47.766  17.371  16.881  0.00  0.00    +0.389 C 
BRANCH  23  24
ATOM     24  O   UNL     1      47.379  16.047  16.505  0.00  0.00    -0.574 OA
ATOM     25  H   UNL     1      48.046  15.374  16.695  0.00  0.00    +0.398 HD
ENDBRANCH  23  24
ENDBRANCH  22  23
ENDBRANCH  21  22
TORSDOF 9
ENDMDL
MODEL 8
REMARK VINA RESULT:      -4.6     20.482     22.282
REMARK  Name = ZINC95486346
REMARK  11 active torsions:
REMARK  status: ('A' for Active; 'I' for Inactive)
REMARK    1  A    between atoms: C1_1  and  O1_2
REMARK    2  A    between atoms: O1_2  and  C2_3
REMARK    3  A    between atoms: C7_8  and  O2_9
REMARK    4  A    between atoms: C12_15  and  O6_27
REMARK    5  A    between atoms: C13_16  and  O4_24
REMARK    6  A    between atoms: C14_17  and  O3_22
REMARK    7  A    between atoms: O3_22  and  C18_23
REMARK    8  A    between atoms: O4_24  and  C19_25
REMARK    9  A    between atoms: C19_25  and  O5_26
REMARK   10  A    between atoms: O6_27  and  C20_28
REMARK   11  A    between atoms: C20_28  and  O7_29
REMARK                            x       y       z     vdW  Elec       q    Type
REMARK                         _______ _______ _______ _____ _____    ______ ____
ROOT
ATOM      3  C   UNL     1      52.756  33.679   5.667  0.00  0.00    +0.115 A 
ATOM      4  C   UNL     1      53.358  33.119   4.554  0.00  0.00    -0.008 A 
ATOM      5  C   UNL     1      54.742  32.995   4.506  0.00  0.00    -0.025 A 
ATOM      6  C   UNL     1      55.524  33.464   5.562  0.00  0.00    -0.107 A 
ATOM      7  C   UNL     1      57.023  33.391   5.467  0.00  0.00    +0.121 C 
ATOM      8  C   UNL     1      57.459  32.114   4.752  0.00  0.00    +0.247 C 
ATOM      9  C   UNL     1      56.745  31.970   3.432  0.00  0.00    -0.110 A 
ATOM     10  C   UNL     1      57.379  31.402   2.349  0.00  0.00    -0.096 A 
ATOM     11  C   UNL     1      58.784  30.874   2.432  0.00  0.00    +0.134 C 
ATOM     12  C   UNL     1      59.338  30.940   3.845  0.00  0.00    +0.279 C 
ATOM     13  C   UNL     1      56.683  31.277   1.141  0.00  0.00    +0.097 A 
ATOM     16  C   UNL     1      55.368  31.702   1.027  0.00  0.00    +0.105 A 
ATOM     21  C   UNL     1      54.724  32.259   2.123  0.00  0.00    +0.123 A 
ATOM     26  N   UNL     1      58.906  32.172   4.507  0.00  0.00    -0.503 N 
ATOM     27  H   UNL     1      59.392  32.263   5.387  0.00  0.00    +0.436 HD
ATOM     28  H   UNL     1      59.117  32.967   3.923  0.00  0.00    +0.430 HD
ATOM     29  C   UNL     1      54.919  34.014   6.672  0.00  0.00    +0.050 A 
ATOM     30  C   UNL     1      55.413  32.390   3.330  0.00  0.00    -0.023 A 
ATOM     31  C   UNL     1      53.539  34.128   6.728  0.00  0.00    +0.096 A 
ENDROOT
BRANCH   3   2
ATOM      1  C   UNL     1      50.694  33.719   4.484  0.00  0.00    +0.250 C 
ATOM      2  O   UNL     1      51.402  33.797   5.722  0.00  0.00    -0.299 OA
ENDBRANCH   3   2
BRANCH  13  14
ATOM     14  O   UNL     1      57.312  30.736   0.064  0.00  0.00    -0.327 OA
ATOM     15  C   UNL     1      57.114  29.340  -0.170  0.00  0.00    +0.245 C 
ENDBRANCH  13  14
BRANCH  31  32
ATOM     32  O   UNL     1      52.946  34.675   7.823  0.00  0.00    -0.482 OA
ATOM     33  H   UNL     1      52.933  35.642   7.822  0.00  0.00    +0.396 HD
ENDBRANCH  31  32
BRANCH  16  17
ATOM     17  O   UNL     1      54.710  31.575  -0.158  0.00  0.00    -0.286 OA
BRANCH  17  18
ATOM     18  C   UNL     1      54.789  32.677  -1.066  0.00  0.00    +0.401 C 
BRANCH  18  19
ATOM     19  O   UNL     1      53.607  33.472  -0.953  0.00  0.00    -0.583 OA
ATOM     20  H   UNL     1      53.771  34.383  -0.678  0.00  0.00    +0.398 HD
ENDBRANCH  18  19
ENDBRANCH  17  18
ENDBRANCH  16  17
BRANCH  21  22
ATOM     22  O   UNL     1      53.433  32.672   2.023  0.00  0.00    -0.289 OA
BRANCH  22  23
ATOM     23  C   UNL     1      52.438  31.658   1.862  0.00  0.00    +0.389 C 
BRANCH  23  24
ATOM     24  O   UNL     1      51.756  31.853   0.622  0.00  0.00    -0.574 OA
ATOM     25  H   UNL     1      52.129  32.556   0.073  0.00  0.00    +0.398 HD
ENDBRANCH  23  24
ENDBRANCH  22  23
ENDBRANCH  21  22
TORSDOF 9
ENDMDL
MODEL 9
REMARK VINA RESULT:      -4.4      3.719      7.645
REMARK  Name = ZINC95486346
REMARK  11 active torsions:
REMARK  status: ('A' for Active; 'I' for Inactive)
REMARK    1  A    between atoms: C1_1  and  O1_2
REMARK    2  A    between atoms: O1_2  and  C2_3
REMARK    3  A    between atoms: C7_8  and  O2_9
REMARK    4  A    between atoms: C12_15  and  O6_27
REMARK    5  A    between atoms: C13_16  and  O4_24
REMARK    6  A    between atoms: C14_17  and  O3_22
REMARK    7  A    between atoms: O3_22  and  C18_23
REMARK    8  A    between atoms: O4_24  and  C19_25
REMARK    9  A    between atoms: C19_25  and  O5_26
REMARK   10  A    between atoms: O6_27  and  C20_28
REMARK   11  A    between atoms: C20_28  and  O7_29
REMARK                            x       y       z     vdW  Elec       q    Type
REMARK                         _______ _______ _______ _____ _____    ______ ____
ROOT
ATOM      3  C   UNL     1      48.325  19.119  21.701  0.00  0.00    +0.115 A 
ATOM      4  C   UNL     1      47.031  19.262  21.232  0.00  0.00    -0.008 A 
ATOM      5  C   UNL     1      46.482  20.533  21.094  0.00  0.00    -0.025 A 
ATOM      6  C   UNL     1      47.223  21.658  21.458  0.00  0.00    -0.107 A 
ATOM      7  C   UNL     1      46.594  23.022  21.373  0.00  0.00    +0.121 C 
ATOM      8  C   UNL     1      45.675  23.119  20.157  0.00  0.00    +0.247 C 
ATOM      9  C   UNL     1      44.690  21.979  20.138  0.00  0.00    -0.110 A 
ATOM     10  C   UNL     1      43.412  22.162  19.658  0.00  0.00    -0.096 A 
ATOM     11  C   UNL     1      42.947  23.480  19.106  0.00  0.00    +0.134 C 
ATOM     12  C   UNL     1      44.070  24.502  19.042  0.00  0.00    +0.279 C 
ATOM     13  C   UNL     1      42.526  21.078  19.648  0.00  0.00    +0.097 A 
ATOM     16  C   UNL     1      42.921  19.828  20.100  0.00  0.00    +0.105 A 
ATOM     21  C   UNL     1      44.215  19.639  20.567  0.00  0.00    +0.123 A 
ATOM     26  N   UNL     1      44.935  24.387  20.217  0.00  0.00    -0.503 N 
ATOM     27  H   UNL     1      45.588  25.156  20.224  0.00  0.00    +0.436 HD
ATOM     28  H   UNL     1      44.377  24.411  21.057  0.00  0.00    +0.430 HD
ATOM     29  C   UNL     1      48.515  21.510  21.918  0.00  0.00    +0.050 A 
ATOM     30  C   UNL     1      45.102  20.716  20.584  0.00  0.00    -0.023 A 
ATOM     31  C   UNL     1      49.068  20.246  22.046  0.00  0.00    +0.096 A 
ENDROOT
BRANCH   3   2
ATOM      1  C   UNL     1      48.012  16.765  21.570  0.00  0.00    +0.250 C 
ATOM      2  O   UNL     1      48.868  17.879  21.832  0.00  0.00    -0.299 OA
ENDBRANCH   3   2
BRANCH  13  14
ATOM     14  O   UNL     1      41.258  21.260  19.194  0.00  0.00    -0.327 OA
ATOM     15  C   UNL     1      40.902  20.601  17.977  0.00  0.00    +0.245 C 
ENDBRANCH  13  14
BRANCH  31  32
ATOM     32  O   UNL     1      50.340  20.105  22.503  0.00  0.00    -0.482 OA
ATOM     33  H   UNL     1      50.397  19.835  23.430  0.00  0.00    +0.396 HD
ENDBRANCH  31  32
BRANCH  16  17
ATOM     17  O   UNL     1      42.043  18.788  20.085  0.00  0.00    -0.286 OA
BRANCH  17  18
ATOM     18  C   UNL     1      41.299  18.550  21.282  0.00  0.00    +0.401 C 
BRANCH  18  19
ATOM     19  O   UNL     1      41.981  17.583  22.083  0.00  0.00    -0.583 OA
ATOM     20  H   UNL     1      41.981  16.692  21.708  0.00  0.00    +0.398 HD
ENDBRANCH  18  19
ENDBRANCH  17  18
ENDBRANCH  16  17
BRANCH  21  22
ATOM     22  O   UNL     1      44.614  18.415  21.005  0.00  0.00    -0.289 OA
BRANCH  22  23
ATOM     23  C   UNL     1      44.720  17.380  20.026  0.00  0.00    +0.389 C 
BRANCH  23  24
ATOM     24  O   UNL     1      44.338  16.132  20.609  0.00  0.00    -0.574 OA
ATOM     25  H   UNL     1      44.198  15.424  19.966  0.00  0.00    +0.398 HD
ENDBRANCH  23  24
ENDBRANCH  22  23
ENDBRANCH  21  22
TORSDOF 9
ENDMDL
