MODEL 1
REMARK VINA RESULT:      -5.8      0.000      0.000
REMARK  Name = ZINC28109109
REMARK  5 active torsions:
REMARK  status: ('A' for Active; 'I' for Inactive)
REMARK    1  A    between atoms: C1_1  and  O1_2
REMARK    2  A    between atoms: O1_2  and  C2_3
REMARK    3  A    between atoms: C7_8  and  O2_9
REMARK    4  A    between atoms: C12_15  and  O3_22
REMARK    5  A    between atoms: O3_22  and  C18_23
REMARK                            x       y       z     vdW  Elec       q    Type
REMARK                         _______ _______ _______ _____ _____    ______ ____
ROOT
ATOM      3  C   UNL     1      42.518  19.548  20.320  0.00  0.00    +0.088 A 
ATOM      4  C   UNL     1      43.821  19.186  20.031  0.00  0.00    -0.022 A 
ATOM      5  C   UNL     1      44.432  18.147  20.719  0.00  0.00    -0.100 A 
ATOM      6  C   UNL     1      43.747  17.478  21.707  0.00  0.00    -0.064 A 
ATOM      7  C   UNL     1      44.368  16.369  22.501  0.00  0.00    +0.052 C 
ATOM      8  C   UNL     1      45.804  16.087  22.144  0.00  0.00    +0.228 C 
ATOM      9  N   UNL     1      46.214  16.453  20.822  0.00  0.00    -0.524 NA
ATOM     10  C   UNL     1      45.719  15.543  19.763  0.00  0.00    +0.228 C 
ATOM     11  C   UNL     1      45.804  16.365  18.489  0.00  0.00    +0.009 C 
ATOM     12  C   UNL     1      45.887  17.643  18.815  0.00  0.00    -0.112 C 
ATOM     13  C   UNL     1      46.027  18.815  17.936  0.00  0.00    +0.050 C 
ATOM     14  C   UNL     1      46.389  19.962  18.501  0.00  0.00    -0.057 C 
ATOM     15  C   UNL     1      46.643  20.136  19.959  0.00  0.00    +0.187 C 
ATOM     18  C   UNL     1      46.814  18.857  20.750  0.00  0.00    +0.067 C 
ATOM     19  C   UNL     1      42.436  17.835  21.997  0.00  0.00    -0.049 A 
ATOM     20  C   UNL     1      45.837  17.773  20.331  0.00  0.00    +0.198 C 
ATOM     21  C   UNL     1      41.821  18.868  21.314  0.00  0.00    +0.136 A 
ENDROOT
BRANCH   3   2
ATOM      1  C   UNL     1      41.469  20.285  18.317  0.00  0.00    +0.233 C 
ATOM      2  O   UNL     1      41.923  20.566  19.643  0.00  0.00    -0.305 OA
ENDBRANCH   3   2
BRANCH  15  16
ATOM     16  O   UNL     1      47.825  20.922  20.116  0.00  0.00    -0.373 OA
ATOM     17  C   UNL     1      48.922  20.493  19.308  0.00  0.00    +0.200 C 
ENDBRANCH  15  16
BRANCH  21  22
ATOM     22  O   UNL     1      40.538  19.213  21.608  0.00  0.00    -0.499 OA
ATOM     23  H   UNL     1      39.751  18.444  21.623  0.00  0.00    +0.431 HD
ENDBRANCH  21  22
TORSDOF 3
ENDMDL
MODEL 2
REMARK VINA RESULT:      -5.7      2.478      4.430
REMARK  Name = ZINC28109109
REMARK  5 active torsions:
REMARK  status: ('A' for Active; 'I' for Inactive)
REMARK    1  A    between atoms: C1_1  and  O1_2
REMARK    2  A    between atoms: O1_2  and  C2_3
REMARK    3  A    between atoms: C7_8  and  O2_9
REMARK    4  A    between atoms: C12_15  and  O3_22
REMARK    5  A    between atoms: O3_22  and  C18_23
REMARK                            x       y       z     vdW  Elec       q    Type
REMARK                         _______ _______ _______ _____ _____    ______ ____
ROOT
ATOM      3  C   UNL     1      41.448  20.519  18.901  0.00  0.00    +0.088 A 
ATOM      4  C   UNL     1      42.681  20.110  19.372  0.00  0.00    -0.022 A 
ATOM      5  C   UNL     1      43.666  21.041  19.671  0.00  0.00    -0.100 A 
ATOM      6  C   UNL     1      43.425  22.383  19.485  0.00  0.00    -0.064 A 
ATOM      7  C   UNL     1      44.461  23.429  19.763  0.00  0.00    +0.052 C 
ATOM      8  C   UNL     1      45.784  22.876  20.223  0.00  0.00    +0.228 C 
ATOM      9  N   UNL     1      45.752  21.591  20.856  0.00  0.00    -0.524 NA
ATOM     10  C   UNL     1      45.223  21.615  22.240  0.00  0.00    +0.228 C 
ATOM     11  C   UNL     1      44.793  20.183  22.504  0.00  0.00    +0.009 C 
ATOM     12  C   UNL     1      44.664  19.559  21.345  0.00  0.00    -0.112 C 
ATOM     13  C   UNL     1      44.308  18.155  21.084  0.00  0.00    +0.050 C 
ATOM     14  C   UNL     1      44.533  17.686  19.862  0.00  0.00    -0.057 C 
ATOM     15  C   UNL     1      45.102  18.491  18.745  0.00  0.00    +0.187 C 
ATOM     18  C   UNL     1      45.753  19.797  19.146  0.00  0.00    +0.067 C 
ATOM     19  C   UNL     1      42.184  22.799  19.017  0.00  0.00    -0.049 A 
ATOM     20  C   UNL     1      44.974  20.536  20.219  0.00  0.00    +0.198 C 
ATOM     21  C   UNL     1      41.199  21.877  18.719  0.00  0.00    +0.136 A 
ENDROOT
BRANCH   3   2
ATOM      1  C   UNL     1      40.486  19.061  17.288  0.00  0.00    +0.233 C 
ATOM      2  O   UNL     1      40.486  19.603  18.610  0.00  0.00    -0.305 OA
ENDBRANCH   3   2
BRANCH  15  16
ATOM     16  O   UNL     1      46.076  17.693  18.070  0.00  0.00    -0.373 OA
ATOM     17  C   UNL     1      46.071  16.318  18.456  0.00  0.00    +0.200 C 
ENDBRANCH  15  16
BRANCH  21  22
ATOM     22  O   UNL     1      39.989  22.294  18.257  0.00  0.00    -0.499 OA
ATOM     23  H   UNL     1      39.180  22.528  18.965  0.00  0.00    +0.431 HD
ENDBRANCH  21  22
TORSDOF 3
ENDMDL
MODEL 3
REMARK VINA RESULT:      -5.3      2.192      3.683
REMARK  Name = ZINC28109109
REMARK  5 active torsions:
REMARK  status: ('A' for Active; 'I' for Inactive)
REMARK    1  A    between atoms: C1_1  and  O1_2
REMARK    2  A    between atoms: O1_2  and  C2_3
REMARK    3  A    between atoms: C7_8  and  O2_9
REMARK    4  A    between atoms: C12_15  and  O3_22
REMARK    5  A    between atoms: O3_22  and  C18_23
REMARK                            x       y       z     vdW  Elec       q    Type
REMARK                         _______ _______ _______ _____ _____    ______ ____
ROOT
ATOM      3  C   UNL     1      43.453  20.616  19.082  0.00  0.00    +0.088 A 
ATOM      4  C   UNL     1      44.520  19.750  19.239  0.00  0.00    -0.022 A 
ATOM      5  C   UNL     1      45.685  20.175  19.862  0.00  0.00    -0.100 A 
ATOM      6  C   UNL     1      45.791  21.469  20.317  0.00  0.00    -0.064 A 
ATOM      7  C   UNL     1      47.036  21.989  20.970  0.00  0.00    +0.052 C 
ATOM      8  C   UNL     1      48.155  20.984  21.046  0.00  0.00    +0.228 C 
ATOM      9  N   UNL     1      47.773  19.604  21.033  0.00  0.00    -0.524 NA
ATOM     10  C   UNL     1      47.190  19.128  22.310  0.00  0.00    +0.228 C 
ATOM     11  C   UNL     1      46.408  17.884  21.926  0.00  0.00    +0.009 C 
ATOM     12  C   UNL     1      46.195  17.904  20.622  0.00  0.00    -0.112 C 
ATOM     13  C   UNL     1      45.519  16.904  19.779  0.00  0.00    +0.050 C 
ATOM     14  C   UNL     1      45.689  16.998  18.465  0.00  0.00    -0.057 C 
ATOM     15  C   UNL     1      46.500  18.055  17.797  0.00  0.00    +0.187 C 
ATOM     18  C   UNL     1      47.428  18.835  18.702  0.00  0.00    +0.067 C 
ATOM     19  C   UNL     1      44.719  22.341  20.166  0.00  0.00    -0.049 A 
ATOM     20  C   UNL     1      46.796  19.175  20.040  0.00  0.00    +0.198 C 
ATOM     21  C   UNL     1      43.555  21.923  19.548  0.00  0.00    +0.136 A 
ENDROOT
BRANCH   3   2
ATOM      1  C   UNL     1      41.348  19.528  19.289  0.00  0.00    +0.233 C 
ATOM      2  O   UNL     1      42.313  20.195  18.472  0.00  0.00    -0.305 OA
ENDBRANCH   3   2
BRANCH  15  16
ATOM     16  O   UNL     1      47.284  17.438  16.774  0.00  0.00    -0.373 OA
ATOM     17  C   UNL     1      48.642  17.198  17.148  0.00  0.00    +0.200 C 
ENDBRANCH  15  16
BRANCH  21  22
ATOM     22  O   UNL     1      42.513  22.784  19.401  0.00  0.00    -0.499 OA
ATOM     23  H   UNL     1      41.670  22.754  20.108  0.00  0.00    +0.431 HD
ENDBRANCH  21  22
TORSDOF 3
ENDMDL
MODEL 4
REMARK VINA RESULT:      -5.3      4.055      6.158
REMARK  Name = ZINC28109109
REMARK  5 active torsions:
REMARK  status: ('A' for Active; 'I' for Inactive)
REMARK    1  A    between atoms: C1_1  and  O1_2
REMARK    2  A    between atoms: O1_2  and  C2_3
REMARK    3  A    between atoms: C7_8  and  O2_9
REMARK    4  A    between atoms: C12_15  and  O3_22
REMARK    5  A    between atoms: O3_22  and  C18_23
REMARK                            x       y       z     vdW  Elec       q    Type
REMARK                         _______ _______ _______ _____ _____    ______ ____
ROOT
ATOM      3  C   UNL     1      47.657  19.459  18.948  0.00  0.00    +0.088 A 
ATOM      4  C   UNL     1      49.032  19.553  18.843  0.00  0.00    -0.022 A 
ATOM      5  C   UNL     1      49.765  18.531  18.256  0.00  0.00    -0.100 A 
ATOM      6  C   UNL     1      49.126  17.407  17.785  0.00  0.00    -0.064 A 
ATOM      7  C   UNL     1      49.871  16.262  17.170  0.00  0.00    +0.052 C 
ATOM      8  C   UNL     1      51.366  16.440  17.150  0.00  0.00    +0.228 C 
ATOM      9  N   UNL     1      51.846  17.790  17.171  0.00  0.00    -0.524 NA
ATOM     10  C   UNL     1      51.692  18.504  15.882  0.00  0.00    +0.228 C 
ATOM     11  C   UNL     1      51.752  19.974  16.256  0.00  0.00    +0.009 C 
ATOM     12  C   UNL     1      51.516  20.091  17.552  0.00  0.00    -0.112 C 
ATOM     13  C   UNL     1      51.505  21.305  18.385  0.00  0.00    +0.050 C 
ATOM     14  C   UNL     1      51.539  21.140  19.702  0.00  0.00    -0.057 C 
ATOM     15  C   UNL     1      51.569  19.814  20.383  0.00  0.00    +0.187 C 
ATOM     18  C   UNL     1      51.915  18.635  19.500  0.00  0.00    +0.067 C 
ATOM     19  C   UNL     1      47.743  17.311  17.883  0.00  0.00    -0.049 A 
ATOM     20  C   UNL     1      51.254  18.710  18.135  0.00  0.00    +0.198 C 
ATOM     21  C   UNL     1      47.007  18.326  18.465  0.00  0.00    +0.136 A 
ENDROOT
BRANCH   3   2
ATOM      1  C   UNL     1      47.512  21.084  20.678  0.00  0.00    +0.233 C 
ATOM      2  O   UNL     1      46.943  20.463  19.523  0.00  0.00    -0.305 OA
ENDBRANCH   3   2
BRANCH  15  16
ATOM     16  O   UNL     1      52.525  19.877  21.443  0.00  0.00    -0.373 OA
ATOM     17  C   UNL     1      52.552  21.131  22.128  0.00  0.00    +0.200 C 
ENDBRANCH  15  16
BRANCH  21  22
ATOM     22  O   UNL     1      45.654  18.222  18.560  0.00  0.00    -0.499 OA
ATOM     23  H   UNL     1      45.206  17.445  19.199  0.00  0.00    +0.431 HD
ENDBRANCH  21  22
TORSDOF 3
ENDMDL
MODEL 5
REMARK VINA RESULT:      -5.2      4.059      6.299
REMARK  Name = ZINC28109109
REMARK  5 active torsions:
REMARK  status: ('A' for Active; 'I' for Inactive)
REMARK    1  A    between atoms: C1_1  and  O1_2
REMARK    2  A    between atoms: O1_2  and  C2_3
REMARK    3  A    between atoms: C7_8  and  O2_9
REMARK    4  A    between atoms: C12_15  and  O3_22
REMARK    5  A    between atoms: O3_22  and  C18_23
REMARK                            x       y       z     vdW  Elec       q    Type
REMARK                         _______ _______ _______ _____ _____    ______ ____
ROOT
ATOM      3  C   UNL     1      47.719  17.241  17.613  0.00  0.00    +0.088 A 
ATOM      4  C   UNL     1      48.552  18.152  18.236  0.00  0.00    -0.022 A 
ATOM      5  C   UNL     1      49.914  17.903  18.340  0.00  0.00    -0.100 A 
ATOM      6  C   UNL     1      50.442  16.737  17.834  0.00  0.00    -0.064 A 
ATOM      7  C   UNL     1      51.899  16.404  17.945  0.00  0.00    +0.052 C 
ATOM      8  C   UNL     1      52.710  17.435  18.685  0.00  0.00    +0.228 C 
ATOM      9  N   UNL     1      52.191  18.770  18.690  0.00  0.00    -0.524 NA
ATOM     10  C   UNL     1      52.357  19.486  17.403  0.00  0.00    +0.228 C 
ATOM     11  C   UNL     1      51.323  20.598  17.455  0.00  0.00    +0.009 C 
ATOM     12  C   UNL     1      50.424  20.297  18.376  0.00  0.00    -0.112 C 
ATOM     13  C   UNL     1      49.257  21.077  18.819  0.00  0.00    +0.050 C 
ATOM     14  C   UNL     1      48.677  20.713  19.958  0.00  0.00    -0.057 C 
ATOM     15  C   UNL     1      49.121  19.563  20.796  0.00  0.00    +0.187 C 
ATOM     18  C   UNL     1      50.497  19.019  20.483  0.00  0.00    +0.067 C 
ATOM     19  C   UNL     1      49.608  15.822  17.203  0.00  0.00    -0.049 A 
ATOM     20  C   UNL     1      50.776  18.950  18.992  0.00  0.00    +0.198 C 
ATOM     21  C   UNL     1      48.252  16.065  17.095  0.00  0.00    +0.136 A 
ENDROOT
BRANCH   3   2
ATOM      1  C   UNL     1      45.915  18.728  18.049  0.00  0.00    +0.233 C 
ATOM      2  O   UNL     1      46.385  17.490  17.513  0.00  0.00    -0.305 OA
ENDBRANCH   3   2
BRANCH  15  16
ATOM     16  O   UNL     1      49.102  19.974  22.165  0.00  0.00    -0.373 OA
ATOM     17  C   UNL     1      50.123  20.914  22.504  0.00  0.00    +0.200 C 
ENDBRANCH  15  16
BRANCH  21  22
ATOM     22  O   UNL     1      47.443  15.161  16.479  0.00  0.00    -0.499 OA
ATOM     23  H   UNL     1      46.554  15.503  15.928  0.00  0.00    +0.431 HD
ENDBRANCH  21  22
TORSDOF 3
ENDMDL
MODEL 6
REMARK VINA RESULT:      -5.1      2.979      6.471
REMARK  Name = ZINC28109109
REMARK  5 active torsions:
REMARK  status: ('A' for Active; 'I' for Inactive)
REMARK    1  A    between atoms: C1_1  and  O1_2
REMARK    2  A    between atoms: O1_2  and  C2_3
REMARK    3  A    between atoms: C7_8  and  O2_9
REMARK    4  A    between atoms: C12_15  and  O3_22
REMARK    5  A    between atoms: O3_22  and  C18_23
REMARK                            x       y       z     vdW  Elec       q    Type
REMARK                         _______ _______ _______ _____ _____    ______ ____
ROOT
ATOM      3  C   UNL     1      50.796  20.100  18.074  0.00  0.00    +0.088 A 
ATOM      4  C   UNL     1      49.571  19.861  18.668  0.00  0.00    -0.022 A 
ATOM      5  C   UNL     1      48.892  18.673  18.430  0.00  0.00    -0.100 A 
ATOM      6  C   UNL     1      49.431  17.729  17.586  0.00  0.00    -0.064 A 
ATOM      7  C   UNL     1      48.729  16.444  17.271  0.00  0.00    +0.052 C 
ATOM      8  C   UNL     1      47.381  16.303  17.927  0.00  0.00    +0.228 C 
ATOM      9  N   UNL     1      47.177  17.053  19.130  0.00  0.00    -0.524 NA
ATOM     10  C   UNL     1      47.870  16.492  20.314  0.00  0.00    +0.228 C 
ATOM     11  C   UNL     1      47.963  17.658  21.283  0.00  0.00    +0.009 C 
ATOM     12  C   UNL     1      47.784  18.782  20.611  0.00  0.00    -0.112 C 
ATOM     13  C   UNL     1      47.747  20.165  21.113  0.00  0.00    +0.050 C 
ATOM     14  C   UNL     1      47.258  21.096  20.301  0.00  0.00    -0.057 C 
ATOM     15  C   UNL     1      46.766  20.831  18.920  0.00  0.00    +0.187 C 
ATOM     18  C   UNL     1      46.514  19.378  18.584  0.00  0.00    +0.067 C 
ATOM     19  C   UNL     1      50.665  17.964  16.991  0.00  0.00    -0.049 A 
ATOM     20  C   UNL     1      47.583  18.453  19.138  0.00  0.00    +0.198 C 
ATOM     21  C   UNL     1      51.346  19.144  17.226  0.00  0.00    +0.136 A 
ENDROOT
BRANCH   3   2
ATOM      1  C   UNL     1      52.105  21.396  19.578  0.00  0.00    +0.233 C 
ATOM      2  O   UNL     1      51.456  21.265  18.311  0.00  0.00    -0.305 OA
ENDBRANCH   3   2
BRANCH  15  16
ATOM     16  O   UNL     1      45.546  21.553  18.734  0.00  0.00    -0.373 OA
ATOM     17  C   UNL     1      44.424  20.983  19.410  0.00  0.00    +0.200 C 
ENDBRANCH  15  16
BRANCH  21  22
ATOM     22  O   UNL     1      52.551  19.367  16.635  0.00  0.00    -0.499 OA
ATOM     23  H   UNL     1      53.479  19.073  17.150  0.00  0.00    +0.431 HD
ENDBRANCH  21  22
TORSDOF 3
ENDMDL
MODEL 7
REMARK VINA RESULT:      -5.1      1.999      4.243
REMARK  Name = ZINC28109109
REMARK  5 active torsions:
REMARK  status: ('A' for Active; 'I' for Inactive)
REMARK    1  A    between atoms: C1_1  and  O1_2
REMARK    2  A    between atoms: O1_2  and  C2_3
REMARK    3  A    between atoms: C7_8  and  O2_9
REMARK    4  A    between atoms: C12_15  and  O3_22
REMARK    5  A    between atoms: O3_22  and  C18_23
REMARK                            x       y       z     vdW  Elec       q    Type
REMARK                         _______ _______ _______ _____ _____    ______ ____
ROOT
ATOM      3  C   UNL     1      43.367  19.656  19.888  0.00  0.00    +0.088 A 
ATOM      4  C   UNL     1      44.371  18.741  20.142  0.00  0.00    -0.022 A 
ATOM      5  C   UNL     1      45.700  19.070  19.909  0.00  0.00    -0.100 A 
ATOM      6  C   UNL     1      46.025  20.309  19.407  0.00  0.00    -0.064 A 
ATOM      7  C   UNL     1      47.438  20.706  19.109  0.00  0.00    +0.052 C 
ATOM      8  C   UNL     1      48.450  19.622  19.372  0.00  0.00    +0.228 C 
ATOM      9  N   UNL     1      48.083  18.630  20.338  0.00  0.00    -0.524 NA
ATOM     10  C   UNL     1      48.148  19.102  21.741  0.00  0.00    +0.228 C 
ATOM     11  C   UNL     1      47.257  18.138  22.504  0.00  0.00    +0.009 C 
ATOM     12  C   UNL     1      46.465  17.521  21.643  0.00  0.00    -0.112 C 
ATOM     13  C   UNL     1      45.461  16.475  21.895  0.00  0.00    +0.050 C 
ATOM     14  C   UNL     1      45.006  15.801  20.845  0.00  0.00    -0.057 C 
ATOM     15  C   UNL     1      45.433  16.048  19.439  0.00  0.00    +0.187 C 
ATOM     18  C   UNL     1      46.687  16.879  19.274  0.00  0.00    +0.067 C 
ATOM     19  C   UNL     1      45.019  21.235  19.156  0.00  0.00    -0.049 A 
ATOM     20  C   UNL     1      46.750  18.046  20.243  0.00  0.00    +0.198 C 
ATOM     21  C   UNL     1      43.694  20.913  19.388  0.00  0.00    +0.136 A 
ENDROOT
BRANCH   3   2
ATOM      1  C   UNL     1      41.759  18.757  21.391  0.00  0.00    +0.233 C 
ATOM      2  O   UNL     1      42.067  19.330  20.118  0.00  0.00    -0.305 OA
ENDBRANCH   3   2
BRANCH  15  16
ATOM     16  O   UNL     1      45.646  14.785  18.807  0.00  0.00    -0.373 OA
ATOM     17  C   UNL     1      45.191  13.668  19.572  0.00  0.00    +0.200 C 
ENDBRANCH  15  16
BRANCH  21  22
ATOM     22  O   UNL     1      42.716  21.824  19.134  0.00  0.00    -0.499 OA
ATOM     23  H   UNL     1      42.017  22.118  19.932  0.00  0.00    +0.431 HD
ENDBRANCH  21  22
TORSDOF 3
ENDMDL
MODEL 8
REMARK VINA RESULT:      -5.1      4.804      7.297
REMARK  Name = ZINC28109109
REMARK  5 active torsions:
REMARK  status: ('A' for Active; 'I' for Inactive)
REMARK    1  A    between atoms: C1_1  and  O1_2
REMARK    2  A    between atoms: O1_2  and  C2_3
REMARK    3  A    between atoms: C7_8  and  O2_9
REMARK    4  A    between atoms: C12_15  and  O3_22
REMARK    5  A    between atoms: O3_22  and  C18_23
REMARK                            x       y       z     vdW  Elec       q    Type
REMARK                         _______ _______ _______ _____ _____    ______ ____
ROOT
ATOM      3  C   UNL     1      51.385  19.218  16.486  0.00  0.00    +0.088 A 
ATOM      4  C   UNL     1      50.508  18.426  17.204  0.00  0.00    -0.022 A 
ATOM      5  C   UNL     1      49.773  18.960  18.254  0.00  0.00    -0.100 A 
ATOM      6  C   UNL     1      49.926  20.283  18.598  0.00  0.00    -0.064 A 
ATOM      7  C   UNL     1      49.181  20.904  19.740  0.00  0.00    +0.052 C 
ATOM      8  C   UNL     1      48.292  19.945  20.488  0.00  0.00    +0.228 C 
ATOM      9  N   UNL     1      47.831  18.803  19.756  0.00  0.00    -0.524 NA
ATOM     10  C   UNL     1      46.764  19.108  18.774  0.00  0.00    +0.228 C 
ATOM     11  C   UNL     1      46.808  17.946  17.797  0.00  0.00    +0.009 C 
ATOM     12  C   UNL     1      47.974  17.334  17.920  0.00  0.00    -0.112 C 
ATOM     13  C   UNL     1      48.469  16.137  17.221  0.00  0.00    +0.050 C 
ATOM     14  C   UNL     1      49.543  15.538  17.723  0.00  0.00    -0.057 C 
ATOM     15  C   UNL     1      50.280  16.009  18.929  0.00  0.00    +0.187 C 
ATOM     18  C   UNL     1      49.550  17.018  19.789  0.00  0.00    +0.067 C 
ATOM     19  C   UNL     1      50.802  21.085  17.876  0.00  0.00    -0.049 A 
ATOM     20  C   UNL     1      48.806  18.057  18.970  0.00  0.00    +0.198 C 
ATOM     21  C   UNL     1      51.534  20.559  16.828  0.00  0.00    +0.136 A 
ENDROOT
BRANCH   3   2
ATOM      1  C   UNL     1      52.258  17.270  15.439  0.00  0.00    +0.233 C 
ATOM      2  O   UNL     1      52.101  18.691  15.458  0.00  0.00    -0.305 OA
ENDBRANCH   3   2
BRANCH  15  16
ATOM     16  O   UNL     1      50.589  14.871  19.737  0.00  0.00    -0.373 OA
ATOM     17  C   UNL     1      50.613  15.143  21.140  0.00  0.00    +0.200 C 
ENDBRANCH  15  16
BRANCH  21  22
ATOM     22  O   UNL     1      52.393  21.351  16.130  0.00  0.00    -0.499 OA
ATOM     23  H   UNL     1      52.322  21.407  15.033  0.00  0.00    +0.431 HD
ENDBRANCH  21  22
TORSDOF 3
ENDMDL
MODEL 9
REMARK VINA RESULT:      -4.9     22.011     24.150
REMARK  Name = ZINC28109109
REMARK  5 active torsions:
REMARK  status: ('A' for Active; 'I' for Inactive)
REMARK    1  A    between atoms: C1_1  and  O1_2
REMARK    2  A    between atoms: O1_2  and  C2_3
REMARK    3  A    between atoms: C7_8  and  O2_9
REMARK    4  A    between atoms: C12_15  and  O3_22
REMARK    5  A    between atoms: O3_22  and  C18_23
REMARK                            x       y       z     vdW  Elec       q    Type
REMARK                         _______ _______ _______ _____ _____    ______ ____
ROOT
ATOM      3  C   UNL     1      52.515  33.833   5.903  0.00  0.00    +0.088 A 
ATOM      4  C   UNL     1      53.373  33.717   4.826  0.00  0.00    -0.022 A 
ATOM      5  C   UNL     1      52.924  33.196   3.620  0.00  0.00    -0.100 A 
ATOM      6  C   UNL     1      51.619  32.776   3.495  0.00  0.00    -0.064 A 
ATOM      7  C   UNL     1      51.089  32.179   2.227  0.00  0.00    +0.052 C 
ATOM      8  C   UNL     1      52.115  32.050   1.133  0.00  0.00    +0.228 C 
ATOM      9  N   UNL     1      53.223  32.954   1.189  0.00  0.00    -0.524 NA
ATOM     10  C   UNL     1      52.891  34.340   0.785  0.00  0.00    +0.228 C 
ATOM     11  C   UNL     1      53.992  35.187   1.401  0.00  0.00    +0.009 C 
ATOM     12  C   UNL     1      54.577  34.488   2.359  0.00  0.00    -0.112 C 
ATOM     13  C   UNL     1      55.715  34.862   3.213  0.00  0.00    +0.050 C 
ATOM     14  C   UNL     1      56.313  33.889   3.893  0.00  0.00    -0.057 C 
ATOM     15  C   UNL     1      55.894  32.459   3.857  0.00  0.00    +0.187 C 
ATOM     18  C   UNL     1      54.959  32.081   2.729  0.00  0.00    +0.067 C 
ATOM     19  C   UNL     1      50.752  32.897   4.574  0.00  0.00    -0.049 A 
ATOM     20  C   UNL     1      53.894  33.132   2.472  0.00  0.00    +0.198 C 
ATOM     21  C   UNL     1      51.193  33.417   5.776  0.00  0.00    +0.136 A 
ENDROOT
BRANCH   3   2
ATOM      1  C   UNL     1      53.924  35.398   7.008  0.00  0.00    +0.233 C 
ATOM      2  O   UNL     1      52.961  34.345   7.082  0.00  0.00    -0.305 OA
ENDBRANCH   3   2
BRANCH  15  16
ATOM     16  O   UNL     1      57.068  31.652   3.756  0.00  0.00    -0.373 OA
ATOM     17  C   UNL     1      58.203  32.187   4.438  0.00  0.00    +0.200 C 
ENDBRANCH  15  16
BRANCH  21  22
ATOM     22  O   UNL     1      50.338  33.526   6.829  0.00  0.00    -0.499 OA
ATOM     23  H   UNL     1      50.011  34.520   7.171  0.00  0.00    +0.431 HD
ENDBRANCH  21  22
TORSDOF 3
ENDMDL
