MODEL 1
REMARK VINA RESULT:      -5.0      0.000      0.000
REMARK  Name = ZINC01532860
REMARK  12 active torsions:
REMARK  status: ('A' for Active; 'I' for Inactive)
REMARK    1  A    between atoms: C1_1  and  C2_2
REMARK    2  A    between atoms: C2_2  and  C15_16
REMARK    3  A    between atoms: C3_3  and  C4_4
REMARK    4  A    between atoms: C4_4  and  C5_5
REMARK    5  A    between atoms: C5_5  and  C6_6
REMARK    6  A    between atoms: C6_6  and  C14_15
REMARK    7  A    between atoms: C7_7  and  C8_8
REMARK    8  A    between atoms: C8_8  and  C9_9
REMARK    9  A    between atoms: C9_9  and  C10_10
REMARK   10  A    between atoms: C10_10  and  C13_14
REMARK   11  A    between atoms: C11_11  and  C12_12
REMARK   12  A    between atoms: C12_12  and  O1_13
REMARK                            x       y       z     vdW  Elec       q    Type
REMARK                         _______ _______ _______ _____ _____    ______ ____
ROOT
ATOM      7  C   UNL     1      46.062  21.083  19.452  0.00  0.00    -0.125 C 
ATOM      8  C   UNL     1      45.137  22.272  19.516  0.00  0.00    +0.072 C 
ATOM      9  C   UNL     1      45.631  19.943  18.974  0.00  0.00    -0.056 C 
ENDROOT
BRANCH   7   6
ATOM      6  C   UNL     1      47.484  21.208  19.937  0.00  0.00    +0.059 C 
BRANCH   6   5
ATOM      5  C   UNL     1      48.364  20.195  19.202  0.00  0.00    +0.053 C 
BRANCH   5   4
ATOM      1  C   UNL     1      50.321  18.725  17.804  0.00  0.00    +0.072 C 
ATOM      2  C   UNL     1      50.572  20.167  18.160  0.00  0.00    -0.133 C 
ATOM      3  C   UNL     1      51.895  20.808  17.825  0.00  0.00    +0.072 C 
ATOM      4  C   UNL     1      49.640  20.865  18.762  0.00  0.00    -0.061 C 
ENDBRANCH   5   4
ENDBRANCH   6   5
ENDBRANCH   7   6
BRANCH   9  10
ATOM     10  C   UNL     1      44.185  19.791  18.577  0.00  0.00    +0.056 C 
BRANCH  10  11
ATOM     11  C   UNL     1      43.418  19.094  19.703  0.00  0.00    +0.062 C 
BRANCH  11  12
ATOM     12  C   UNL     1      42.016  19.644  19.770  0.00  0.00    -0.113 C 
ATOM     13  C   UNL     1      41.049  19.118  20.799  0.00  0.00    +0.075 C 
ATOM     14  C   UNL     1      41.638  20.579  18.933  0.00  0.00    -0.050 C 
BRANCH  14  15
ATOM     15  C   UNL     1      40.237  21.128  18.999  0.00  0.00    +0.209 C 
BRANCH  15  16
ATOM     16  O   UNL     1      40.130  22.267  18.143  0.00  0.00    -0.571 OA
ATOM     17  H   UNL     1      39.232  22.613  18.059  0.00  0.00    +0.381 HD
ENDBRANCH  15  16
ENDBRANCH  14  15
ENDBRANCH  11  12
ENDBRANCH  10  11
ENDBRANCH   9  10
TORSDOF 8
ENDMDL
MODEL 2
REMARK VINA RESULT:      -5.0      3.153      7.652
REMARK  Name = ZINC01532860
REMARK  12 active torsions:
REMARK  status: ('A' for Active; 'I' for Inactive)
REMARK    1  A    between atoms: C1_1  and  C2_2
REMARK    2  A    between atoms: C2_2  and  C15_16
REMARK    3  A    between atoms: C3_3  and  C4_4
REMARK    4  A    between atoms: C4_4  and  C5_5
REMARK    5  A    between atoms: C5_5  and  C6_6
REMARK    6  A    between atoms: C6_6  and  C14_15
REMARK    7  A    between atoms: C7_7  and  C8_8
REMARK    8  A    between atoms: C8_8  and  C9_9
REMARK    9  A    between atoms: C9_9  and  C10_10
REMARK   10  A    between atoms: C10_10  and  C13_14
REMARK   11  A    between atoms: C11_11  and  C12_12
REMARK   12  A    between atoms: C12_12  and  O1_13
REMARK                            x       y       z     vdW  Elec       q    Type
REMARK                         _______ _______ _______ _____ _____    ______ ____
ROOT
ATOM      7  C   UNL     1      46.580  20.605  19.039  0.00  0.00    -0.125 C 
ATOM      8  C   UNL     1      46.491  19.240  18.407  0.00  0.00    +0.072 C 
ATOM      9  C   UNL     1      47.619  20.923  19.770  0.00  0.00    -0.056 C 
ENDROOT
BRANCH   7   6
ATOM      6  C   UNL     1      45.472  21.605  18.829  0.00  0.00    +0.059 C 
BRANCH   6   5
ATOM      5  C   UNL     1      44.436  21.461  19.945  0.00  0.00    +0.053 C 
BRANCH   5   4
ATOM      1  C   UNL     1      43.050  19.007  19.997  0.00  0.00    +0.072 C 
ATOM      2  C   UNL     1      42.438  20.205  19.318  0.00  0.00    -0.133 C 
ATOM      3  C   UNL     1      41.112  20.077  18.612  0.00  0.00    +0.072 C 
ATOM      4  C   UNL     1      43.058  21.359  19.342  0.00  0.00    -0.061 C 
ENDBRANCH   5   4
ENDBRANCH   6   5
ENDBRANCH   7   6
BRANCH   9  10
ATOM     10  C   UNL     1      48.681  19.893  20.057  0.00  0.00    +0.056 C 
BRANCH  10  11
ATOM     11  C   UNL     1      50.064  20.516  19.852  0.00  0.00    +0.062 C 
BRANCH  11  12
ATOM     12  C   UNL     1      50.550  20.209  18.459  0.00  0.00    -0.113 C 
ATOM     13  C   UNL     1      50.336  18.838  17.872  0.00  0.00    +0.075 C 
ATOM     14  C   UNL     1      51.160  21.135  17.759  0.00  0.00    -0.050 C 
BRANCH  14  15
ATOM     15  C   UNL     1      51.647  20.828  16.368  0.00  0.00    +0.209 C 
BRANCH  15  16
ATOM     16  O   UNL     1      51.724  22.038  15.612  0.00  0.00    -0.571 OA
ATOM     17  H   UNL     1      52.378  22.016  14.899  0.00  0.00    +0.381 HD
ENDBRANCH  15  16
ENDBRANCH  14  15
ENDBRANCH  11  12
ENDBRANCH  10  11
ENDBRANCH   9  10
TORSDOF 8
ENDMDL
MODEL 3
REMARK VINA RESULT:      -5.0      1.694      2.304
REMARK  Name = ZINC01532860
REMARK  12 active torsions:
REMARK  status: ('A' for Active; 'I' for Inactive)
REMARK    1  A    between atoms: C1_1  and  C2_2
REMARK    2  A    between atoms: C2_2  and  C15_16
REMARK    3  A    between atoms: C3_3  and  C4_4
REMARK    4  A    between atoms: C4_4  and  C5_5
REMARK    5  A    between atoms: C5_5  and  C6_6
REMARK    6  A    between atoms: C6_6  and  C14_15
REMARK    7  A    between atoms: C7_7  and  C8_8
REMARK    8  A    between atoms: C8_8  and  C9_9
REMARK    9  A    between atoms: C9_9  and  C10_10
REMARK   10  A    between atoms: C10_10  and  C13_14
REMARK   11  A    between atoms: C11_11  and  C12_12
REMARK   12  A    between atoms: C12_12  and  O1_13
REMARK                            x       y       z     vdW  Elec       q    Type
REMARK                         _______ _______ _______ _____ _____    ______ ____
ROOT
ATOM      7  C   UNL     1      47.481  20.547  19.543  0.00  0.00    -0.125 C 
ATOM      8  C   UNL     1      47.442  21.423  20.770  0.00  0.00    +0.072 C 
ATOM      9  C   UNL     1      46.430  20.459  18.768  0.00  0.00    -0.056 C 
ENDROOT
BRANCH   7   6
ATOM      6  C   UNL     1      48.731  19.774  19.209  0.00  0.00    +0.059 C 
BRANCH   6   5
ATOM      5  C   UNL     1      49.946  20.697  19.317  0.00  0.00    +0.053 C 
BRANCH   5   4
ATOM      1  C   UNL     1      52.308  19.573  18.266  0.00  0.00    +0.072 C 
ATOM      2  C   UNL     1      51.539  20.595  17.470  0.00  0.00    -0.133 C 
ATOM      3  C   UNL     1      52.064  21.065  16.137  0.00  0.00    +0.072 C 
ATOM      4  C   UNL     1      50.413  21.077  17.936  0.00  0.00    -0.061 C 
ENDBRANCH   5   4
ENDBRANCH   6   5
ENDBRANCH   7   6
BRANCH   9  10
ATOM     10  C   UNL     1      45.150  21.156  19.151  0.00  0.00    +0.056 C 
BRANCH  10  11
ATOM     11  C   UNL     1      43.961  20.241  18.851  0.00  0.00    +0.062 C 
BRANCH  11  12
ATOM     12  C   UNL     1      43.383  19.729  20.145  0.00  0.00    -0.113 C 
ATOM     13  C   UNL     1      44.217  19.743  21.401  0.00  0.00    +0.075 C 
ATOM     14  C   UNL     1      42.155  19.271  20.179  0.00  0.00    -0.050 C 
BRANCH  14  15
ATOM     15  C   UNL     1      41.578  18.759  21.473  0.00  0.00    +0.209 C 
BRANCH  15  16
ATOM     16  O   UNL     1      40.411  19.515  21.806  0.00  0.00    -0.571 OA
ATOM     17  H   UNL     1      40.597  20.338  22.278  0.00  0.00    +0.381 HD
ENDBRANCH  15  16
ENDBRANCH  14  15
ENDBRANCH  11  12
ENDBRANCH  10  11
ENDBRANCH   9  10
TORSDOF 8
ENDMDL
MODEL 4
REMARK VINA RESULT:      -5.0      4.646      8.118
REMARK  Name = ZINC01532860
REMARK  12 active torsions:
REMARK  status: ('A' for Active; 'I' for Inactive)
REMARK    1  A    between atoms: C1_1  and  C2_2
REMARK    2  A    between atoms: C2_2  and  C15_16
REMARK    3  A    between atoms: C3_3  and  C4_4
REMARK    4  A    between atoms: C4_4  and  C5_5
REMARK    5  A    between atoms: C5_5  and  C6_6
REMARK    6  A    between atoms: C6_6  and  C14_15
REMARK    7  A    between atoms: C7_7  and  C8_8
REMARK    8  A    between atoms: C8_8  and  C9_9
REMARK    9  A    between atoms: C9_9  and  C10_10
REMARK   10  A    between atoms: C10_10  and  C13_14
REMARK   11  A    between atoms: C11_11  and  C12_12
REMARK   12  A    between atoms: C12_12  and  O1_13
REMARK                            x       y       z     vdW  Elec       q    Type
REMARK                         _______ _______ _______ _____ _____    ______ ____
ROOT
ATOM      7  C   UNL     1      51.034  17.441  17.156  0.00  0.00    -0.125 C 
ATOM      8  C   UNL     1      52.176  17.388  18.138  0.00  0.00    +0.072 C 
ATOM      9  C   UNL     1      51.043  18.322  16.187  0.00  0.00    -0.056 C 
ENDROOT
BRANCH   7   6
ATOM      6  C   UNL     1      49.880  16.479  17.289  0.00  0.00    +0.059 C 
BRANCH   6   5
ATOM      5  C   UNL     1      48.565  17.260  17.317  0.00  0.00    +0.053 C 
BRANCH   5   4
ATOM      1  C   UNL     1      46.178  18.631  17.923  0.00  0.00    +0.072 C 
ATOM      2  C   UNL     1      47.270  18.526  18.955  0.00  0.00    -0.133 C 
ATOM      3  C   UNL     1      47.114  19.207  20.290  0.00  0.00    +0.072 C 
ATOM      4  C   UNL     1      48.357  17.843  18.691  0.00  0.00    -0.061 C 
ENDBRANCH   5   4
ENDBRANCH   6   5
ENDBRANCH   7   6
BRANCH   9  10
ATOM     10  C   UNL     1      52.147  19.345  16.109  0.00  0.00    +0.056 C 
BRANCH  10  11
ATOM     11  C   UNL     1      51.567  20.741  16.351  0.00  0.00    +0.062 C 
BRANCH  11  12
ATOM     12  C   UNL     1      51.462  20.990  17.834  0.00  0.00    -0.113 C 
ATOM     13  C   UNL     1      50.108  21.082  18.488  0.00  0.00    +0.075 C 
ATOM     14  C   UNL     1      52.549  21.127  18.554  0.00  0.00    -0.050 C 
BRANCH  14  15
ATOM     15  C   UNL     1      52.444  21.376  20.036  0.00  0.00    +0.209 C 
BRANCH  15  16
ATOM     16  O   UNL     1      52.951  22.678  20.337  0.00  0.00    -0.571 OA
ATOM     17  H   UNL     1      52.324  23.247  20.802  0.00  0.00    +0.381 HD
ENDBRANCH  15  16
ENDBRANCH  14  15
ENDBRANCH  11  12
ENDBRANCH  10  11
ENDBRANCH   9  10
TORSDOF 8
ENDMDL
MODEL 5
REMARK VINA RESULT:      -4.9      3.389      4.968
REMARK  Name = ZINC01532860
REMARK  12 active torsions:
REMARK  status: ('A' for Active; 'I' for Inactive)
REMARK    1  A    between atoms: C1_1  and  C2_2
REMARK    2  A    between atoms: C2_2  and  C15_16
REMARK    3  A    between atoms: C3_3  and  C4_4
REMARK    4  A    between atoms: C4_4  and  C5_5
REMARK    5  A    between atoms: C5_5  and  C6_6
REMARK    6  A    between atoms: C6_6  and  C14_15
REMARK    7  A    between atoms: C7_7  and  C8_8
REMARK    8  A    between atoms: C8_8  and  C9_9
REMARK    9  A    between atoms: C9_9  and  C10_10
REMARK   10  A    between atoms: C10_10  and  C13_14
REMARK   11  A    between atoms: C11_11  and  C12_12
REMARK   12  A    between atoms: C12_12  and  O1_13
REMARK                            x       y       z     vdW  Elec       q    Type
REMARK                         _______ _______ _______ _____ _____    ______ ____
ROOT
ATOM      7  C   UNL     1      50.812  21.105  18.428  0.00  0.00    -0.125 C 
ATOM      8  C   UNL     1      51.826  21.422  19.498  0.00  0.00    +0.072 C 
ATOM      9  C   UNL     1      49.576  20.826  18.759  0.00  0.00    -0.056 C 
ENDROOT
BRANCH   7   6
ATOM      6  C   UNL     1      51.221  21.110  16.977  0.00  0.00    +0.059 C 
BRANCH   6   5
ATOM      5  C   UNL     1      52.266  20.018  16.738  0.00  0.00    +0.053 C 
BRANCH   5   4
ATOM      1  C   UNL     1      52.517  17.900  18.581  0.00  0.00    +0.072 C 
ATOM      2  C   UNL     1      51.733  17.705  17.309  0.00  0.00    -0.133 C 
ATOM      3  C   UNL     1      51.134  16.359  16.991  0.00  0.00    +0.072 C 
ATOM      4  C   UNL     1      51.571  18.706  16.480  0.00  0.00    -0.061 C 
ENDBRANCH   5   4
ENDBRANCH   6   5
ENDBRANCH   7   6
BRANCH   9  10
ATOM     10  C   UNL     1      49.189  20.729  20.212  0.00  0.00    +0.056 C 
BRANCH  10  11
ATOM     11  C   UNL     1      47.683  20.478  20.322  0.00  0.00    +0.062 C 
BRANCH  11  12
ATOM     12  C   UNL     1      47.023  21.665  20.975  0.00  0.00    -0.113 C 
ATOM     13  C   UNL     1      47.622  22.272  22.217  0.00  0.00    +0.075 C 
ATOM     14  C   UNL     1      45.927  22.169  20.462  0.00  0.00    -0.050 C 
BRANCH  14  15
ATOM     15  C   UNL     1      45.266  23.355  21.115  0.00  0.00    +0.209 C 
BRANCH  15  16
ATOM     16  O   UNL     1      43.852  23.152  21.153  0.00  0.00    -0.571 OA
ATOM     17  H   UNL     1      43.514  22.604  20.432  0.00  0.00    +0.381 HD
ENDBRANCH  15  16
ENDBRANCH  14  15
ENDBRANCH  11  12
ENDBRANCH  10  11
ENDBRANCH   9  10
TORSDOF 8
ENDMDL
MODEL 6
REMARK VINA RESULT:      -4.9      3.616      8.111
REMARK  Name = ZINC01532860
REMARK  12 active torsions:
REMARK  status: ('A' for Active; 'I' for Inactive)
REMARK    1  A    between atoms: C1_1  and  C2_2
REMARK    2  A    between atoms: C2_2  and  C15_16
REMARK    3  A    between atoms: C3_3  and  C4_4
REMARK    4  A    between atoms: C4_4  and  C5_5
REMARK    5  A    between atoms: C5_5  and  C6_6
REMARK    6  A    between atoms: C6_6  and  C14_15
REMARK    7  A    between atoms: C7_7  and  C8_8
REMARK    8  A    between atoms: C8_8  and  C9_9
REMARK    9  A    between atoms: C9_9  and  C10_10
REMARK   10  A    between atoms: C10_10  and  C13_14
REMARK   11  A    between atoms: C11_11  and  C12_12
REMARK   12  A    between atoms: C12_12  and  O1_13
REMARK                            x       y       z     vdW  Elec       q    Type
REMARK                         _______ _______ _______ _____ _____    ______ ____
ROOT
ATOM      7  C   UNL     1      48.184  20.114  19.111  0.00  0.00    -0.125 C 
ATOM      8  C   UNL     1      48.354  18.617  19.101  0.00  0.00    +0.072 C 
ATOM      9  C   UNL     1      49.226  20.890  19.273  0.00  0.00    -0.056 C 
ENDROOT
BRANCH   7   6
ATOM      6  C   UNL     1      46.814  20.718  18.935  0.00  0.00    +0.059 C 
BRANCH   6   5
ATOM      5  C   UNL     1      45.873  19.678  18.323  0.00  0.00    +0.053 C 
BRANCH   5   4
ATOM      1  C   UNL     1      44.619  17.830  20.043  0.00  0.00    +0.072 C 
ATOM      2  C   UNL     1      43.867  19.042  19.559  0.00  0.00    -0.133 C 
ATOM      3  C   UNL     1      42.422  19.236  19.944  0.00  0.00    +0.072 C 
ATOM      4  C   UNL     1      44.467  19.929  18.804  0.00  0.00    -0.061 C 
ENDBRANCH   5   4
ENDBRANCH   6   5
ENDBRANCH   7   6
BRANCH   9  10
ATOM     10  C   UNL     1      50.580  20.288  19.543  0.00  0.00    +0.056 C 
BRANCH  10  11
ATOM     11  C   UNL     1      51.639  21.023  18.717  0.00  0.00    +0.062 C 
BRANCH  11  12
ATOM     12  C   UNL     1      51.660  20.466  17.317  0.00  0.00    -0.113 C 
ATOM     13  C   UNL     1      51.466  21.384  16.138  0.00  0.00    +0.075 C 
ATOM     14  C   UNL     1      51.846  19.183  17.125  0.00  0.00    -0.050 C 
BRANCH  14  15
ATOM     15  C   UNL     1      51.866  18.626  15.726  0.00  0.00    +0.209 C 
BRANCH  15  16
ATOM     16  O   UNL     1      52.287  17.261  15.762  0.00  0.00    -0.571 OA
ATOM     17  H   UNL     1      52.464  16.881  14.891  0.00  0.00    +0.381 HD
ENDBRANCH  15  16
ENDBRANCH  14  15
ENDBRANCH  11  12
ENDBRANCH  10  11
ENDBRANCH   9  10
TORSDOF 8
ENDMDL
MODEL 7
REMARK VINA RESULT:      -4.9      4.148      7.647
REMARK  Name = ZINC01532860
REMARK  12 active torsions:
REMARK  status: ('A' for Active; 'I' for Inactive)
REMARK    1  A    between atoms: C1_1  and  C2_2
REMARK    2  A    between atoms: C2_2  and  C15_16
REMARK    3  A    between atoms: C3_3  and  C4_4
REMARK    4  A    between atoms: C4_4  and  C5_5
REMARK    5  A    between atoms: C5_5  and  C6_6
REMARK    6  A    between atoms: C6_6  and  C14_15
REMARK    7  A    between atoms: C7_7  and  C8_8
REMARK    8  A    between atoms: C8_8  and  C9_9
REMARK    9  A    between atoms: C9_9  and  C10_10
REMARK   10  A    between atoms: C10_10  and  C13_14
REMARK   11  A    between atoms: C11_11  and  C12_12
REMARK   12  A    between atoms: C12_12  and  O1_13
REMARK                            x       y       z     vdW  Elec       q    Type
REMARK                         _______ _______ _______ _____ _____    ______ ____
ROOT
ATOM      7  C   UNL     1      47.803  20.579  19.509  0.00  0.00    -0.125 C 
ATOM      8  C   UNL     1      47.826  19.934  20.871  0.00  0.00    +0.072 C 
ATOM      9  C   UNL     1      48.921  20.770  18.856  0.00  0.00    -0.056 C 
ENDROOT
BRANCH   7   6
ATOM      6  C   UNL     1      46.491  21.003  18.899  0.00  0.00    +0.059 C 
BRANCH   6   5
ATOM      5  C   UNL     1      45.523  19.819  18.897  0.00  0.00    +0.053 C 
BRANCH   5   4
ATOM      1  C   UNL     1      45.325  17.063  19.456  0.00  0.00    +0.072 C 
ATOM      2  C   UNL     1      45.927  17.528  18.155  0.00  0.00    -0.133 C 
ATOM      3  C   UNL     1      46.481  16.523  17.178  0.00  0.00    +0.072 C 
ATOM      4  C   UNL     1      45.969  18.807  17.873  0.00  0.00    -0.061 C 
ENDBRANCH   5   4
ENDBRANCH   6   5
ENDBRANCH   7   6
BRANCH   9  10
ATOM     10  C   UNL     1      50.240  20.433  19.504  0.00  0.00    +0.056 C 
BRANCH  10  11
ATOM     11  C   UNL     1      51.372  21.138  18.753  0.00  0.00    +0.062 C 
BRANCH  11  12
ATOM     12  C   UNL     1      51.526  20.523  17.386  0.00  0.00    -0.113 C 
ATOM     13  C   UNL     1      51.460  21.392  16.156  0.00  0.00    +0.075 C 
ATOM     14  C   UNL     1      51.719  19.232  17.267  0.00  0.00    -0.050 C 
BRANCH  14  15
ATOM     15  C   UNL     1      51.873  18.616  15.901  0.00  0.00    +0.209 C 
BRANCH  15  16
ATOM     16  O   UNL     1      52.160  17.223  16.035  0.00  0.00    -0.571 OA
ATOM     17  H   UNL     1      52.493  16.972  16.907  0.00  0.00    +0.381 HD
ENDBRANCH  15  16
ENDBRANCH  14  15
ENDBRANCH  11  12
ENDBRANCH  10  11
ENDBRANCH   9  10
TORSDOF 8
ENDMDL
MODEL 8
REMARK VINA RESULT:      -4.8      5.194      7.812
REMARK  Name = ZINC01532860
REMARK  12 active torsions:
REMARK  status: ('A' for Active; 'I' for Inactive)
REMARK    1  A    between atoms: C1_1  and  C2_2
REMARK    2  A    between atoms: C2_2  and  C15_16
REMARK    3  A    between atoms: C3_3  and  C4_4
REMARK    4  A    between atoms: C4_4  and  C5_5
REMARK    5  A    between atoms: C5_5  and  C6_6
REMARK    6  A    between atoms: C6_6  and  C14_15
REMARK    7  A    between atoms: C7_7  and  C8_8
REMARK    8  A    between atoms: C8_8  and  C9_9
REMARK    9  A    between atoms: C9_9  and  C10_10
REMARK   10  A    between atoms: C10_10  and  C13_14
REMARK   11  A    between atoms: C11_11  and  C12_12
REMARK   12  A    between atoms: C12_12  and  O1_13
REMARK                            x       y       z     vdW  Elec       q    Type
REMARK                         _______ _______ _______ _____ _____    ______ ____
ROOT
ATOM      7  C   UNL     1      49.362  20.541  19.707  0.00  0.00    -0.125 C 
ATOM      8  C   UNL     1      50.352  20.460  20.840  0.00  0.00    +0.072 C 
ATOM      9  C   UNL     1      49.762  20.899  18.512  0.00  0.00    -0.056 C 
ENDROOT
BRANCH   7   6
ATOM      6  C   UNL     1      47.911  20.210  19.948  0.00  0.00    +0.059 C 
BRANCH   6   5
ATOM      5  C   UNL     1      47.539  18.949  19.167  0.00  0.00    +0.053 C 
BRANCH   5   4
ATOM      1  C   UNL     1      48.463  17.319  17.061  0.00  0.00    +0.072 C 
ATOM      2  C   UNL     1      48.945  17.080  18.468  0.00  0.00    -0.133 C 
ATOM      3  C   UNL     1      49.874  15.929  18.762  0.00  0.00    +0.072 C 
ATOM      4  C   UNL     1      48.557  17.872  19.437  0.00  0.00    -0.061 C 
ENDBRANCH   5   4
ENDBRANCH   6   5
ENDBRANCH   7   6
BRANCH   9  10
ATOM     10  C   UNL     1      51.191  21.320  18.291  0.00  0.00    +0.056 C 
BRANCH  10  11
ATOM     11  C   UNL     1      51.647  20.868  16.901  0.00  0.00    +0.062 C 
BRANCH  11  12
ATOM     12  C   UNL     1      51.937  19.390  16.924  0.00  0.00    -0.113 C 
ATOM     13  C   UNL     1      52.507  18.753  18.166  0.00  0.00    +0.075 C 
ATOM     14  C   UNL     1      51.693  18.658  15.865  0.00  0.00    -0.050 C 
BRANCH  14  15
ATOM     15  C   UNL     1      51.984  17.180  15.888  0.00  0.00    +0.209 C 
BRANCH  15  16
ATOM     16  O   UNL     1      52.780  16.833  14.752  0.00  0.00    -0.571 OA
ATOM     17  H   UNL     1      53.651  16.480  14.976  0.00  0.00    +0.381 HD
ENDBRANCH  15  16
ENDBRANCH  14  15
ENDBRANCH  11  12
ENDBRANCH  10  11
ENDBRANCH   9  10
TORSDOF 8
ENDMDL
MODEL 9
REMARK VINA RESULT:      -4.8      3.199      7.587
REMARK  Name = ZINC01532860
REMARK  12 active torsions:
REMARK  status: ('A' for Active; 'I' for Inactive)
REMARK    1  A    between atoms: C1_1  and  C2_2
REMARK    2  A    between atoms: C2_2  and  C15_16
REMARK    3  A    between atoms: C3_3  and  C4_4
REMARK    4  A    between atoms: C4_4  and  C5_5
REMARK    5  A    between atoms: C5_5  and  C6_6
REMARK    6  A    between atoms: C6_6  and  C14_15
REMARK    7  A    between atoms: C7_7  and  C8_8
REMARK    8  A    between atoms: C8_8  and  C9_9
REMARK    9  A    between atoms: C9_9  and  C10_10
REMARK   10  A    between atoms: C10_10  and  C13_14
REMARK   11  A    between atoms: C11_11  and  C12_12
REMARK   12  A    between atoms: C12_12  and  O1_13
REMARK                            x       y       z     vdW  Elec       q    Type
REMARK                         _______ _______ _______ _____ _____    ______ ____
ROOT
ATOM      7  C   UNL     1      45.866  19.104  19.491  0.00  0.00    -0.125 C 
ATOM      8  C   UNL     1      45.910  18.756  18.026  0.00  0.00    +0.072 C 
ATOM      9  C   UNL     1      46.605  20.080  19.956  0.00  0.00    -0.056 C 
ENDROOT
BRANCH   7   6
ATOM      6  C   UNL     1      44.970  18.327  20.422  0.00  0.00    +0.059 C 
BRANCH   6   5
ATOM      5  C   UNL     1      43.831  19.228  20.903  0.00  0.00    +0.053 C 
BRANCH   5   4
ATOM      1  C   UNL     1      43.157  21.547  19.448  0.00  0.00    +0.072 C 
ATOM      2  C   UNL     1      42.358  20.283  19.267  0.00  0.00    -0.133 C 
ATOM      3  C   UNL     1      41.158  20.274  18.354  0.00  0.00    +0.072 C 
ATOM      4  C   UNL     1      42.705  19.191  19.903  0.00  0.00    -0.061 C 
ENDBRANCH   5   4
ENDBRANCH   6   5
ENDBRANCH   7   6
BRANCH   9  10
ATOM     10  C   UNL     1      47.570  20.794  19.046  0.00  0.00    +0.056 C 
BRANCH  10  11
ATOM     11  C   UNL     1      48.975  20.741  19.650  0.00  0.00    +0.062 C 
BRANCH  11  12
ATOM     12  C   UNL     1      49.956  20.284  18.601  0.00  0.00    -0.113 C 
ATOM     13  C   UNL     1      49.941  18.853  18.128  0.00  0.00    +0.075 C 
ATOM     14  C   UNL     1      50.822  21.131  18.100  0.00  0.00    -0.050 C 
BRANCH  14  15
ATOM     15  C   UNL     1      51.802  20.674  17.052  0.00  0.00    +0.209 C 
BRANCH  15  16
ATOM     16  O   UNL     1      51.802  21.601  15.963  0.00  0.00    -0.571 OA
ATOM     17  H   UNL     1      52.300  22.411  16.136  0.00  0.00    +0.381 HD
ENDBRANCH  15  16
ENDBRANCH  14  15
ENDBRANCH  11  12
ENDBRANCH  10  11
ENDBRANCH   9  10
TORSDOF 8
ENDMDL
