MODEL 1
REMARK VINA RESULT:      -6.2      0.000      0.000
REMARK  Name = ZINC95486319
REMARK  8 active torsions:
REMARK  status: ('A' for Active; 'I' for Inactive)
REMARK    1  A    between atoms: C1_1  and  C2_2
REMARK    2  A    between atoms: C7_8  and  C12_16
REMARK    3  A    between atoms: C8_9  and  O1_15
REMARK    4  A    between atoms: C10_11  and  C11_14
REMARK    5  A    between atoms: C17_22  and  O3_31
REMARK    6  A    between atoms: C19_24  and  C22_30
REMARK    7  A    between atoms: C21_27  and  O2_29
REMARK    8  A    between atoms: O3_31  and  C23_32
REMARK                            x       y       z     vdW  Elec       q    Type
REMARK                         _______ _______ _______ _____ _____    ______ ____
ROOT
ATOM      1  C   UNL     1      41.857  20.768  19.107  0.00  0.00    +0.035 C 
ATOM      2  C   UNL     1      43.355  21.023  19.279  0.00  0.00    +0.124 C 
ATOM      3  C   UNL     1      44.146  19.839  18.722  0.00  0.00    +0.089 C 
ATOM      4  C   UNL     1      45.599  19.967  19.100  0.00  0.00    -0.053 A 
ATOM      5  C   UNL     1      46.532  19.209  18.407  0.00  0.00    -0.016 A 
ATOM      6  C   UNL     1      47.873  19.290  18.722  0.00  0.00    +0.078 A 
ATOM      7  C   UNL     1      48.293  20.131  19.735  0.00  0.00    -0.101 A 
ATOM     23  C   UNL     1      47.365  20.890  20.428  0.00  0.00    +0.110 A 
ATOM     26  C   UNL     1      46.012  20.809  20.107  0.00  0.00    -0.101 A 
ATOM     27  C   UNL     1      45.041  21.663  20.880  0.00  0.00    +0.228 C 
ATOM     28  C   UNL     1      45.119  23.104  20.372  0.00  0.00    -0.004 C 
ATOM     29  N   UNL     1      43.672  21.169  20.709  0.00  0.00    -0.675 NA
ATOM     30  H   UNL     1      43.007  21.774  21.167  0.00  0.00    +0.346 HD
ENDROOT
BRANCH   7   8
ATOM      8  C   UNL     1      49.756  20.221  20.084  0.00  0.00    +0.111 C 
ATOM      9  C   UNL     1      50.369  18.846  20.014  0.00  0.00    -0.024 A 
ATOM     10  C   UNL     1      49.638  17.786  20.534  0.00  0.00    -0.023 A 
ATOM     11  C   UNL     1      50.143  16.502  20.507  0.00  0.00    +0.038 A 
ATOM     12  C   UNL     1      51.390  16.266  19.959  0.00  0.00    -0.085 A 
ATOM     13  C   UNL     1      52.121  17.319  19.437  0.00  0.00    +0.125 A 
ATOM     16  C   UNL     1      51.607  18.615  19.461  0.00  0.00    -0.090 A 
ATOM     17  C   UNL     1      52.446  19.714  18.862  0.00  0.00    +0.044 C 
ATOM     18  C   UNL     1      52.347  19.650  17.337  0.00  0.00    +0.033 C 
ATOM     19  C   UNL     1      51.963  21.081  19.341  0.00  0.00    -0.004 C 
ATOM     20  C   UNL     1      50.450  21.168  19.107  0.00  0.00    +0.175 C 
BRANCH  13  14
ATOM     14  O   UNL     1      53.346  17.089  18.896  0.00  0.00    -0.314 OA
ATOM     15  C   UNL     1      54.166  16.111  19.541  0.00  0.00    +0.235 C 
ENDBRANCH  13  14
BRANCH  20  21
ATOM     21  O   UNL     1      50.147  20.782  17.765  0.00  0.00    -0.547 OA
ATOM     22  H   UNL     1      50.367  21.452  17.103  0.00  0.00    +0.374 HD
ENDBRANCH  20  21
ENDBRANCH   7   8
BRANCH  23  24
ATOM     24  O   UNL     1      47.777  21.718  21.424  0.00  0.00    -0.492 OA
ATOM     25  H   UNL     1      48.732  21.862  21.447  0.00  0.00    +0.384 HD
ENDBRANCH  23  24
TORSDOF 4
ENDMDL
MODEL 2
REMARK VINA RESULT:      -6.0      2.130      3.603
REMARK  Name = ZINC95486319
REMARK  8 active torsions:
REMARK  status: ('A' for Active; 'I' for Inactive)
REMARK    1  A    between atoms: C1_1  and  C2_2
REMARK    2  A    between atoms: C7_8  and  C12_16
REMARK    3  A    between atoms: C8_9  and  O1_15
REMARK    4  A    between atoms: C10_11  and  C11_14
REMARK    5  A    between atoms: C17_22  and  O3_31
REMARK    6  A    between atoms: C19_24  and  C22_30
REMARK    7  A    between atoms: C21_27  and  O2_29
REMARK    8  A    between atoms: O3_31  and  C23_32
REMARK                            x       y       z     vdW  Elec       q    Type
REMARK                         _______ _______ _______ _____ _____    ______ ____
ROOT
ATOM      1  C   UNL     1      39.464  21.526  18.755  0.00  0.00    +0.035 C 
ATOM      2  C   UNL     1      40.728  20.947  19.391  0.00  0.00    +0.124 C 
ATOM      3  C   UNL     1      41.960  21.642  18.810  0.00  0.00    +0.089 C 
ATOM      4  C   UNL     1      43.211  20.921  19.245  0.00  0.00    -0.053 A 
ATOM      5  C   UNL     1      44.427  21.579  19.131  0.00  0.00    -0.016 A 
ATOM      6  C   UNL     1      45.597  20.956  19.511  0.00  0.00    +0.078 A 
ATOM      7  C   UNL     1      45.561  19.667  20.010  0.00  0.00    -0.101 A 
ATOM     23  C   UNL     1      44.350  19.008  20.127  0.00  0.00    +0.110 A 
ATOM     26  C   UNL     1      43.168  19.638  19.744  0.00  0.00    -0.101 A 
ATOM     27  C   UNL     1      41.872  18.887  19.901  0.00  0.00    +0.228 C 
ATOM     28  C   UNL     1      41.453  18.902  21.372  0.00  0.00    -0.004 C 
ATOM     29  N   UNL     1      40.816  19.508  19.096  0.00  0.00    -0.675 NA
ATOM     30  H   UNL     1      39.928  19.053  19.247  0.00  0.00    +0.346 HD
ENDROOT
BRANCH   7   8
ATOM      8  C   UNL     1      46.838  18.982  20.426  0.00  0.00    +0.111 C 
ATOM      9  C   UNL     1      47.538  18.451  19.202  0.00  0.00    -0.024 A 
ATOM     10  C   UNL     1      46.759  17.843  18.225  0.00  0.00    -0.023 A 
ATOM     11  C   UNL     1      47.337  17.330  17.082  0.00  0.00    +0.038 A 
ATOM     12  C   UNL     1      48.705  17.419  16.905  0.00  0.00    -0.085 A 
ATOM     13  C   UNL     1      49.485  18.026  17.874  0.00  0.00    +0.125 A 
ATOM     16  C   UNL     1      48.899  18.548  19.027  0.00  0.00    -0.090 A 
ATOM     17  C   UNL     1      49.801  19.210  20.035  0.00  0.00    +0.044 C 
ATOM     18  C   UNL     1      50.178  20.606  19.535  0.00  0.00    +0.033 C 
ATOM     19  C   UNL     1      49.100  19.331  21.386  0.00  0.00    -0.004 C 
ATOM     20  C   UNL     1      47.729  19.980  21.162  0.00  0.00    +0.175 C 
BRANCH  13  14
ATOM     14  O   UNL     1      50.830  18.116  17.701  0.00  0.00    -0.314 OA
ATOM     15  C   UNL     1      51.291  18.526  16.412  0.00  0.00    +0.235 C 
ENDBRANCH  13  14
BRANCH  20  21
ATOM     21  O   UNL     1      47.879  21.164  20.376  0.00  0.00    -0.547 OA
ATOM     22  H   UNL     1      48.178  21.000  19.470  0.00  0.00    +0.374 HD
ENDBRANCH  20  21
ENDBRANCH   7   8
BRANCH  23  24
ATOM     24  O   UNL     1      44.313  17.741  20.618  0.00  0.00    -0.492 OA
ATOM     25  H   UNL     1      45.055  17.189  20.338  0.00  0.00    +0.384 HD
ENDBRANCH  23  24
TORSDOF 4
ENDMDL
MODEL 3
REMARK VINA RESULT:      -6.0      3.758      7.099
REMARK  Name = ZINC95486319
REMARK  8 active torsions:
REMARK  status: ('A' for Active; 'I' for Inactive)
REMARK    1  A    between atoms: C1_1  and  C2_2
REMARK    2  A    between atoms: C7_8  and  C12_16
REMARK    3  A    between atoms: C8_9  and  O1_15
REMARK    4  A    between atoms: C10_11  and  C11_14
REMARK    5  A    between atoms: C17_22  and  O3_31
REMARK    6  A    between atoms: C19_24  and  C22_30
REMARK    7  A    between atoms: C21_27  and  O2_29
REMARK    8  A    between atoms: O3_31  and  C23_32
REMARK                            x       y       z     vdW  Elec       q    Type
REMARK                         _______ _______ _______ _____ _____    ______ ____
ROOT
ATOM      1  C   UNL     1      46.115  11.178  17.132  0.00  0.00    +0.035 C 
ATOM      2  C   UNL     1      46.675  12.582  17.361  0.00  0.00    +0.124 C 
ATOM      3  C   UNL     1      45.728  13.372  18.266  0.00  0.00    +0.089 C 
ATOM      4  C   UNL     1      46.141  14.821  18.304  0.00  0.00    -0.053 A 
ATOM      5  C   UNL     1      45.648  15.622  19.323  0.00  0.00    -0.016 A 
ATOM      6  C   UNL     1      45.995  16.956  19.394  0.00  0.00    +0.078 A 
ATOM      7  C   UNL     1      46.839  17.500  18.444  0.00  0.00    -0.101 A 
ATOM     23  C   UNL     1      47.333  16.703  17.426  0.00  0.00    +0.110 A 
ATOM     26  C   UNL     1      46.984  15.356  17.356  0.00  0.00    -0.101 A 
ATOM     27  C   UNL     1      47.556  14.525  16.238  0.00  0.00    +0.228 C 
ATOM     28  C   UNL     1      49.010  14.175  16.560  0.00  0.00    -0.004 C 
ATOM     29  N   UNL     1      46.791  13.286  16.074  0.00  0.00    -0.675 NA
ATOM     30  H   UNL     1      47.207  12.691  15.373  0.00  0.00    +0.346 HD
ENDROOT
BRANCH   7   8
ATOM      8  C   UNL     1      47.219  18.957  18.517  0.00  0.00    +0.111 C 
ATOM      9  C   UNL     1      46.029  19.758  18.981  0.00  0.00    -0.024 A 
ATOM     10  C   UNL     1      44.786  19.433  18.452  0.00  0.00    -0.023 A 
ATOM     11  C   UNL     1      43.658  20.130  18.830  0.00  0.00    +0.038 A 
ATOM     12  C   UNL     1      43.761  21.164  19.742  0.00  0.00    -0.085 A 
ATOM     13  C   UNL     1      44.998  21.490  20.272  0.00  0.00    +0.125 A 
ATOM     16  C   UNL     1      46.137  20.781  19.893  0.00  0.00    -0.090 A 
ATOM     17  C   UNL     1      47.449  21.174  20.520  0.00  0.00    +0.044 C 
ATOM     18  C   UNL     1      47.516  20.617  21.943  0.00  0.00    +0.033 C 
ATOM     19  C   UNL     1      48.620  20.624  19.708  0.00  0.00    -0.004 C 
ATOM     20  C   UNL     1      48.388  19.125  19.484  0.00  0.00    +0.175 C 
BRANCH  13  14
ATOM     14  O   UNL     1      45.102  22.505  21.170  0.00  0.00    -0.314 OA
ATOM     15  C   UNL     1      45.186  23.830  20.642  0.00  0.00    +0.235 C 
ENDBRANCH  13  14
BRANCH  20  21
ATOM     21  O   UNL     1      48.079  18.494  20.728  0.00  0.00    -0.547 OA
ATOM     22  H   UNL     1      47.502  19.016  21.303  0.00  0.00    +0.374 HD
ENDBRANCH  20  21
ENDBRANCH   7   8
BRANCH  23  24
ATOM     24  O   UNL     1      48.163  17.237  16.491  0.00  0.00    -0.492 OA
ATOM     25  H   UNL     1      47.709  17.574  15.708  0.00  0.00    +0.384 HD
ENDBRANCH  23  24
TORSDOF 4
ENDMDL
MODEL 4
REMARK VINA RESULT:      -5.7      6.288      9.490
REMARK  Name = ZINC95486319
REMARK  8 active torsions:
REMARK  status: ('A' for Active; 'I' for Inactive)
REMARK    1  A    between atoms: C1_1  and  C2_2
REMARK    2  A    between atoms: C7_8  and  C12_16
REMARK    3  A    between atoms: C8_9  and  O1_15
REMARK    4  A    between atoms: C10_11  and  C11_14
REMARK    5  A    between atoms: C17_22  and  O3_31
REMARK    6  A    between atoms: C19_24  and  C22_30
REMARK    7  A    between atoms: C21_27  and  O2_29
REMARK    8  A    between atoms: O3_31  and  C23_32
REMARK                            x       y       z     vdW  Elec       q    Type
REMARK                         _______ _______ _______ _____ _____    ______ ____
ROOT
ATOM      1  C   UNL     1      51.297  12.282  10.683  0.00  0.00    +0.035 C 
ATOM      2  C   UNL     1      51.020  12.347  12.186  0.00  0.00    +0.124 C 
ATOM      3  C   UNL     1      49.553  12.707  12.424  0.00  0.00    +0.089 C 
ATOM      4  C   UNL     1      49.327  13.008  13.883  0.00  0.00    -0.053 A 
ATOM      5  C   UNL     1      48.026  13.005  14.365  0.00  0.00    -0.016 A 
ATOM      6  C   UNL     1      47.771  13.280  15.693  0.00  0.00    +0.078 A 
ATOM      7  C   UNL     1      48.817  13.563  16.551  0.00  0.00    -0.101 A 
ATOM     23  C   UNL     1      50.117  13.566  16.074  0.00  0.00    +0.110 A 
ATOM     26  C   UNL     1      50.373  13.286  14.734  0.00  0.00    -0.101 A 
ATOM     27  C   UNL     1      51.804  13.288  14.263  0.00  0.00    +0.228 C 
ATOM     28  C   UNL     1      52.486  11.994  14.708  0.00  0.00    -0.004 C 
ATOM     29  N   UNL     1      51.865  13.383  12.801  0.00  0.00    -0.675 NA
ATOM     30  H   UNL     1      52.816  13.317  12.471  0.00  0.00    +0.346 HD
ENDROOT
BRANCH   7   8
ATOM      8  C   UNL     1      48.544  13.866  18.002  0.00  0.00    +0.111 C 
ATOM      9  C   UNL     1      47.649  15.076  18.096  0.00  0.00    -0.024 A 
ATOM     10  C   UNL     1      47.912  16.141  17.244  0.00  0.00    -0.023 A 
ATOM     11  C   UNL     1      47.135  17.280  17.283  0.00  0.00    +0.038 A 
ATOM     12  C   UNL     1      46.085  17.366  18.177  0.00  0.00    -0.085 A 
ATOM     13  C   UNL     1      45.818  16.306  19.026  0.00  0.00    +0.125 A 
ATOM     16  C   UNL     1      46.602  15.154  18.983  0.00  0.00    -0.090 A 
ATOM     17  C   UNL     1      46.248  14.030  19.922  0.00  0.00    +0.044 C 
ATOM     18  C   UNL     1      45.029  13.281  19.377  0.00  0.00    +0.033 C 
ATOM     19  C   UNL     1      47.417  13.056  20.059  0.00  0.00    -0.004 C 
ATOM     20  C   UNL     1      47.879  12.656  18.653  0.00  0.00    +0.175 C 
BRANCH  13  14
ATOM     14  O   UNL     1      44.785  16.388  19.906  0.00  0.00    -0.314 OA
ATOM     15  C   UNL     1      44.368  17.698  20.294  0.00  0.00    +0.235 C 
ENDBRANCH  13  14
BRANCH  20  21
ATOM     21  O   UNL     1      46.753  12.247  17.874  0.00  0.00    -0.547 OA
ATOM     22  H   UNL     1      46.986  11.771  17.065  0.00  0.00    +0.374 HD
ENDBRANCH  20  21
ENDBRANCH   7   8
BRANCH  23  24
ATOM     24  O   UNL     1      51.147  13.843  16.917  0.00  0.00    -0.492 OA
ATOM     25  H   UNL     1      51.841  14.388  16.524  0.00  0.00    +0.384 HD
ENDBRANCH  23  24
TORSDOF 4
ENDMDL
MODEL 5
REMARK VINA RESULT:      -5.5      4.348      5.624
REMARK  Name = ZINC95486319
REMARK  8 active torsions:
REMARK  status: ('A' for Active; 'I' for Inactive)
REMARK    1  A    between atoms: C1_1  and  C2_2
REMARK    2  A    between atoms: C7_8  and  C12_16
REMARK    3  A    between atoms: C8_9  and  O1_15
REMARK    4  A    between atoms: C10_11  and  C11_14
REMARK    5  A    between atoms: C17_22  and  O3_31
REMARK    6  A    between atoms: C19_24  and  C22_30
REMARK    7  A    between atoms: C21_27  and  O2_29
REMARK    8  A    between atoms: O3_31  and  C23_32
REMARK                            x       y       z     vdW  Elec       q    Type
REMARK                         _______ _______ _______ _____ _____    ______ ____
ROOT
ATOM      1  C   UNL     1      42.260  21.601  19.132  0.00  0.00    +0.035 C 
ATOM      2  C   UNL     1      43.000  20.452  19.819  0.00  0.00    +0.124 C 
ATOM      3  C   UNL     1      43.855  19.705  18.795  0.00  0.00    +0.089 C 
ATOM      4  C   UNL     1      44.396  18.437  19.404  0.00  0.00    -0.053 A 
ATOM      5  C   UNL     1      45.464  17.808  18.780  0.00  0.00    -0.016 A 
ATOM      6  C   UNL     1      45.989  16.642  19.299  0.00  0.00    +0.078 A 
ATOM      7  C   UNL     1      45.448  16.094  20.447  0.00  0.00    -0.101 A 
ATOM     23  C   UNL     1      44.384  16.720  21.072  0.00  0.00    +0.110 A 
ATOM     26  C   UNL     1      43.856  17.898  20.550  0.00  0.00    -0.101 A 
ATOM     27  C   UNL     1      42.706  18.550  21.271  0.00  0.00    +0.228 C 
ATOM     28  C   UNL     1      43.233  19.283  22.505  0.00  0.00    -0.004 C 
ATOM     29  N   UNL     1      42.027  19.511  20.396  0.00  0.00    -0.675 NA
ATOM     30  H   UNL     1      41.298  20.002  20.892  0.00  0.00    +0.346 HD
ENDROOT
BRANCH   7   8
ATOM      8  C   UNL     1      46.017  14.819  21.016  0.00  0.00    +0.111 C 
ATOM      9  C   UNL     1      46.311  13.861  19.890  0.00  0.00    -0.024 A 
ATOM     10  C   UNL     1      45.377  13.760  18.867  0.00  0.00    -0.023 A 
ATOM     11  C   UNL     1      45.582  12.898  17.810  0.00  0.00    +0.038 A 
ATOM     12  C   UNL     1      46.727  12.124  17.766  0.00  0.00    -0.085 A 
ATOM     13  C   UNL     1      47.661  12.224  18.782  0.00  0.00    +0.125 A 
ATOM     16  C   UNL     1      47.455  13.099  19.848  0.00  0.00    -0.090 A 
ATOM     17  C   UNL     1      48.519  13.171  20.912  0.00  0.00    +0.044 C 
ATOM     18  C   UNL     1      49.695  14.001  20.394  0.00  0.00    +0.033 C 
ATOM     19  C   UNL     1      47.966  13.818  22.181  0.00  0.00    -0.004 C 
ATOM     20  C   UNL     1      47.291  15.138  21.795  0.00  0.00    +0.175 C 
BRANCH  13  14
ATOM     14  O   UNL     1      48.789  11.465  18.740  0.00  0.00    -0.314 OA
ATOM     15  C   UNL     1      49.564  11.524  17.541  0.00  0.00    +0.235 C 
ENDBRANCH  13  14
BRANCH  20  21
ATOM     21  O   UNL     1      48.174  15.910  20.978  0.00  0.00    -0.547 OA
ATOM     22  H   UNL     1      47.786  16.196  20.139  0.00  0.00    +0.374 HD
ENDBRANCH  20  21
ENDBRANCH   7   8
BRANCH  23  24
ATOM     24  O   UNL     1      43.851  16.182  22.202  0.00  0.00    -0.492 OA
ATOM     25  H   UNL     1      44.381  15.472  22.588  0.00  0.00    +0.384 HD
ENDBRANCH  23  24
TORSDOF 4
ENDMDL
MODEL 6
REMARK VINA RESULT:      -5.4      4.064      6.646
REMARK  Name = ZINC95486319
REMARK  8 active torsions:
REMARK  status: ('A' for Active; 'I' for Inactive)
REMARK    1  A    between atoms: C1_1  and  C2_2
REMARK    2  A    between atoms: C7_8  and  C12_16
REMARK    3  A    between atoms: C8_9  and  O1_15
REMARK    4  A    between atoms: C10_11  and  C11_14
REMARK    5  A    between atoms: C17_22  and  O3_31
REMARK    6  A    between atoms: C19_24  and  C22_30
REMARK    7  A    between atoms: C21_27  and  O2_29
REMARK    8  A    between atoms: O3_31  and  C23_32
REMARK                            x       y       z     vdW  Elec       q    Type
REMARK                         _______ _______ _______ _____ _____    ______ ____
ROOT
ATOM      1  C   UNL     1      52.912  22.384  20.422  0.00  0.00    +0.035 C 
ATOM      2  C   UNL     1      52.045  21.479  19.545  0.00  0.00    +0.124 C 
ATOM      3  C   UNL     1      51.367  20.418  20.414  0.00  0.00    +0.089 C 
ATOM      4  C   UNL     1      50.708  19.382  19.540  0.00  0.00    -0.053 A 
ATOM      5  C   UNL     1      49.753  18.550  20.106  0.00  0.00    -0.016 A 
ATOM      6  C   UNL     1      49.128  17.583  19.346  0.00  0.00    +0.078 A 
ATOM      7  C   UNL     1      49.453  17.440  18.010  0.00  0.00    -0.101 A 
ATOM     23  C   UNL     1      50.404  18.270  17.441  0.00  0.00    +0.110 A 
ATOM     26  C   UNL     1      51.033  19.246  18.209  0.00  0.00    -0.101 A 
ATOM     27  C   UNL     1      52.053  20.133  17.544  0.00  0.00    +0.228 C 
ATOM     28  C   UNL     1      51.333  21.194  16.709  0.00  0.00    -0.004 C 
ATOM     29  N   UNL     1      52.888  20.801  18.547  0.00  0.00    -0.675 NA
ATOM     30  H   UNL     1      53.528  21.449  18.114  0.00  0.00    +0.346 HD
ENDROOT
BRANCH   7   8
ATOM      8  C   UNL     1      48.773  16.385  17.176  0.00  0.00    +0.111 C 
ATOM      9  C   UNL     1      49.088  15.024  17.745  0.00  0.00    -0.024 A 
ATOM     10  C   UNL     1      50.390  14.786  18.167  0.00  0.00    -0.023 A 
ATOM     11  C   UNL     1      50.745  13.560  18.691  0.00  0.00    +0.038 A 
ATOM     12  C   UNL     1      49.800  12.558  18.798  0.00  0.00    -0.085 A 
ATOM     13  C   UNL     1      48.501  12.792  18.381  0.00  0.00    +0.125 A 
ATOM     16  C   UNL     1      48.142  14.032  17.855  0.00  0.00    -0.090 A 
ATOM     17  C   UNL     1      46.708  14.228  17.436  0.00  0.00    +0.044 C 
ATOM     18  C   UNL     1      45.844  14.449  18.678  0.00  0.00    +0.033 C 
ATOM     19  C   UNL     1      46.579  15.436  16.510  0.00  0.00    -0.004 C 
ATOM     20  C   UNL     1      47.267  16.631  17.179  0.00  0.00    +0.175 C 
BRANCH  13  14
ATOM     14  O   UNL     1      47.569  11.808  18.487  0.00  0.00    -0.314 OA
ATOM     15  C   UNL     1      47.746  10.657  17.657  0.00  0.00    +0.235 C 
ENDBRANCH  13  14
BRANCH  20  21
ATOM     21  O   UNL     1      46.803  16.764  18.524  0.00  0.00    -0.547 OA
ATOM     22  H   UNL     1      45.982  17.268  18.610  0.00  0.00    +0.374 HD
ENDBRANCH  20  21
ENDBRANCH   7   8
BRANCH  23  24
ATOM     24  O   UNL     1      50.725  18.130  16.128  0.00  0.00    -0.492 OA
ATOM     25  H   UNL     1      50.481  17.274  15.751  0.00  0.00    +0.384 HD
ENDBRANCH  23  24
TORSDOF 4
ENDMDL
MODEL 7
REMARK VINA RESULT:      -5.3      4.998      6.359
REMARK  Name = ZINC95486319
REMARK  8 active torsions:
REMARK  status: ('A' for Active; 'I' for Inactive)
REMARK    1  A    between atoms: C1_1  and  C2_2
REMARK    2  A    between atoms: C7_8  and  C12_16
REMARK    3  A    between atoms: C8_9  and  O1_15
REMARK    4  A    between atoms: C10_11  and  C11_14
REMARK    5  A    between atoms: C17_22  and  O3_31
REMARK    6  A    between atoms: C19_24  and  C22_30
REMARK    7  A    between atoms: C21_27  and  O2_29
REMARK    8  A    between atoms: O3_31  and  C23_32
REMARK                            x       y       z     vdW  Elec       q    Type
REMARK                         _______ _______ _______ _____ _____    ______ ____
ROOT
ATOM      1  C   UNL     1      43.327  21.053  19.509  0.00  0.00    +0.035 C 
ATOM      2  C   UNL     1      44.038  19.767  19.932  0.00  0.00    +0.124 C 
ATOM      3  C   UNL     1      44.623  19.074  18.700  0.00  0.00    +0.089 C 
ATOM      4  C   UNL     1      45.112  17.697  19.068  0.00  0.00    -0.053 A 
ATOM      5  C   UNL     1      45.985  17.053  18.204  0.00  0.00    -0.016 A 
ATOM      6  C   UNL     1      46.455  15.789  18.497  0.00  0.00    +0.078 A 
ATOM      7  C   UNL     1      46.055  15.158  19.660  0.00  0.00    -0.101 A 
ATOM     23  C   UNL     1      45.185  15.798  20.526  0.00  0.00    +0.110 A 
ATOM     26  C   UNL     1      44.713  17.075  20.230  0.00  0.00    -0.101 A 
ATOM     27  C   UNL     1      43.778  17.737  21.208  0.00  0.00    +0.228 C 
ATOM     28  C   UNL     1      44.581  18.265  22.398  0.00  0.00    -0.004 C 
ATOM     29  N   UNL     1      43.076  18.856  20.572  0.00  0.00    -0.675 NA
ATOM     30  H   UNL     1      42.498  19.348  21.237  0.00  0.00    +0.346 HD
ENDROOT
BRANCH   7   8
ATOM      8  C   UNL     1      46.564  13.777  19.984  0.00  0.00    +0.111 C 
ATOM      9  C   UNL     1      46.433  12.901  18.765  0.00  0.00    -0.024 A 
ATOM     10  C   UNL     1      45.269  13.008  18.014  0.00  0.00    -0.023 A 
ATOM     11  C   UNL     1      45.083  12.231  16.890  0.00  0.00    +0.038 A 
ATOM     12  C   UNL     1      46.062  11.334  16.504  0.00  0.00    -0.085 A 
ATOM     13  C   UNL     1      47.224  11.226  17.247  0.00  0.00    +0.125 A 
ATOM     16  C   UNL     1      47.413  12.015  18.381  0.00  0.00    -0.090 A 
ATOM     17  C   UNL     1      48.707  11.861  19.136  0.00  0.00    +0.044 C 
ATOM     18  C   UNL     1      49.822  12.589  18.383  0.00  0.00    +0.033 C 
ATOM     19  C   UNL     1      48.583  12.446  20.542  0.00  0.00    -0.004 C 
ATOM     20  C   UNL     1      48.023  13.868  20.424  0.00  0.00    +0.175 C 
BRANCH  13  14
ATOM     14  O   UNL     1      48.189  10.346  16.869  0.00  0.00    -0.314 OA
ATOM     15  C   UNL     1      48.597  10.382  15.500  0.00  0.00    +0.235 C 
ENDBRANCH  13  14
BRANCH  20  21
ATOM     21  O   UNL     1      48.774  14.603  19.455  0.00  0.00    -0.547 OA
ATOM     22  H   UNL     1      48.289  15.338  19.056  0.00  0.00    +0.374 HD
ENDBRANCH  20  21
ENDBRANCH   7   8
BRANCH  23  24
ATOM     24  O   UNL     1      44.791  15.179  21.670  0.00  0.00    -0.492 OA
ATOM     25  H   UNL     1      45.517  14.957  22.268  0.00  0.00    +0.384 HD
ENDBRANCH  23  24
TORSDOF 4
ENDMDL
MODEL 8
REMARK VINA RESULT:      -5.2      2.372      3.618
REMARK  Name = ZINC95486319
REMARK  8 active torsions:
REMARK  status: ('A' for Active; 'I' for Inactive)
REMARK    1  A    between atoms: C1_1  and  C2_2
REMARK    2  A    between atoms: C7_8  and  C12_16
REMARK    3  A    between atoms: C8_9  and  O1_15
REMARK    4  A    between atoms: C10_11  and  C11_14
REMARK    5  A    between atoms: C17_22  and  O3_31
REMARK    6  A    between atoms: C19_24  and  C22_30
REMARK    7  A    between atoms: C21_27  and  O2_29
REMARK    8  A    between atoms: O3_31  and  C23_32
REMARK                            x       y       z     vdW  Elec       q    Type
REMARK                         _______ _______ _______ _____ _____    ______ ____
ROOT
ATOM      1  C   UNL     1      43.333  23.152  19.514  0.00  0.00    +0.035 C 
ATOM      2  C   UNL     1      44.008  21.790  19.684  0.00  0.00    +0.124 C 
ATOM      3  C   UNL     1      45.473  21.886  19.258  0.00  0.00    +0.089 C 
ATOM      4  C   UNL     1      46.081  20.508  19.192  0.00  0.00    -0.053 A 
ATOM      5  C   UNL     1      47.463  20.395  19.178  0.00  0.00    -0.016 A 
ATOM      6  C   UNL     1      48.063  19.154  19.113  0.00  0.00    +0.078 A 
ATOM      7  C   UNL     1      47.284  18.014  19.062  0.00  0.00    -0.101 A 
ATOM     23  C   UNL     1      45.904  18.122  19.078  0.00  0.00    +0.110 A 
ATOM     26  C   UNL     1      45.299  19.375  19.145  0.00  0.00    -0.101 A 
ATOM     27  C   UNL     1      43.795  19.444  19.173  0.00  0.00    +0.228 C 
ATOM     28  C   UNL     1      43.297  19.081  20.573  0.00  0.00    -0.004 C 
ATOM     29  N   UNL     1      43.335  20.794  18.836  0.00  0.00    -0.675 NA
ATOM     30  H   UNL     1      42.331  20.867  18.918  0.00  0.00    +0.346 HD
ENDROOT
BRANCH   7   8
ATOM      8  C   UNL     1      47.935  16.656  18.990  0.00  0.00    +0.111 C 
ATOM      9  C   UNL     1      49.319  16.799  18.409  0.00  0.00    -0.024 A 
ATOM     10  C   UNL     1      49.480  17.659  17.330  0.00  0.00    -0.023 A 
ATOM     11  C   UNL     1      50.719  17.832  16.748  0.00  0.00    +0.038 A 
ATOM     12  C   UNL     1      51.811  17.142  17.239  0.00  0.00    -0.085 A 
ATOM     13  C   UNL     1      51.655  16.286  18.316  0.00  0.00    +0.125 A 
ATOM     16  C   UNL     1      50.403  16.116  18.906  0.00  0.00    -0.090 A 
ATOM     17  C   UNL     1      50.305  15.183  20.084  0.00  0.00    +0.044 C 
ATOM     18  C   UNL     1      50.852  15.882  21.330  0.00  0.00    +0.033 C 
ATOM     19  C   UNL     1      48.852  14.780  20.331  0.00  0.00    -0.004 C 
ATOM     20  C   UNL     1      48.002  16.053  20.391  0.00  0.00    +0.175 C 
BRANCH  13  14
ATOM     14  O   UNL     1      52.728  15.608  18.802  0.00  0.00    -0.314 OA
ATOM     15  C   UNL     1      53.862  16.385  19.195  0.00  0.00    +0.235 C 
ENDBRANCH  13  14
BRANCH  20  21
ATOM     21  O   UNL     1      48.600  16.989  21.290  0.00  0.00    -0.547 OA
ATOM     22  H   UNL     1      49.024  17.740  20.853  0.00  0.00    +0.374 HD
ENDBRANCH  20  21
ENDBRANCH   7   8
BRANCH  23  24
ATOM     24  O   UNL     1      45.136  17.002  19.029  0.00  0.00    -0.492 OA
ATOM     25  H   UNL     1      45.639  16.184  18.913  0.00  0.00    +0.384 HD
ENDBRANCH  23  24
TORSDOF 4
ENDMDL
MODEL 9
REMARK VINA RESULT:      -5.0      5.233      7.918
REMARK  Name = ZINC95486319
REMARK  8 active torsions:
REMARK  status: ('A' for Active; 'I' for Inactive)
REMARK    1  A    between atoms: C1_1  and  C2_2
REMARK    2  A    between atoms: C7_8  and  C12_16
REMARK    3  A    between atoms: C8_9  and  O1_15
REMARK    4  A    between atoms: C10_11  and  C11_14
REMARK    5  A    between atoms: C17_22  and  O3_31
REMARK    6  A    between atoms: C19_24  and  C22_30
REMARK    7  A    between atoms: C21_27  and  O2_29
REMARK    8  A    between atoms: O3_31  and  C23_32
REMARK                            x       y       z     vdW  Elec       q    Type
REMARK                         _______ _______ _______ _____ _____    ______ ____
ROOT
ATOM      1  C   UNL     1      51.780  20.962  19.124  0.00  0.00    +0.035 C 
ATOM      2  C   UNL     1      51.657  19.468  18.822  0.00  0.00    +0.124 C 
ATOM      3  C   UNL     1      50.293  19.182  18.192  0.00  0.00    +0.089 C 
ATOM      4  C   UNL     1      50.066  17.694  18.112  0.00  0.00    -0.053 A 
ATOM      5  C   UNL     1      49.074  17.221  17.265  0.00  0.00    -0.016 A 
ATOM      6  C   UNL     1      48.827  15.868  17.164  0.00  0.00    +0.078 A 
ATOM      7  C   UNL     1      49.570  14.974  17.911  0.00  0.00    -0.101 A 
ATOM     23  C   UNL     1      50.562  15.441  18.756  0.00  0.00    +0.110 A 
ATOM     26  C   UNL     1      50.812  16.808  18.856  0.00  0.00    -0.101 A 
ATOM     27  C   UNL     1      51.909  17.270  19.780  0.00  0.00    +0.228 C 
ATOM     28  C   UNL     1      53.265  17.027  19.116  0.00  0.00    -0.004 C 
ATOM     29  N   UNL     1      51.768  18.699  20.072  0.00  0.00    -0.675 NA
ATOM     30  H   UNL     1      52.537  19.033  20.635  0.00  0.00    +0.346 HD
ENDROOT
BRANCH   7   8
ATOM      8  C   UNL     1      49.302  13.494  17.805  0.00  0.00    +0.111 C 
ATOM      9  C   UNL     1      47.815  13.255  17.845  0.00  0.00    -0.024 A 
ATOM     10  C   UNL     1      47.066  13.991  18.754  0.00  0.00    -0.023 A 
ATOM     11  C   UNL     1      45.701  13.816  18.846  0.00  0.00    +0.038 A 
ATOM     12  C   UNL     1      45.069  12.900  18.026  0.00  0.00    -0.085 A 
ATOM     13  C   UNL     1      45.811  12.166  17.117  0.00  0.00    +0.125 A 
ATOM     16  C   UNL     1      47.190  12.347  17.023  0.00  0.00    -0.090 A 
ATOM     17  C   UNL     1      47.936  11.530  16.000  0.00  0.00    +0.044 C 
ATOM     18  C   UNL     1      47.713  12.131  14.612  0.00  0.00    +0.033 C 
ATOM     19  C   UNL     1      49.432  11.518  16.310  0.00  0.00    -0.004 C 
ATOM     20  C   UNL     1      49.896  12.966  16.502  0.00  0.00    +0.175 C 
BRANCH  13  14
ATOM     14  O   UNL     1      45.191  11.266  16.309  0.00  0.00    -0.314 OA
ATOM     15  C   UNL     1      43.782  11.424  16.124  0.00  0.00    +0.235 C 
ENDBRANCH  13  14
BRANCH  20  21
ATOM     21  O   UNL     1      49.443  13.766  15.407  0.00  0.00    -0.547 OA
ATOM     22  H   UNL     1      49.935  14.591  15.292  0.00  0.00    +0.374 HD
ENDBRANCH  20  21
ENDBRANCH   7   8
BRANCH  23  24
ATOM     24  O   UNL     1      51.294  14.564  19.492  0.00  0.00    -0.492 OA
ATOM     25  H   UNL     1      51.082  13.636  19.323  0.00  0.00    +0.384 HD
ENDBRANCH  23  24
TORSDOF 4
ENDMDL
