MODEL 1
REMARK VINA RESULT:      -7.2      0.000      0.000
REMARK  Name = ZINC95486179
REMARK  10 active torsions:
REMARK  status: ('A' for Active; 'I' for Inactive)
REMARK    1  A    between atoms: C1_1  and  C2_2
REMARK    2  A    between atoms: C2_2  and  O2_4
REMARK    3  A    between atoms: O2_4  and  C3_5
REMARK    4  A    between atoms: C6_10  and  C28_43
REMARK    5  A    between atoms: C10_16  and  C11_17
REMARK    6  A    between atoms: C10_16  and  C12_18
REMARK    7  A    between atoms: C14_21  and  C27_42
REMARK    8  A    between atoms: C18_29  and  C23_37
REMARK    9  A    between atoms: C19_31  and  C22_36
REMARK   10  A    between atoms: C21_33  and  O8_35
REMARK                            x       y       z     vdW  Elec       q    Type
REMARK                         _______ _______ _______ _____ _____    ______ ____
ROOT
ATOM      4  C   UNL     1      46.747  17.757  19.083  0.00  0.00    +0.200 C 
ATOM      5  C   UNL     1      45.421  17.900  19.817  0.00  0.00    +0.045 C 
ATOM      6  C   UNL     1      45.200  19.295  20.391  0.00  0.00    -0.004 C 
ATOM      7  C   UNL     1      46.350  19.677  21.289  0.00  0.00    -0.010 C 
ATOM      8  C   UNL     1      46.237  18.734  22.505  0.00  0.00    +0.040 C 
ATOM      9  C   UNL     1      47.706  19.485  20.636  0.00  0.00    +0.028 C 
ATOM     10  C   UNL     1      48.857  19.859  21.555  0.00  0.00    +0.190 C 
ATOM     13  C   UNL     1      50.216  19.462  21.001  0.00  0.00    +0.033 C 
ATOM     14  C   UNL     1      50.236  19.276  19.491  0.00  0.00    -0.056 C 
ATOM     15  C   UNL     1      49.970  20.632  18.821  0.00  0.00    +0.064 C 
ATOM     16  C   UNL     1      51.652  18.897  19.062  0.00  0.00    +0.323 C 
ATOM     22  O   UNL     1      51.862  17.496  18.978  0.00  0.00    -0.343 OA
ATOM     23  C   UNL     1      51.081  16.845  18.085  0.00  0.00    +0.505 C 
ATOM     24  O   UNL     1      51.541  16.162  17.204  0.00  0.00    -0.413 OA
ATOM     25  C   UNL     1      49.590  17.027  18.279  0.00  0.00    +0.107 C 
ATOM     26  O   UNL     1      48.960  18.130  17.632  0.00  0.00    -0.295 OA
ATOM     27  C   UNL     1      49.173  18.294  19.035  0.00  0.00    +0.058 C 
ATOM     28  C   UNL     1      46.278  21.020  21.931  0.00  0.00    +0.082 C 
ATOM     29  C   UNL     1      45.783  22.145  21.581  0.00  0.00    -0.085 C 
ATOM     30  C   UNL     1      44.956  22.442  20.409  0.00  0.00    +0.536 C 
ATOM     31  O   UNL     1      44.144  21.472  19.978  0.00  0.00    -0.383 OA
ATOM     32  O   UNL     1      44.971  23.532  19.887  0.00  0.00    -0.448 OA
ATOM     33  C   UNL     1      44.667  20.284  19.413  0.00  0.00    +0.163 C 
ATOM     34  C   UNL     1      43.480  19.663  18.649  0.00  0.00    +0.073 C 
ATOM     35  C   UNL     1      45.708  20.690  18.372  0.00  0.00    +0.021 C 
ATOM     36  C   UNL     1      47.938  18.151  19.954  0.00  0.00    -0.001 C 
ATOM     37  C   UNL     1      48.242  17.020  20.943  0.00  0.00    +0.070 C 
ENDROOT
BRANCH  16  17
ATOM     17  C   UNL     1      51.932  19.530  17.723  0.00  0.00    -0.222 A 
ATOM     18  C   UNL     1      51.910  18.885  16.466  0.00  0.00    -0.041 A 
ATOM     19  C   UNL     1      52.216  19.817  15.544  0.00  0.00    +0.175 A 
ATOM     20  O   UNL     1      52.421  20.985  16.174  0.00  0.00    -0.166 OA
ATOM     21  C   UNL     1      52.244  20.819  17.495  0.00  0.00    +0.175 A 
ENDBRANCH  16  17
BRANCH  10  11
ATOM     11  O   UNL     1      48.861  21.277  21.758  0.00  0.00    -0.561 OA
ATOM     12  H   UNL     1      48.302  21.764  21.137  0.00  0.00    +0.381 HD
ENDBRANCH  10  11
BRANCH   4   3
ATOM      3  O   UNL     1      46.885  16.375  18.707  0.00  0.00    -0.354 OA
BRANCH   3   2
ATOM      1  C   UNL     1      46.587  14.610  17.007  0.00  0.00    +0.155 C 
ATOM      2  C   UNL     1      46.550  16.050  17.448  0.00  0.00    +0.457 C 
ATOM     38  O   UNL     1      46.220  16.914  16.669  0.00  0.00    -0.499 OA
ENDBRANCH   3   2
ENDBRANCH   4   3
TORSDOF 4
ENDMDL
MODEL 2
REMARK VINA RESULT:      -7.1      2.238      7.087
REMARK  Name = ZINC95486179
REMARK  10 active torsions:
REMARK  status: ('A' for Active; 'I' for Inactive)
REMARK    1  A    between atoms: C1_1  and  C2_2
REMARK    2  A    between atoms: C2_2  and  O2_4
REMARK    3  A    between atoms: O2_4  and  C3_5
REMARK    4  A    between atoms: C6_10  and  C28_43
REMARK    5  A    between atoms: C10_16  and  C11_17
REMARK    6  A    between atoms: C10_16  and  C12_18
REMARK    7  A    between atoms: C14_21  and  C27_42
REMARK    8  A    between atoms: C18_29  and  C23_37
REMARK    9  A    between atoms: C19_31  and  C22_36
REMARK   10  A    between atoms: C21_33  and  O8_35
REMARK                            x       y       z     vdW  Elec       q    Type
REMARK                         _______ _______ _______ _____ _____    ______ ____
ROOT
ATOM      4  C   UNL     1      48.389  18.514  20.197  0.00  0.00    +0.200 C 
ATOM      5  C   UNL     1      49.497  17.497  19.958  0.00  0.00    +0.045 C 
ATOM      6  C   UNL     1      49.017  16.244  19.236  0.00  0.00    -0.004 C 
ATOM      7  C   UNL     1      47.871  15.615  19.987  0.00  0.00    -0.010 C 
ATOM      8  C   UNL     1      48.493  15.093  21.299  0.00  0.00    +0.040 C 
ATOM      9  C   UNL     1      46.765  16.600  20.320  0.00  0.00    +0.028 C 
ATOM     10  C   UNL     1      45.622  15.960  21.091  0.00  0.00    +0.190 C 
ATOM     13  C   UNL     1      44.621  16.972  21.623  0.00  0.00    +0.033 C 
ATOM     14  C   UNL     1      44.630  18.299  20.880  0.00  0.00    -0.056 C 
ATOM     15  C   UNL     1      44.153  18.063  19.439  0.00  0.00    +0.064 C 
ATOM     16  C   UNL     1      43.576  19.215  21.497  0.00  0.00    +0.323 C 
ATOM     22  O   UNL     1      44.091  20.071  22.505  0.00  0.00    -0.343 OA
ATOM     23  C   UNL     1      45.052  20.932  22.100  0.00  0.00    +0.505 C 
ATOM     24  O   UNL     1      44.957  22.125  22.253  0.00  0.00    -0.413 OA
ATOM     25  C   UNL     1      46.260  20.290  21.449  0.00  0.00    +0.107 C 
ATOM     26  O   UNL     1      46.225  20.073  20.041  0.00  0.00    -0.295 OA
ATOM     27  C   UNL     1      46.020  18.905  20.837  0.00  0.00    +0.058 C 
ATOM     28  C   UNL     1      47.290  14.374  19.404  0.00  0.00    +0.082 C 
ATOM     29  C   UNL     1      47.141  13.940  18.212  0.00  0.00    -0.085 C 
ATOM     30  C   UNL     1      47.657  14.518  16.969  0.00  0.00    +0.536 C 
ATOM     31  O   UNL     1      48.825  15.164  17.039  0.00  0.00    -0.383 OA
ATOM     32  O   UNL     1      47.076  14.376  15.919  0.00  0.00    -0.448 OA
ATOM     33  C   UNL     1      48.941  16.380  17.754  0.00  0.00    +0.163 C 
ATOM     34  C   UNL     1      50.245  17.015  17.229  0.00  0.00    +0.073 C 
ATOM     35  C   UNL     1      47.792  17.285  17.312  0.00  0.00    +0.021 C 
ATOM     36  C   UNL     1      47.201  17.912  20.942  0.00  0.00    -0.001 C 
ATOM     37  C   UNL     1      47.546  17.781  22.430  0.00  0.00    +0.070 C 
ENDROOT
BRANCH  16  17
ATOM     17  C   UNL     1      42.958  20.042  20.399  0.00  0.00    -0.222 A 
ATOM     18  C   UNL     1      41.709  19.816  19.775  0.00  0.00    -0.041 A 
ATOM     19  C   UNL     1      41.551  20.788  18.859  0.00  0.00    +0.175 A 
ATOM     20  O   UNL     1      42.630  21.585  18.894  0.00  0.00    -0.166 OA
ATOM     21  C   UNL     1      43.484  21.142  19.831  0.00  0.00    +0.175 A 
ENDBRANCH  16  17
BRANCH  10  11
ATOM     11  O   UNL     1      44.919  15.054  20.231  0.00  0.00    -0.561 OA
ATOM     12  H   UNL     1      45.328  14.939  19.363  0.00  0.00    +0.381 HD
ENDBRANCH  10  11
BRANCH   4   3
ATOM      3  O   UNL     1      48.944  19.578  20.990  0.00  0.00    -0.354 OA
BRANCH   3   2
ATOM      1  C   UNL     1      49.512  20.843  18.947  0.00  0.00    +0.155 C 
ATOM      2  C   UNL     1      49.778  20.428  20.371  0.00  0.00    +0.457 C 
ATOM     38  O   UNL     1      50.744  20.861  20.956  0.00  0.00    -0.499 OA
ENDBRANCH   3   2
ENDBRANCH   4   3
TORSDOF 4
ENDMDL
MODEL 3
REMARK VINA RESULT:      -6.7      3.166      7.184
REMARK  Name = ZINC95486179
REMARK  10 active torsions:
REMARK  status: ('A' for Active; 'I' for Inactive)
REMARK    1  A    between atoms: C1_1  and  C2_2
REMARK    2  A    between atoms: C2_2  and  O2_4
REMARK    3  A    between atoms: O2_4  and  C3_5
REMARK    4  A    between atoms: C6_10  and  C28_43
REMARK    5  A    between atoms: C10_16  and  C11_17
REMARK    6  A    between atoms: C10_16  and  C12_18
REMARK    7  A    between atoms: C14_21  and  C27_42
REMARK    8  A    between atoms: C18_29  and  C23_37
REMARK    9  A    between atoms: C19_31  and  C22_36
REMARK   10  A    between atoms: C21_33  and  O8_35
REMARK                            x       y       z     vdW  Elec       q    Type
REMARK                         _______ _______ _______ _____ _____    ______ ____
ROOT
ATOM      4  C   UNL     1      50.676  13.785  18.898  0.00  0.00    +0.200 C 
ATOM      5  C   UNL     1      50.420  12.345  18.476  0.00  0.00    +0.045 C 
ATOM      6  C   UNL     1      49.750  12.229  17.112  0.00  0.00    -0.004 C 
ATOM      7  C   UNL     1      48.470  13.026  17.089  0.00  0.00    -0.010 C 
ATOM      8  C   UNL     1      47.521  12.283  18.052  0.00  0.00    +0.040 C 
ATOM      9  C   UNL     1      48.648  14.454  17.572  0.00  0.00    +0.028 C 
ATOM     10  C   UNL     1      47.350  15.243  17.561  0.00  0.00    +0.190 C 
ATOM     13  C   UNL     1      47.466  16.594  18.248  0.00  0.00    +0.033 C 
ATOM     14  C   UNL     1      48.890  17.123  18.333  0.00  0.00    -0.056 C 
ATOM     15  C   UNL     1      49.397  17.410  16.913  0.00  0.00    +0.064 C 
ATOM     16  C   UNL     1      48.869  18.483  19.025  0.00  0.00    +0.323 C 
ATOM     22  O   UNL     1      49.088  18.409  20.426  0.00  0.00    -0.343 OA
ATOM     23  C   UNL     1      50.279  17.888  20.800  0.00  0.00    +0.505 C 
ATOM     24  O   UNL     1      51.046  18.482  21.516  0.00  0.00    -0.413 OA
ATOM     25  C   UNL     1      50.574  16.502  20.263  0.00  0.00    +0.107 C 
ATOM     26  O   UNL     1      51.221  16.399  18.997  0.00  0.00    -0.295 OA
ATOM     27  C   UNL     1      49.820  16.117  18.985  0.00  0.00    +0.058 C 
ATOM     28  C   UNL     1      47.695  13.011  15.817  0.00  0.00    +0.082 C 
ATOM     29  C   UNL     1      48.017  12.926  14.584  0.00  0.00    -0.085 C 
ATOM     30  C   UNL     1      49.340  12.664  14.012  0.00  0.00    +0.536 C 
ATOM     31  O   UNL     1      50.162  11.880  14.717  0.00  0.00    -0.383 OA
ATOM     32  O   UNL     1      49.656  13.098  12.929  0.00  0.00    -0.448 OA
ATOM     33  C   UNL     1      50.689  12.309  15.958  0.00  0.00    +0.163 C 
ATOM     34  C   UNL     1      51.893  11.380  16.210  0.00  0.00    +0.073 C 
ATOM     35  C   UNL     1      51.245  13.719  15.758  0.00  0.00    +0.021 C 
ATOM     36  C   UNL     1      49.405  14.631  18.874  0.00  0.00    -0.001 C 
ATOM     37  C   UNL     1      48.555  14.309  20.108  0.00  0.00    +0.070 C 
ENDROOT
BRANCH  16  17
ATOM     17  C   UNL     1      49.922  19.358  18.396  0.00  0.00    -0.222 A 
ATOM     18  C   UNL     1      50.038  20.761  18.525  0.00  0.00    -0.041 A 
ATOM     19  C   UNL     1      51.113  21.130  17.805  0.00  0.00    +0.175 A 
ATOM     20  O   UNL     1      51.650  20.032  17.250  0.00  0.00    -0.166 OA
ATOM     21  C   UNL     1      50.936  18.953  17.610  0.00  0.00    +0.175 A 
ENDBRANCH  16  17
BRANCH  10  11
ATOM     11  O   UNL     1      46.946  15.471  16.205  0.00  0.00    -0.561 OA
ATOM     12  H   UNL     1      46.217  14.907  15.912  0.00  0.00    +0.381 HD
ENDBRANCH  10  11
BRANCH   4   3
ATOM      3  O   UNL     1      51.188  13.755  20.243  0.00  0.00    -0.354 OA
BRANCH   3   2
ATOM      1  C   UNL     1      53.549  13.801  19.524  0.00  0.00    +0.155 C 
ATOM      2  C   UNL     1      52.438  13.297  20.408  0.00  0.00    +0.457 C 
ATOM     38  O   UNL     1      52.673  12.479  21.267  0.00  0.00    -0.499 OA
ENDBRANCH   3   2
ENDBRANCH   4   3
TORSDOF 4
ENDMDL
MODEL 4
REMARK VINA RESULT:      -6.4      1.846      6.820
REMARK  Name = ZINC95486179
REMARK  10 active torsions:
REMARK  status: ('A' for Active; 'I' for Inactive)
REMARK    1  A    between atoms: C1_1  and  C2_2
REMARK    2  A    between atoms: C2_2  and  O2_4
REMARK    3  A    between atoms: O2_4  and  C3_5
REMARK    4  A    between atoms: C6_10  and  C28_43
REMARK    5  A    between atoms: C10_16  and  C11_17
REMARK    6  A    between atoms: C10_16  and  C12_18
REMARK    7  A    between atoms: C14_21  and  C27_42
REMARK    8  A    between atoms: C18_29  and  C23_37
REMARK    9  A    between atoms: C19_31  and  C22_36
REMARK   10  A    between atoms: C21_33  and  O8_35
REMARK                            x       y       z     vdW  Elec       q    Type
REMARK                         _______ _______ _______ _____ _____    ______ ____
ROOT
ATOM      4  C   UNL     1      49.855  19.291  19.555  0.00  0.00    +0.200 C 
ATOM      5  C   UNL     1      50.993  18.328  19.245  0.00  0.00    +0.045 C 
ATOM      6  C   UNL     1      50.512  16.925  18.893  0.00  0.00    -0.004 C 
ATOM      7  C   UNL     1      49.640  16.381  19.996  0.00  0.00    -0.010 C 
ATOM      8  C   UNL     1      50.591  16.177  21.194  0.00  0.00    +0.040 C 
ATOM      9  C   UNL     1      48.529  17.331  20.401  0.00  0.00    +0.028 C 
ATOM     10  C   UNL     1      47.665  16.780  21.524  0.00  0.00    +0.190 C 
ATOM     13  C   UNL     1      46.696  17.805  22.089  0.00  0.00    +0.033 C 
ATOM     14  C   UNL     1      46.389  18.954  21.141  0.00  0.00    -0.056 C 
ATOM     15  C   UNL     1      45.637  18.401  19.921  0.00  0.00    +0.064 C 
ATOM     16  C   UNL     1      45.398  19.898  21.817  0.00  0.00    +0.323 C 
ATOM     22  O   UNL     1      46.021  20.974  22.505  0.00  0.00    -0.343 OA
ATOM     23  C   UNL     1      46.764  21.801  21.735  0.00  0.00    +0.505 C 
ATOM     24  O   UNL     1      46.568  22.990  21.691  0.00  0.00    -0.413 OA
ATOM     25  C   UNL     1      47.864  21.128  20.940  0.00  0.00    +0.107 C 
ATOM     26  O   UNL     1      47.546  20.632  19.643  0.00  0.00    -0.295 OA
ATOM     27  C   UNL     1      47.656  19.635  20.660  0.00  0.00    +0.058 C 
ATOM     28  C   UNL     1      49.092  15.010  19.799  0.00  0.00    +0.082 C 
ATOM     29  C   UNL     1      48.735  14.336  18.774  0.00  0.00    -0.085 C 
ATOM     30  C   UNL     1      48.894  14.689  17.361  0.00  0.00    +0.536 C 
ATOM     31  O   UNL     1      49.967  15.416  17.035  0.00  0.00    -0.383 OA
ATOM     32  O   UNL     1      48.117  14.299  16.522  0.00  0.00    -0.448 OA
ATOM     33  C   UNL     1      50.097  16.756  17.472  0.00  0.00    +0.163 C 
ATOM     34  C   UNL     1      51.172  17.363  16.548  0.00  0.00    +0.073 C 
ATOM     35  C   UNL     1      48.783  17.470  17.163  0.00  0.00    +0.021 C 
ATOM     36  C   UNL     1      48.937  18.769  20.658  0.00  0.00    -0.001 C 
ATOM     37  C   UNL     1      49.615  18.963  22.019  0.00  0.00    +0.070 C 
ENDROOT
BRANCH  16  17
ATOM     17  C   UNL     1      44.463  20.444  20.769  0.00  0.00    -0.222 A 
ATOM     18  C   UNL     1      44.576  21.687  20.106  0.00  0.00    -0.041 A 
ATOM     19  C   UNL     1      43.537  21.770  19.254  0.00  0.00    +0.175 A 
ATOM     20  O   UNL     1      42.806  20.649  19.366  0.00  0.00    -0.166 OA
ATOM     21  C   UNL     1      43.367  19.838  20.279  0.00  0.00    +0.175 A 
ENDBRANCH  16  17
BRANCH  10  11
ATOM     11  O   UNL     1      46.899  15.673  21.032  0.00  0.00    -0.561 OA
ATOM     12  H   UNL     1      47.388  15.092  20.434  0.00  0.00    +0.381 HD
ENDBRANCH  10  11
BRANCH   4   3
ATOM      3  O   UNL     1      50.445  20.529  19.990  0.00  0.00    -0.354 OA
BRANCH   3   2
ATOM      1  C   UNL     1      50.966  21.250  17.687  0.00  0.00    +0.155 C 
ATOM      2  C   UNL     1      51.307  21.122  19.149  0.00  0.00    +0.457 C 
ATOM     38  O   UNL     1      52.357  21.553  19.565  0.00  0.00    -0.499 OA
ENDBRANCH   3   2
ENDBRANCH   4   3
TORSDOF 4
ENDMDL
MODEL 5
REMARK VINA RESULT:      -6.3      2.480      5.998
REMARK  Name = ZINC95486179
REMARK  10 active torsions:
REMARK  status: ('A' for Active; 'I' for Inactive)
REMARK    1  A    between atoms: C1_1  and  C2_2
REMARK    2  A    between atoms: C2_2  and  O2_4
REMARK    3  A    between atoms: O2_4  and  C3_5
REMARK    4  A    between atoms: C6_10  and  C28_43
REMARK    5  A    between atoms: C10_16  and  C11_17
REMARK    6  A    between atoms: C10_16  and  C12_18
REMARK    7  A    between atoms: C14_21  and  C27_42
REMARK    8  A    between atoms: C18_29  and  C23_37
REMARK    9  A    between atoms: C19_31  and  C22_36
REMARK   10  A    between atoms: C21_33  and  O8_35
REMARK                            x       y       z     vdW  Elec       q    Type
REMARK                         _______ _______ _______ _____ _____    ______ ____
ROOT
ATOM      4  C   UNL     1      47.343  17.224  19.754  0.00  0.00    +0.200 C 
ATOM      5  C   UNL     1      47.856  18.397  20.578  0.00  0.00    +0.045 C 
ATOM      6  C   UNL     1      49.364  18.592  20.472  0.00  0.00    -0.004 C 
ATOM      7  C   UNL     1      50.082  17.321  20.849  0.00  0.00    -0.010 C 
ATOM      8  C   UNL     1      49.819  17.148  22.359  0.00  0.00    +0.040 C 
ATOM      9  C   UNL     1      49.563  16.101  20.112  0.00  0.00    +0.028 C 
ATOM     10  C   UNL     1      50.283  14.824  20.511  0.00  0.00    +0.190 C 
ATOM     13  C   UNL     1      49.628  13.571  19.953  0.00  0.00    +0.033 C 
ATOM     14  C   UNL     1      48.759  13.820  18.730  0.00  0.00    -0.056 C 
ATOM     15  C   UNL     1      49.655  14.288  17.574  0.00  0.00    +0.064 C 
ATOM     16  C   UNL     1      48.177  12.489  18.261  0.00  0.00    +0.323 C 
ATOM     22  O   UNL     1      46.892  12.212  18.798  0.00  0.00    -0.343 OA
ATOM     23  C   UNL     1      45.927  13.104  18.478  0.00  0.00    +0.505 C 
ATOM     24  O   UNL     1      44.897  12.776  17.943  0.00  0.00    -0.413 OA
ATOM     25  C   UNL     1      46.228  14.542  18.849  0.00  0.00    +0.107 C 
ATOM     26  O   UNL     1      46.922  15.347  17.900  0.00  0.00    -0.295 OA
ATOM     27  C   UNL     1      47.714  14.887  18.996  0.00  0.00    +0.058 C 
ATOM     28  C   UNL     1      51.571  17.354  20.796  0.00  0.00    +0.082 C 
ATOM     29  C   UNL     1      52.418  17.973  20.067  0.00  0.00    -0.085 C 
ATOM     30  C   UNL     1      52.163  19.021  19.075  0.00  0.00    +0.536 C 
ATOM     31  O   UNL     1      51.131  19.838  19.309  0.00  0.00    -0.383 OA
ATOM     32  O   UNL     1      52.882  19.169  18.116  0.00  0.00    -0.448 OA
ATOM     33  C   UNL     1      49.800  19.358  19.270  0.00  0.00    +0.163 C 
ATOM     34  C   UNL     1      48.934  20.625  19.126  0.00  0.00    +0.073 C 
ATOM     35  C   UNL     1      49.638  18.555  17.980  0.00  0.00    +0.021 C 
ATOM     36  C   UNL     1      48.058  15.919  20.096  0.00  0.00    -0.001 C 
ATOM     37  C   UNL     1      47.509  15.368  21.416  0.00  0.00    +0.070 C 
ENDROOT
BRANCH  16  17
ATOM     17  C   UNL     1      48.104  12.501  16.756  0.00  0.00    -0.222 A 
ATOM     18  C   UNL     1      48.388  11.420  15.890  0.00  0.00    -0.041 A 
ATOM     19  C   UNL     1      48.194  11.865  14.635  0.00  0.00    +0.175 A 
ATOM     20  O   UNL     1      47.811  13.150  14.695  0.00  0.00    -0.166 OA
ATOM     21  C   UNL     1      47.748  13.540  15.979  0.00  0.00    +0.175 A 
ENDBRANCH  16  17
BRANCH  10  11
ATOM     11  O   UNL     1      51.631  14.869  20.028  0.00  0.00    -0.561 OA
ATOM     12  H   UNL     1      52.294  14.637  20.693  0.00  0.00    +0.381 HD
ENDBRANCH  10  11
BRANCH   4   3
ATOM      3  O   UNL     1      45.941  17.075  20.043  0.00  0.00    -0.354 OA
BRANCH   3   2
ATOM      1  C   UNL     1      45.514  18.626  18.169  0.00  0.00    +0.155 C 
ATOM      2  C   UNL     1      45.101  17.932  19.442  0.00  0.00    +0.457 C 
ATOM     38  O   UNL     1      44.013  18.148  19.922  0.00  0.00    -0.499 OA
ENDBRANCH   3   2
ENDBRANCH   4   3
TORSDOF 4
ENDMDL
MODEL 6
REMARK VINA RESULT:      -6.2      2.307      5.329
REMARK  Name = ZINC95486179
REMARK  10 active torsions:
REMARK  status: ('A' for Active; 'I' for Inactive)
REMARK    1  A    between atoms: C1_1  and  C2_2
REMARK    2  A    between atoms: C2_2  and  O2_4
REMARK    3  A    between atoms: O2_4  and  C3_5
REMARK    4  A    between atoms: C6_10  and  C28_43
REMARK    5  A    between atoms: C10_16  and  C11_17
REMARK    6  A    between atoms: C10_16  and  C12_18
REMARK    7  A    between atoms: C14_21  and  C27_42
REMARK    8  A    between atoms: C18_29  and  C23_37
REMARK    9  A    between atoms: C19_31  and  C22_36
REMARK   10  A    between atoms: C21_33  and  O8_35
REMARK                            x       y       z     vdW  Elec       q    Type
REMARK                         _______ _______ _______ _____ _____    ______ ____
ROOT
ATOM      4  C   UNL     1      47.535  18.321  18.993  0.00  0.00    +0.200 C 
ATOM      5  C   UNL     1      46.105  17.930  18.650  0.00  0.00    +0.045 C 
ATOM      6  C   UNL     1      45.785  16.476  18.974  0.00  0.00    -0.004 C 
ATOM      7  C   UNL     1      46.766  15.560  18.288  0.00  0.00    -0.010 C 
ATOM      8  C   UNL     1      46.456  15.699  16.783  0.00  0.00    +0.040 C 
ATOM      9  C   UNL     1      48.213  15.945  18.534  0.00  0.00    +0.028 C 
ATOM     10  C   UNL     1      49.194  15.025  17.825  0.00  0.00    +0.190 C 
ATOM     13  C   UNL     1      50.627  15.527  17.877  0.00  0.00    +0.033 C 
ATOM     14  C   UNL     1      50.901  16.498  19.015  0.00  0.00    -0.056 C 
ATOM     15  C   UNL     1      50.744  15.755  20.349  0.00  0.00    +0.064 C 
ATOM     16  C   UNL     1      52.369  16.912  18.966  0.00  0.00    +0.323 C 
ATOM     22  O   UNL     1      52.596  18.108  18.235  0.00  0.00    -0.343 OA
ATOM     23  C   UNL     1      51.979  19.209  18.719  0.00  0.00    +0.505 C 
ATOM     24  O   UNL     1      52.582  20.213  19.006  0.00  0.00    -0.413 OA
ATOM     25  C   UNL     1      50.475  19.095  18.864  0.00  0.00    +0.107 C 
ATOM     26  O   UNL     1      49.958  18.585  20.090  0.00  0.00    -0.295 OA
ATOM     27  C   UNL     1      49.933  17.667  18.996  0.00  0.00    +0.058 C 
ATOM     28  C   UNL     1      46.583  14.098  18.508  0.00  0.00    +0.082 C 
ATOM     29  C   UNL     1      46.148  13.396  19.483  0.00  0.00    -0.085 C 
ATOM     30  C   UNL     1      45.527  13.861  20.726  0.00  0.00    +0.536 C 
ATOM     31  O   UNL     1      44.803  14.983  20.658  0.00  0.00    -0.383 OA
ATOM     32  O   UNL     1      45.625  13.234  21.753  0.00  0.00    -0.448 OA
ATOM     33  C   UNL     1      45.418  16.231  20.398  0.00  0.00    +0.163 C 
ATOM     34  C   UNL     1      44.378  17.277  20.848  0.00  0.00    +0.073 C 
ATOM     35  C   UNL     1      46.617  16.357  21.336  0.00  0.00    +0.021 C 
ATOM     36  C   UNL     1      48.562  17.406  18.329  0.00  0.00    -0.001 C 
ATOM     37  C   UNL     1      48.701  17.785  16.851  0.00  0.00    +0.070 C 
ENDROOT
BRANCH  16  17
ATOM     17  C   UNL     1      52.867  17.082  20.378  0.00  0.00    -0.222 A 
ATOM     18  C   UNL     1      52.271  17.868  21.392  0.00  0.00    -0.041 A 
ATOM     19  C   UNL     1      53.038  17.733  22.490  0.00  0.00    +0.175 A 
ATOM     20  O   UNL     1      54.059  16.913  22.196  0.00  0.00    -0.166 OA
ATOM     21  C   UNL     1      53.957  16.509  20.919  0.00  0.00    +0.175 A 
ENDBRANCH  16  17
BRANCH  10  11
ATOM     11  O   UNL     1      49.157  13.730  18.438  0.00  0.00    -0.561 OA
ATOM     12  H   UNL     1      50.021  13.300  18.500  0.00  0.00    +0.381 HD
ENDBRANCH  10  11
BRANCH   4   3
ATOM      3  O   UNL     1      47.740  19.666  18.524  0.00  0.00    -0.354 OA
BRANCH   3   2
ATOM      1  C   UNL     1      47.285  20.941  20.588  0.00  0.00    +0.155 C 
ATOM      2  C   UNL     1      47.041  20.636  19.133  0.00  0.00    +0.457 C 
ATOM     38  O   UNL     1      46.215  21.266  18.513  0.00  0.00    -0.499 OA
ENDBRANCH   3   2
ENDBRANCH   4   3
TORSDOF 4
ENDMDL
MODEL 7
REMARK VINA RESULT:      -6.1      2.998      5.606
REMARK  Name = ZINC95486179
REMARK  10 active torsions:
REMARK  status: ('A' for Active; 'I' for Inactive)
REMARK    1  A    between atoms: C1_1  and  C2_2
REMARK    2  A    between atoms: C2_2  and  O2_4
REMARK    3  A    between atoms: O2_4  and  C3_5
REMARK    4  A    between atoms: C6_10  and  C28_43
REMARK    5  A    between atoms: C10_16  and  C11_17
REMARK    6  A    between atoms: C10_16  and  C12_18
REMARK    7  A    between atoms: C14_21  and  C27_42
REMARK    8  A    between atoms: C18_29  and  C23_37
REMARK    9  A    between atoms: C19_31  and  C22_36
REMARK   10  A    between atoms: C21_33  and  O8_35
REMARK                            x       y       z     vdW  Elec       q    Type
REMARK                         _______ _______ _______ _____ _____    ______ ____
ROOT
ATOM      4  C   UNL     1      48.451  16.150  19.274  0.00  0.00    +0.200 C 
ATOM      5  C   UNL     1      48.460  17.345  20.217  0.00  0.00    +0.045 C 
ATOM      6  C   UNL     1      49.605  18.314  19.947  0.00  0.00    -0.004 C 
ATOM      7  C   UNL     1      50.925  17.588  19.996  0.00  0.00    -0.010 C 
ATOM      8  C   UNL     1      51.102  17.180  21.473  0.00  0.00    +0.040 C 
ATOM      9  C   UNL     1      50.952  16.342  19.130  0.00  0.00    +0.028 C 
ATOM     10  C   UNL     1      52.282  15.609  19.198  0.00  0.00    +0.190 C 
ATOM     13  C   UNL     1      52.250  14.250  18.520  0.00  0.00    +0.033 C 
ATOM     14  C   UNL     1      51.144  14.102  17.486  0.00  0.00    -0.056 C 
ATOM     15  C   UNL     1      51.422  15.064  16.322  0.00  0.00    +0.064 C 
ATOM     16  C   UNL     1      51.230  12.707  16.870  0.00  0.00    +0.323 C 
ATOM     22  O   UNL     1      50.400  11.752  17.515  0.00  0.00    -0.343 OA
ATOM     23  C   UNL     1      49.075  12.023  17.489  0.00  0.00    +0.505 C 
ATOM     24  O   UNL     1      48.267  11.246  17.045  0.00  0.00    -0.413 OA
ATOM     25  C   UNL     1      48.680  13.367  18.065  0.00  0.00    +0.107 C 
ATOM     26  O   UNL     1      48.663  14.492  17.189  0.00  0.00    -0.295 OA
ATOM     27  C   UNL     1      49.784  14.431  18.072  0.00  0.00    +0.058 C 
ATOM     28  C   UNL     1      52.147  18.405  19.752  0.00  0.00    +0.082 C 
ATOM     29  C   UNL     1      52.397  19.435  19.039  0.00  0.00    -0.085 C 
ATOM     30  C   UNL     1      51.451  20.267  18.290  0.00  0.00    +0.536 C 
ATOM     31  O   UNL     1      50.221  20.395  18.799  0.00  0.00    -0.383 OA
ATOM     32  O   UNL     1      51.783  20.850  17.286  0.00  0.00    -0.448 OA
ATOM     33  C   UNL     1      49.339  19.290  18.853  0.00  0.00    +0.163 C 
ATOM     34  C   UNL     1      47.944  19.917  19.051  0.00  0.00    +0.073 C 
ATOM     35  C   UNL     1      49.343  18.631  17.474  0.00  0.00    +0.021 C 
ATOM     36  C   UNL     1      49.778  15.395  19.281  0.00  0.00    -0.001 C 
ATOM     37  C   UNL     1      49.866  14.532  20.545  0.00  0.00    +0.070 C 
ENDROOT
BRANCH  16  17
ATOM     17  C   UNL     1      50.853  12.802  15.415  0.00  0.00    -0.222 A 
ATOM     18  C   UNL     1      51.742  12.877  14.318  0.00  0.00    -0.041 A 
ATOM     19  C   UNL     1      50.986  12.945  13.207  0.00  0.00    +0.175 A 
ATOM     20  O   UNL     1      49.694  12.916  13.571  0.00  0.00    -0.166 OA
ATOM     21  C   UNL     1      49.607  12.822  14.909  0.00  0.00    +0.175 A 
ENDBRANCH  16  17
BRANCH  10  11
ATOM     11  O   UNL     1      53.292  16.398  18.557  0.00  0.00    -0.561 OA
ATOM     12  H   UNL     1      53.759  16.999  19.154  0.00  0.00    +0.381 HD
ENDBRANCH  10  11
BRANCH   4   3
ATOM      3  O   UNL     1      47.409  15.261  19.714  0.00  0.00    -0.354 OA
BRANCH   3   2
ATOM      1  C   UNL     1      45.069  15.493  20.468  0.00  0.00    +0.155 C 
ATOM      2  C   UNL     1      46.146  15.609  19.421  0.00  0.00    +0.457 C 
ATOM     38  O   UNL     1      45.873  16.016  18.316  0.00  0.00    -0.499 OA
ENDBRANCH   3   2
ENDBRANCH   4   3
TORSDOF 4
ENDMDL
MODEL 8
REMARK VINA RESULT:      -6.0      2.265      7.133
REMARK  Name = ZINC95486179
REMARK  10 active torsions:
REMARK  status: ('A' for Active; 'I' for Inactive)
REMARK    1  A    between atoms: C1_1  and  C2_2
REMARK    2  A    between atoms: C2_2  and  O2_4
REMARK    3  A    between atoms: O2_4  and  C3_5
REMARK    4  A    between atoms: C6_10  and  C28_43
REMARK    5  A    between atoms: C10_16  and  C11_17
REMARK    6  A    between atoms: C10_16  and  C12_18
REMARK    7  A    between atoms: C14_21  and  C27_42
REMARK    8  A    between atoms: C18_29  and  C23_37
REMARK    9  A    between atoms: C19_31  and  C22_36
REMARK   10  A    between atoms: C21_33  and  O8_35
REMARK                            x       y       z     vdW  Elec       q    Type
REMARK                         _______ _______ _______ _____ _____    ______ ____
ROOT
ATOM      4  C   UNL     1      49.017  17.361  19.812  0.00  0.00    +0.200 C 
ATOM      5  C   UNL     1      50.059  16.278  19.572  0.00  0.00    +0.045 C 
ATOM      6  C   UNL     1      49.452  14.938  19.173  0.00  0.00    -0.004 C 
ATOM      7  C   UNL     1      48.448  14.492  20.207  0.00  0.00    -0.010 C 
ATOM      8  C   UNL     1      49.284  14.180  21.466  0.00  0.00    +0.040 C 
ATOM      9  C   UNL     1      47.424  15.560  20.543  0.00  0.00    +0.028 C 
ATOM     10  C   UNL     1      46.428  15.106  21.597  0.00  0.00    +0.190 C 
ATOM     13  C   UNL     1      45.542  16.231  22.104  0.00  0.00    +0.033 C 
ATOM     14  C   UNL     1      45.431  17.410  21.149  0.00  0.00    -0.056 C 
ATOM     15  C   UNL     1      44.711  16.947  19.874  0.00  0.00    +0.064 C 
ATOM     16  C   UNL     1      44.507  18.457  21.764  0.00  0.00    +0.323 C 
ATOM     22  O   UNL     1      45.195  19.454  22.504  0.00  0.00    -0.343 OA
ATOM     23  C   UNL     1      46.078  20.195  21.797  0.00  0.00    +0.505 C 
ATOM     24  O   UNL     1      46.020  21.399  21.752  0.00  0.00    -0.413 OA
ATOM     25  C   UNL     1      47.150  19.406  21.074  0.00  0.00    +0.107 C 
ATOM     26  O   UNL     1      46.870  18.951  19.753  0.00  0.00    -0.295 OA
ATOM     27  C   UNL     1      46.797  17.946  20.765  0.00  0.00    +0.058 C 
ATOM     28  C   UNL     1      47.766  13.191  19.958  0.00  0.00    +0.082 C 
ATOM     29  C   UNL     1      47.410  12.564  18.904  0.00  0.00    -0.085 C 
ATOM     30  C   UNL     1      47.706  12.900  17.509  0.00  0.00    +0.536 C 
ATOM     31  O   UNL     1      48.874  13.504  17.266  0.00  0.00    -0.383 OA
ATOM     32  O   UNL     1      46.952  12.602  16.614  0.00  0.00    -0.448 OA
ATOM     33  C   UNL     1      49.121  14.820  17.725  0.00  0.00    +0.163 C 
ATOM     34  C   UNL     1      50.319  15.305  16.884  0.00  0.00    +0.073 C 
ATOM     35  C   UNL     1      47.920  15.678  17.332  0.00  0.00    +0.021 C 
ATOM     36  C   UNL     1      47.971  16.942  20.842  0.00  0.00    -0.001 C 
ATOM     37  C   UNL     1      48.568  17.056  22.249  0.00  0.00    +0.070 C 
ENDROOT
BRANCH  16  17
ATOM     17  C   UNL     1      43.715  19.106  20.659  0.00  0.00    -0.222 A 
ATOM     18  C   UNL     1      44.232  19.657  19.464  0.00  0.00    -0.041 A 
ATOM     19  C   UNL     1      43.182  20.125  18.765  0.00  0.00    +0.175 A 
ATOM     20  O   UNL     1      42.064  19.889  19.470  0.00  0.00    -0.166 OA
ATOM     21  C   UNL     1      42.380  19.266  20.617  0.00  0.00    +0.175 A 
ENDBRANCH  16  17
BRANCH  10  11
ATOM     11  O   UNL     1      45.580  14.092  21.042  0.00  0.00    -0.561 OA
ATOM     12  H   UNL     1      46.000  13.565  20.348  0.00  0.00    +0.381 HD
ENDBRANCH  10  11
BRANCH   4   3
ATOM      3  O   UNL     1      49.709  18.525  20.300  0.00  0.00    -0.354 OA
BRANCH   3   2
ATOM      1  C   UNL     1      51.904  19.458  19.663  0.00  0.00    +0.155 C 
ATOM      2  C   UNL     1      50.438  19.217  19.411  0.00  0.00    +0.457 C 
ATOM     38  O   UNL     1      49.918  19.649  18.408  0.00  0.00    -0.499 OA
ENDBRANCH   3   2
ENDBRANCH   4   3
TORSDOF 4
ENDMDL
MODEL 9
REMARK VINA RESULT:      -5.5      2.980      7.682
REMARK  Name = ZINC95486179
REMARK  10 active torsions:
REMARK  status: ('A' for Active; 'I' for Inactive)
REMARK    1  A    between atoms: C1_1  and  C2_2
REMARK    2  A    between atoms: C2_2  and  O2_4
REMARK    3  A    between atoms: O2_4  and  C3_5
REMARK    4  A    between atoms: C6_10  and  C28_43
REMARK    5  A    between atoms: C10_16  and  C11_17
REMARK    6  A    between atoms: C10_16  and  C12_18
REMARK    7  A    between atoms: C14_21  and  C27_42
REMARK    8  A    between atoms: C18_29  and  C23_37
REMARK    9  A    between atoms: C19_31  and  C22_36
REMARK   10  A    between atoms: C21_33  and  O8_35
REMARK                            x       y       z     vdW  Elec       q    Type
REMARK                         _______ _______ _______ _____ _____    ______ ____
ROOT
ATOM      4  C   UNL     1      49.770  14.793  19.695  0.00  0.00    +0.200 C 
ATOM      5  C   UNL     1      50.521  13.513  19.355  0.00  0.00    +0.045 C 
ATOM      6  C   UNL     1      49.797  12.646  18.332  0.00  0.00    -0.004 C 
ATOM      7  C   UNL     1      48.401  12.333  18.807  0.00  0.00    -0.010 C 
ATOM      8  C   UNL     1      48.593  11.412  20.030  0.00  0.00    +0.040 C 
ATOM      9  C   UNL     1      47.626  13.566  19.232  0.00  0.00    +0.028 C 
ATOM     10  C   UNL     1      46.226  13.238  19.724  0.00  0.00    +0.190 C 
ATOM     13  C   UNL     1      45.523  14.427  20.358  0.00  0.00    +0.033 C 
ATOM     14  C   UNL     1      46.078  15.776  19.927  0.00  0.00    -0.056 C 
ATOM     15  C   UNL     1      45.803  15.968  18.429  0.00  0.00    +0.064 C 
ATOM     16  C   UNL     1      45.281  16.879  20.618  0.00  0.00    +0.323 C 
ATOM     22  O   UNL     1      45.862  17.319  21.836  0.00  0.00    -0.343 OA
ATOM     23  C   UNL     1      47.101  17.851  21.728  0.00  0.00    +0.505 C 
ATOM     24  O   UNL     1      47.365  18.958  22.127  0.00  0.00    -0.413 OA
ATOM     25  C   UNL     1      48.135  16.953  21.080  0.00  0.00    +0.107 C 
ATOM     26  O   UNL     1      48.272  17.006  19.662  0.00  0.00    -0.295 OA
ATOM     27  C   UNL     1      47.575  15.862  20.159  0.00  0.00    +0.058 C 
ATOM     28  C   UNL     1      47.564  11.487  17.911  0.00  0.00    +0.082 C 
ATOM     29  C   UNL     1      47.489  11.341  16.644  0.00  0.00    -0.085 C 
ATOM     30  C   UNL     1      48.364  11.910  15.616  0.00  0.00    +0.536 C 
ATOM     31  O   UNL     1      49.648  12.091  15.945  0.00  0.00    -0.383 OA
ATOM     32  O   UNL     1      47.956  12.158  14.507  0.00  0.00    -0.448 OA
ATOM     33  C   UNL     1      50.021  13.051  16.915  0.00  0.00    +0.163 C 
ATOM     34  C   UNL     1      51.528  13.277  16.677  0.00  0.00    +0.073 C 
ATOM     35  C   UNL     1      49.311  14.358  16.566  0.00  0.00    +0.021 C 
ATOM     36  C   UNL     1      48.343  14.520  20.166  0.00  0.00    -0.001 C 
ATOM     37  C   UNL     1      48.372  14.026  21.617  0.00  0.00    +0.070 C 
ENDROOT
BRANCH  16  17
ATOM     17  C   UNL     1      45.153  18.043  19.670  0.00  0.00    -0.222 A 
ATOM     18  C   UNL     1      44.231  19.111  19.767  0.00  0.00    -0.041 A 
ATOM     19  C   UNL     1      44.465  19.924  18.721  0.00  0.00    +0.175 A 
ATOM     20  O   UNL     1      45.473  19.408  18.000  0.00  0.00    -0.166 OA
ATOM     21  C   UNL     1      45.899  18.270  18.574  0.00  0.00    +0.175 A 
ENDBRANCH  16  17
BRANCH  10  11
ATOM     11  O   UNL     1      45.428  12.791  18.621  0.00  0.00    -0.561 OA
ATOM     12  H   UNL     1      44.477  12.906  18.751  0.00  0.00    +0.381 HD
ENDBRANCH  10  11
BRANCH   4   3
ATOM      3  O   UNL     1      50.491  15.448  20.754  0.00  0.00    -0.354 OA
BRANCH   3   2
ATOM      1  C   UNL     1      51.769  16.928  19.246  0.00  0.00    +0.155 C 
ATOM      2  C   UNL     1      51.669  16.005  20.434  0.00  0.00    +0.457 C 
ATOM     38  O   UNL     1      52.651  15.767  21.098  0.00  0.00    -0.499 OA
ENDBRANCH   3   2
ENDBRANCH   4   3
TORSDOF 4
ENDMDL
