MODEL 1
REMARK VINA RESULT:      -4.9      0.000      0.000
REMARK  Name = ZINC06019276
REMARK  4 active torsions:
REMARK  status: ('A' for Active; 'I' for Inactive)
REMARK    1  A    between atoms: C1_1  and  C2_2
REMARK    2  A    between atoms: C5_6  and  C15_20
REMARK    3  A    between atoms: C11_13  and  C14_18
REMARK    4  A    between atoms: C12_14  and  C13_16
REMARK                            x       y       z     vdW  Elec       q    Type
REMARK                         _______ _______ _______ _____ _____    ______ ____
ROOT
ATOM      1  C   UNL     1      58.652  32.636   4.091  0.00  0.00    +0.025 C 
ATOM      2  C   UNL     1      57.293  32.444   4.768  0.00  0.00    +0.021 C 
ATOM      3  C   UNL     1      56.967  33.667   5.630  0.00  0.00    +0.026 C 
ATOM      4  C   UNL     1      55.552  33.527   6.194  0.00  0.00    +0.019 C 
ATOM      5  C   UNL     1      54.533  33.525   5.055  0.00  0.00    -0.039 C 
ATOM      6  C   UNL     1      54.657  34.806   4.227  0.00  0.00    +0.038 C 
ATOM      7  C   UNL     1      54.770  32.303   4.156  0.00  0.00    +0.046 C 
ATOM      8  C   UNL     1      53.871  32.434   2.923  0.00  0.00    +0.085 C 
ATOM      9  C   UNL     1      52.460  32.722   3.343  0.00  0.00    +0.076 C 
ATOM     10  C   UNL     1      52.129  33.162   4.543  0.00  0.00    -0.216 C 
ATOM     13  C   UNL     1      53.121  33.423   5.639  0.00  0.00    +0.005 C 
ATOM     16  C   UNL     1      56.216  32.300   3.714  0.00  0.00    -0.107 C 
ATOM     17  C   UNL     1      56.530  32.178   2.449  0.00  0.00    +0.003 C 
ENDROOT
BRANCH  10  11
ATOM     11  C   UNL     1      50.713  33.410   4.821  0.00  0.00    +0.466 C 
ATOM     12  O   UNL     1      50.006  33.904   3.969  0.00  0.00    -0.450 OA
ENDBRANCH  10  11
BRANCH  13  14
ATOM     14  C   UNL     1      52.772  34.715   6.332  0.00  0.00    +0.447 C 
ATOM     15  O   UNL     1      52.476  34.710   7.503  0.00  0.00    -0.444 OA
ENDBRANCH  13  14
TORSDOF 2
ENDMDL
MODEL 2
REMARK VINA RESULT:      -4.8     21.639     22.962
REMARK  Name = ZINC06019276
REMARK  4 active torsions:
REMARK  status: ('A' for Active; 'I' for Inactive)
REMARK    1  A    between atoms: C1_1  and  C2_2
REMARK    2  A    between atoms: C5_6  and  C15_20
REMARK    3  A    between atoms: C11_13  and  C14_18
REMARK    4  A    between atoms: C12_14  and  C13_16
REMARK                            x       y       z     vdW  Elec       q    Type
REMARK                         _______ _______ _______ _____ _____    ______ ____
ROOT
ATOM      1  C   UNL     1      48.756  20.746  19.808  0.00  0.00    +0.025 C 
ATOM      2  C   UNL     1      47.280  21.023  20.104  0.00  0.00    +0.021 C 
ATOM      3  C   UNL     1      46.505  21.153  18.789  0.00  0.00    +0.026 C 
ATOM      4  C   UNL     1      45.013  21.294  19.093  0.00  0.00    +0.019 C 
ATOM      5  C   UNL     1      44.494  20.026  19.770  0.00  0.00    -0.039 C 
ATOM      6  C   UNL     1      44.749  18.805  18.882  0.00  0.00    +0.038 C 
ATOM      7  C   UNL     1      45.201  19.839  21.120  0.00  0.00    +0.046 C 
ATOM      8  C   UNL     1      44.811  18.468  21.680  0.00  0.00    +0.085 C 
ATOM      9  C   UNL     1      43.319  18.306  21.650  0.00  0.00    +0.076 C 
ATOM     10  C   UNL     1      42.516  19.056  20.918  0.00  0.00    -0.216 C 
ATOM     13  C   UNL     1      42.992  20.169  20.031  0.00  0.00    +0.005 C 
ATOM     16  C   UNL     1      46.695  19.872  20.893  0.00  0.00    -0.107 C 
ATOM     17  C   UNL     1      47.466  18.925  21.367  0.00  0.00    +0.003 C 
ENDROOT
BRANCH  10  11
ATOM     11  C   UNL     1      41.078  18.787  20.976  0.00  0.00    +0.466 C 
ATOM     12  O   UNL     1      40.365  19.457  21.692  0.00  0.00    -0.450 OA
ENDBRANCH  10  11
BRANCH  13  14
ATOM     14  C   UNL     1      42.249  20.117  18.722  0.00  0.00    +0.447 C 
ATOM     15  O   UNL     1      41.552  21.045  18.386  0.00  0.00    -0.444 OA
ENDBRANCH  13  14
TORSDOF 2
ENDMDL
MODEL 3
REMARK VINA RESULT:      -4.7      2.803      5.569
REMARK  Name = ZINC06019276
REMARK  4 active torsions:
REMARK  status: ('A' for Active; 'I' for Inactive)
REMARK    1  A    between atoms: C1_1  and  C2_2
REMARK    2  A    between atoms: C5_6  and  C15_20
REMARK    3  A    between atoms: C11_13  and  C14_18
REMARK    4  A    between atoms: C12_14  and  C13_16
REMARK                            x       y       z     vdW  Elec       q    Type
REMARK                         _______ _______ _______ _____ _____    ______ ____
ROOT
ATOM      1  C   UNL     1      51.090  33.596   5.682  0.00  0.00    +0.025 C 
ATOM      2  C   UNL     1      52.303  32.744   5.301  0.00  0.00    +0.021 C 
ATOM      3  C   UNL     1      52.480  32.749   3.780  0.00  0.00    +0.026 C 
ATOM      4  C   UNL     1      53.769  32.009   3.418  0.00  0.00    +0.019 C 
ATOM      5  C   UNL     1      54.976  32.750   3.990  0.00  0.00    -0.039 C 
ATOM      6  C   UNL     1      55.017  34.188   3.465  0.00  0.00    +0.038 C 
ATOM      7  C   UNL     1      54.893  32.762   5.524  0.00  0.00    +0.046 C 
ATOM      8  C   UNL     1      56.001  33.675   6.057  0.00  0.00    +0.085 C 
ATOM      9  C   UNL     1      57.316  33.304   5.437  0.00  0.00    +0.076 C 
ATOM     10  C   UNL     1      57.430  32.574   4.343  0.00  0.00    -0.216 C 
ATOM     13  C   UNL     1      56.259  32.018   3.586  0.00  0.00    +0.005 C 
ATOM     16  C   UNL     1      53.550  33.325   5.931  0.00  0.00    -0.107 C 
ATOM     17  C   UNL     1      53.468  34.295   6.807  0.00  0.00    +0.003 C 
ENDROOT
BRANCH  10  11
ATOM     11  C   UNL     1      58.774  32.291   3.839  0.00  0.00    +0.466 C 
ATOM     12  O   UNL     1      59.261  31.191   3.995  0.00  0.00    -0.450 OA
ENDBRANCH  10  11
BRANCH  13  14
ATOM     14  C   UNL     1      56.491  32.193   2.108  0.00  0.00    +0.447 C 
ATOM     15  O   UNL     1      56.491  31.230   1.378  0.00  0.00    -0.444 OA
ENDBRANCH  13  14
TORSDOF 2
ENDMDL
MODEL 4
REMARK VINA RESULT:      -4.6     22.743     24.483
REMARK  Name = ZINC06019276
REMARK  4 active torsions:
REMARK  status: ('A' for Active; 'I' for Inactive)
REMARK    1  A    between atoms: C1_1  and  C2_2
REMARK    2  A    between atoms: C5_6  and  C15_20
REMARK    3  A    between atoms: C11_13  and  C14_18
REMARK    4  A    between atoms: C12_14  and  C13_16
REMARK                            x       y       z     vdW  Elec       q    Type
REMARK                         _______ _______ _______ _____ _____    ______ ____
ROOT
ATOM      1  C   UNL     1      40.411  21.020  19.194  0.00  0.00    +0.025 C 
ATOM      2  C   UNL     1      41.619  20.082  19.137  0.00  0.00    +0.021 C 
ATOM      3  C   UNL     1      42.910  20.905  19.096  0.00  0.00    +0.026 C 
ATOM      4  C   UNL     1      44.113  19.963  19.175  0.00  0.00    +0.019 C 
ATOM      5  C   UNL     1      44.116  19.230  20.516  0.00  0.00    -0.039 C 
ATOM      6  C   UNL     1      44.142  20.233  21.672  0.00  0.00    +0.038 C 
ATOM      7  C   UNL     1      42.862  18.350  20.623  0.00  0.00    +0.046 C 
ATOM      8  C   UNL     1      42.793  17.786  22.045  0.00  0.00    +0.085 C 
ATOM      9  C   UNL     1      44.108  17.168  22.419  0.00  0.00    +0.076 C 
ATOM     10  C   UNL     1      45.238  17.407  21.779  0.00  0.00    -0.216 C 
ATOM     13  C   UNL     1      45.347  18.322  20.593  0.00  0.00    +0.005 C 
ATOM     16  C   UNL     1      41.645  19.210  20.372  0.00  0.00    -0.107 C 
ATOM     17  C   UNL     1      40.636  19.202  21.207  0.00  0.00    +0.003 C 
ENDROOT
BRANCH  10  11
ATOM     11  C   UNL     1      46.453  16.742  22.251  0.00  0.00    +0.466 C 
ATOM     12  O   UNL     1      46.886  15.778  21.658  0.00  0.00    -0.450 OA
ENDBRANCH  10  11
BRANCH  13  14
ATOM     14  C   UNL     1      46.586  19.168  20.729  0.00  0.00    +0.447 C 
ATOM     15  O   UNL     1      47.443  19.123  19.879  0.00  0.00    -0.444 OA
ENDBRANCH  13  14
TORSDOF 2
ENDMDL
MODEL 5
REMARK VINA RESULT:      -4.5     22.299     23.717
REMARK  Name = ZINC06019276
REMARK  4 active torsions:
REMARK  status: ('A' for Active; 'I' for Inactive)
REMARK    1  A    between atoms: C1_1  and  C2_2
REMARK    2  A    between atoms: C5_6  and  C15_20
REMARK    3  A    between atoms: C11_13  and  C14_18
REMARK    4  A    between atoms: C12_14  and  C13_16
REMARK                            x       y       z     vdW  Elec       q    Type
REMARK                         _______ _______ _______ _____ _____    ______ ____
ROOT
ATOM      1  C   UNL     1      44.388  22.082  20.158  0.00  0.00    +0.025 C 
ATOM      2  C   UNL     1      44.395  20.742  19.420  0.00  0.00    +0.021 C 
ATOM      3  C   UNL     1      45.752  20.532  18.742  0.00  0.00    +0.026 C 
ATOM      4  C   UNL     1      45.797  19.135  18.122  0.00  0.00    +0.019 C 
ATOM      5  C   UNL     1      45.700  18.073  19.217  0.00  0.00    -0.039 C 
ATOM      6  C   UNL     1      46.832  18.248  20.232  0.00  0.00    +0.038 C 
ATOM      7  C   UNL     1      44.344  18.193  19.929  0.00  0.00    +0.046 C 
ATOM      8  C   UNL     1      44.354  17.256  21.140  0.00  0.00    +0.085 C 
ATOM      9  C   UNL     1      44.801  15.885  20.727  0.00  0.00    +0.076 C 
ATOM     10  C   UNL     1      45.437  15.631  19.597  0.00  0.00    -0.216 C 
ATOM     13  C   UNL     1      45.786  16.682  18.583  0.00  0.00    +0.005 C 
ATOM     16  C   UNL     1      44.173  19.617  20.407  0.00  0.00    -0.107 C 
ATOM     17  C   UNL     1      43.843  19.871  21.649  0.00  0.00    +0.003 C 
ENDROOT
BRANCH  10  11
ATOM     11  C   UNL     1      45.823  14.248  19.318  0.00  0.00    +0.466 C 
ATOM     12  O   UNL     1      45.043  13.345  19.536  0.00  0.00    -0.450 OA
ENDBRANCH  10  11
BRANCH  13  14
ATOM     14  C   UNL     1      47.187  16.446  18.082  0.00  0.00    +0.447 C 
ATOM     15  O   UNL     1      47.386  16.274  16.903  0.00  0.00    -0.444 OA
ENDBRANCH  13  14
TORSDOF 2
ENDMDL
MODEL 6
REMARK VINA RESULT:      -4.5     20.627     21.403
REMARK  Name = ZINC06019276
REMARK  4 active torsions:
REMARK  status: ('A' for Active; 'I' for Inactive)
REMARK    1  A    between atoms: C1_1  and  C2_2
REMARK    2  A    between atoms: C5_6  and  C15_20
REMARK    3  A    between atoms: C11_13  and  C14_18
REMARK    4  A    between atoms: C12_14  and  C13_16
REMARK                            x       y       z     vdW  Elec       q    Type
REMARK                         _______ _______ _______ _____ _____    ______ ____
ROOT
ATOM      1  C   UNL     1      49.700  17.105  18.324  0.00  0.00    +0.025 C 
ATOM      2  C   UNL     1      48.635  18.166  18.037  0.00  0.00    +0.021 C 
ATOM      3  C   UNL     1      47.243  17.531  18.103  0.00  0.00    +0.026 C 
ATOM      4  C   UNL     1      46.181  18.621  17.949  0.00  0.00    +0.019 C 
ATOM      5  C   UNL     1      46.261  19.597  19.122  0.00  0.00    -0.039 C 
ATOM      6  C   UNL     1      46.079  18.854  20.448  0.00  0.00    +0.038 C 
ATOM      7  C   UNL     1      47.623  20.306  19.109  0.00  0.00    +0.046 C 
ATOM      8  C   UNL     1      47.750  21.124  20.397  0.00  0.00    +0.085 C 
ATOM      9  C   UNL     1      46.528  21.974  20.591  0.00  0.00    +0.076 C 
ATOM     10  C   UNL     1      45.385  21.766  19.963  0.00  0.00    -0.216 C 
ATOM     13  C   UNL     1      45.167  20.659  18.972  0.00  0.00    +0.005 C 
ATOM     16  C   UNL     1      48.713  19.259  19.079  0.00  0.00    -0.107 C 
ATOM     17  C   UNL     1      49.701  19.297  19.938  0.00  0.00    +0.003 C 
ENDROOT
BRANCH  10  11
ATOM     11  C   UNL     1      44.268  22.666  20.248  0.00  0.00    +0.466 C 
ATOM     12  O   UNL     1      43.948  23.511  19.439  0.00  0.00    -0.450 OA
ENDBRANCH  10  11
BRANCH  13  14
ATOM     14  C   UNL     1      43.821  20.028  19.217  0.00  0.00    +0.447 C 
ATOM     15  O   UNL     1      42.967  20.078  18.364  0.00  0.00    -0.444 OA
ENDBRANCH  13  14
TORSDOF 2
ENDMDL
MODEL 7
REMARK VINA RESULT:      -4.5      2.532      5.415
REMARK  Name = ZINC06019276
REMARK  4 active torsions:
REMARK  status: ('A' for Active; 'I' for Inactive)
REMARK    1  A    between atoms: C1_1  and  C2_2
REMARK    2  A    between atoms: C5_6  and  C15_20
REMARK    3  A    between atoms: C11_13  and  C14_18
REMARK    4  A    between atoms: C12_14  and  C13_16
REMARK                            x       y       z     vdW  Elec       q    Type
REMARK                         _______ _______ _______ _____ _____    ______ ____
ROOT
ATOM      1  C   UNL     1      49.968  33.413   3.909  0.00  0.00    +0.025 C 
ATOM      2  C   UNL     1      51.354  32.766   3.881  0.00  0.00    +0.021 C 
ATOM      3  C   UNL     1      52.118  33.235   2.640  0.00  0.00    +0.026 C 
ATOM      4  C   UNL     1      53.547  32.692   2.689  0.00  0.00    +0.019 C 
ATOM      5  C   UNL     1      54.288  33.276   3.891  0.00  0.00    -0.039 C 
ATOM      6  C   UNL     1      54.296  34.805   3.821  0.00  0.00    +0.038 C 
ATOM      7  C   UNL     1      53.601  32.823   5.188  0.00  0.00    +0.046 C 
ATOM      8  C   UNL     1      54.238  33.578   6.358  0.00  0.00    +0.085 C 
ATOM      9  C   UNL     1      55.733  33.466   6.289  0.00  0.00    +0.076 C 
ATOM     10  C   UNL     1      56.391  33.104   5.203  0.00  0.00    -0.216 C 
ATOM     13  C   UNL     1      55.726  32.753   3.903  0.00  0.00    +0.005 C 
ATOM     16  C   UNL     1      52.134  33.181   5.109  0.00  0.00    -0.107 C 
ATOM     17  C   UNL     1      51.552  33.838   6.081  0.00  0.00    +0.003 C 
ENDROOT
BRANCH  10  11
ATOM     11  C   UNL     1      57.852  33.041   5.270  0.00  0.00    +0.466 C 
ATOM     12  O   UNL     1      58.483  34.001   5.656  0.00  0.00    -0.450 OA
ENDBRANCH  10  11
BRANCH  13  14
ATOM     14  C   UNL     1      56.495  33.374   2.766  0.00  0.00    +0.447 C 
ATOM     15  O   UNL     1      56.966  32.674   1.902  0.00  0.00    -0.444 OA
ENDBRANCH  13  14
TORSDOF 2
ENDMDL
MODEL 8
REMARK VINA RESULT:      -4.4      2.556      4.980
REMARK  Name = ZINC06019276
REMARK  4 active torsions:
REMARK  status: ('A' for Active; 'I' for Inactive)
REMARK    1  A    between atoms: C1_1  and  C2_2
REMARK    2  A    between atoms: C5_6  and  C15_20
REMARK    3  A    between atoms: C11_13  and  C14_18
REMARK    4  A    between atoms: C12_14  and  C13_16
REMARK                            x       y       z     vdW  Elec       q    Type
REMARK                         _______ _______ _______ _____ _____    ______ ____
ROOT
ATOM      1  C   UNL     1      52.194  34.301   7.184  0.00  0.00    +0.025 C 
ATOM      2  C   UNL     1      52.272  33.316   6.016  0.00  0.00    +0.021 C 
ATOM      3  C   UNL     1      51.522  33.886   4.809  0.00  0.00    +0.026 C 
ATOM      4  C   UNL     1      51.717  32.960   3.608  0.00  0.00    +0.019 C 
ATOM      5  C   UNL     1      53.193  32.920   3.212  0.00  0.00    -0.039 C 
ATOM      6  C   UNL     1      53.697  34.329   2.893  0.00  0.00    +0.038 C 
ATOM      7  C   UNL     1      54.016  32.325   4.364  0.00  0.00    +0.046 C 
ATOM      8  C   UNL     1      55.501  32.479   4.021  0.00  0.00    +0.085 C 
ATOM      9  C   UNL     1      55.767  31.961   2.638  0.00  0.00    +0.076 C 
ATOM     10  C   UNL     1      54.822  31.760   1.737  0.00  0.00    -0.216 C 
ATOM     13  C   UNL     1      53.364  32.019   1.986  0.00  0.00    +0.005 C 
ATOM     16  C   UNL     1      53.717  33.102   5.625  0.00  0.00    -0.107 C 
ATOM     17  C   UNL     1      54.688  33.583   6.362  0.00  0.00    +0.003 C 
ENDROOT
BRANCH  10  11
ATOM     11  C   UNL     1      55.219  31.256   0.422  0.00  0.00    +0.466 C 
ATOM     12  O   UNL     1      56.233  31.664  -0.103  0.00  0.00    -0.450 OA
ENDBRANCH  10  11
BRANCH  13  14
ATOM     14  C   UNL     1      52.765  32.697   0.780  0.00  0.00    +0.447 C 
ATOM     15  O   UNL     1      51.814  32.204   0.222  0.00  0.00    -0.444 OA
ENDBRANCH  13  14
TORSDOF 2
ENDMDL
MODEL 9
REMARK VINA RESULT:      -4.4      2.226      3.844
REMARK  Name = ZINC06019276
REMARK  4 active torsions:
REMARK  status: ('A' for Active; 'I' for Inactive)
REMARK    1  A    between atoms: C1_1  and  C2_2
REMARK    2  A    between atoms: C5_6  and  C15_20
REMARK    3  A    between atoms: C11_13  and  C14_18
REMARK    4  A    between atoms: C12_14  and  C13_16
REMARK                            x       y       z     vdW  Elec       q    Type
REMARK                         _______ _______ _______ _____ _____    ______ ____
ROOT
ATOM      1  C   UNL     1      54.656  32.991   6.664  0.00  0.00    +0.025 C 
ATOM      2  C   UNL     1      53.397  32.697   5.844  0.00  0.00    +0.021 C 
ATOM      3  C   UNL     1      52.345  33.779   6.106  0.00  0.00    +0.026 C 
ATOM      4  C   UNL     1      51.146  33.554   5.184  0.00  0.00    +0.019 C 
ATOM      5  C   UNL     1      51.571  33.716   3.725  0.00  0.00    -0.039 C 
ATOM      6  C   UNL     1      52.171  35.105   3.496  0.00  0.00    +0.038 C 
ATOM      7  C   UNL     1      52.607  32.640   3.369  0.00  0.00    +0.046 C 
ATOM      8  C   UNL     1      53.156  32.947   1.972  0.00  0.00    +0.085 C 
ATOM      9  C   UNL     1      52.025  33.167   1.011  0.00  0.00    +0.076 C 
ATOM     10  C   UNL     1      50.785  33.425   1.385  0.00  0.00    -0.216 C 
ATOM     13  C   UNL     1      50.351  33.525   2.819  0.00  0.00    +0.005 C 
ATOM     16  C   UNL     1      53.737  32.706   4.370  0.00  0.00    -0.107 C 
ATOM     17  C   UNL     1      54.983  32.773   3.970  0.00  0.00    +0.003 C 
ENDROOT
BRANCH  10  11
ATOM     11  C   UNL     1      49.777  33.625   0.343  0.00  0.00    +0.466 C 
ATOM     12  O   UNL     1      49.835  32.986  -0.686  0.00  0.00    -0.450 OA
ENDBRANCH  10  11
BRANCH  13  14
ATOM     14  C   UNL     1      49.421  34.700   2.977  0.00  0.00    +0.447 C 
ATOM     15  O   UNL     1      48.295  34.528   3.381  0.00  0.00    -0.444 OA
ENDBRANCH  13  14
TORSDOF 2
ENDMDL
