MODEL 1
REMARK VINA RESULT:      -6.4      0.000      0.000
REMARK  Name = ZINC44607992
REMARK  13 active torsions:
REMARK  status: ('A' for Active; 'I' for Inactive)
REMARK    1  A    between atoms: C1_1  and  C2_2
REMARK    2  A    between atoms: C2_2  and  C3_3
REMARK    3  A    between atoms: C3_3  and  C4_5
REMARK    4  A    between atoms: C3_3  and  C27_35
REMARK    5  A    between atoms: C4_5  and  C5_6
REMARK    6  A    between atoms: C5_6  and  C6_7
REMARK    7  A    between atoms: C6_7  and  C7_9
REMARK    8  A    between atoms: C6_7  and  C8_10
REMARK    9  A    between atoms: C12_16  and  C26_34
REMARK   10  A    between atoms: C20_26  and  C25_33
REMARK   11  A    between atoms: C23_29  and  O1_32
REMARK   12  A    between atoms: C27_35  and  C28_36
REMARK   13  A    between atoms: C27_35  and  C29_37
REMARK                            x       y       z     vdW  Elec       q    Type
REMARK                         _______ _______ _______ _____ _____    ______ ____
ROOT
ATOM     10  C   UNL     1      48.247  18.455  19.857  0.00  0.00    -0.004 C 
ATOM     11  C   UNL     1      47.099  18.249  20.877  0.00  0.00    +0.006 C 
ATOM     12  C   UNL     1      46.613  16.785  20.699  0.00  0.00    +0.009 C 
ATOM     13  C   UNL     1      47.033  16.456  19.262  0.00  0.00    -0.005 C 
ATOM     14  C   UNL     1      47.172  14.980  18.937  0.00  0.00    +0.008 C 
ATOM     15  C   UNL     1      45.798  14.306  19.015  0.00  0.00    +0.058 C 
ATOM     16  C   UNL     1      45.911  12.892  18.526  0.00  0.00    -0.060 C 
ATOM     17  C   UNL     1      46.821  12.504  17.682  0.00  0.00    -0.092 C 
ATOM     18  C   UNL     1      47.908  13.414  17.112  0.00  0.00    -0.009 C 
ATOM     19  C   UNL     1      49.281  12.977  17.627  0.00  0.00    +0.024 C 
ATOM     20  C   UNL     1      47.920  13.269  15.587  0.00  0.00    +0.031 C 
ATOM     21  C   UNL     1      48.113  11.797  15.220  0.00  0.00    +0.033 C 
ATOM     22  C   UNL     1      46.933  10.976  15.741  0.00  0.00    +0.163 C 
ATOM     25  C   UNL     1      46.831  11.046  17.254  0.00  0.00    +0.026 C 
ATOM     26  C   UNL     1      47.700  14.871  17.494  0.00  0.00    -0.004 C 
ATOM     27  C   UNL     1      48.996  15.649  17.286  0.00  0.00    +0.011 C 
ATOM     28  C   UNL     1      48.859  17.112  17.733  0.00  0.00    +0.023 C 
ATOM     29  C   UNL     1      48.447  17.097  19.193  0.00  0.00    -0.055 C 
ATOM     30  C   UNL     1      49.436  16.261  20.008  0.00  0.00    +0.020 C 
ENDROOT
BRANCH  10   9
ATOM      9  C   UNL     1      47.848  19.501  18.814  0.00  0.00    -0.011 C 
ATOM     31  C   UNL     1      46.364  19.834  18.967  0.00  0.00    +0.014 C 
BRANCH   9   8
ATOM      8  C   UNL     1      48.680  20.769  19.022  0.00  0.00    +0.005 C 
BRANCH   8   7
ATOM      7  C   UNL     1      50.076  20.388  19.517  0.00  0.00    +0.011 C 
BRANCH   7   3
ATOM      3  C   UNL     1      51.130  20.980  18.577  0.00  0.00    -0.015 C 
BRANCH   3   4
ATOM      4  C   UNL     1      51.160  20.178  17.275  0.00  0.00    -0.024 C 
ATOM      5  C   UNL     1      52.051  18.948  17.453  0.00  0.00    +0.011 C 
ATOM      6  C   UNL     1      51.719  21.054  16.151  0.00  0.00    +0.012 C 
ENDBRANCH   3   4
BRANCH   3   2
ATOM      1  C   UNL     1      52.565  21.945  20.379  0.00  0.00    +0.003 C 
ATOM      2  C   UNL     1      52.503  20.916  19.249  0.00  0.00    +0.003 C 
ENDBRANCH   3   2
ENDBRANCH   7   3
ENDBRANCH   8   7
ENDBRANCH   9   8
ENDBRANCH  10   9
BRANCH  22  23
ATOM     23  O   UNL     1      45.714  11.512  15.221  0.00  0.00    -0.565 OA
ATOM     24  H   UNL     1      45.170  10.867  14.750  0.00  0.00    +0.374 HD
ENDBRANCH  22  23
TORSDOF 7
ENDMDL
MODEL 2
REMARK VINA RESULT:      -5.9      1.690      2.264
REMARK  Name = ZINC44607992
REMARK  13 active torsions:
REMARK  status: ('A' for Active; 'I' for Inactive)
REMARK    1  A    between atoms: C1_1  and  C2_2
REMARK    2  A    between atoms: C2_2  and  C3_3
REMARK    3  A    between atoms: C3_3  and  C4_5
REMARK    4  A    between atoms: C3_3  and  C27_35
REMARK    5  A    between atoms: C4_5  and  C5_6
REMARK    6  A    between atoms: C5_6  and  C6_7
REMARK    7  A    between atoms: C6_7  and  C7_9
REMARK    8  A    between atoms: C6_7  and  C8_10
REMARK    9  A    between atoms: C12_16  and  C26_34
REMARK   10  A    between atoms: C20_26  and  C25_33
REMARK   11  A    between atoms: C23_29  and  O1_32
REMARK   12  A    between atoms: C27_35  and  C28_36
REMARK   13  A    between atoms: C27_35  and  C29_37
REMARK                            x       y       z     vdW  Elec       q    Type
REMARK                         _______ _______ _______ _____ _____    ______ ____
ROOT
ATOM     10  C   UNL     1      47.928  17.414  19.549  0.00  0.00    -0.004 C 
ATOM     11  C   UNL     1      46.430  17.046  19.414  0.00  0.00    +0.006 C 
ATOM     12  C   UNL     1      46.376  15.724  18.601  0.00  0.00    +0.009 C 
ATOM     13  C   UNL     1      47.695  15.746  17.820  0.00  0.00    -0.005 C 
ATOM     14  C   UNL     1      48.195  14.400  17.331  0.00  0.00    +0.008 C 
ATOM     15  C   UNL     1      47.228  13.845  16.279  0.00  0.00    +0.058 C 
ATOM     16  C   UNL     1      47.813  12.603  15.675  0.00  0.00    -0.060 C 
ATOM     17  C   UNL     1      49.092  12.373  15.623  0.00  0.00    -0.092 C 
ATOM     18  C   UNL     1      50.157  13.307  16.198  0.00  0.00    -0.009 C 
ATOM     19  C   UNL     1      50.854  12.639  17.384  0.00  0.00    +0.024 C 
ATOM     20  C   UNL     1      51.217  13.564  15.123  0.00  0.00    +0.031 C 
ATOM     21  C   UNL     1      51.785  12.227  14.642  0.00  0.00    +0.033 C 
ATOM     22  C   UNL     1      50.675  11.399  13.992  0.00  0.00    +0.163 C 
ATOM     25  C   UNL     1      49.567  11.081  14.979  0.00  0.00    +0.026 C 
ATOM     26  C   UNL     1      49.570  14.626  16.674  0.00  0.00    -0.004 C 
ATOM     27  C   UNL     1      50.556  15.322  17.609  0.00  0.00    +0.011 C 
ATOM     28  C   UNL     1      49.976  16.624  18.181  0.00  0.00    +0.023 C 
ATOM     29  C   UNL     1      48.689  16.263  18.897  0.00  0.00    -0.055 C 
ATOM     30  C   UNL     1      48.954  15.166  19.929  0.00  0.00    +0.020 C 
ENDROOT
BRANCH  10   9
ATOM      9  C   UNL     1      48.221  18.725  18.816  0.00  0.00    -0.011 C 
ATOM     31  C   UNL     1      46.918  19.502  18.622  0.00  0.00    +0.014 C 
BRANCH   9   8
ATOM      8  C   UNL     1      49.197  19.564  19.644  0.00  0.00    +0.005 C 
BRANCH   8   7
ATOM      7  C   UNL     1      49.427  20.909  18.952  0.00  0.00    +0.011 C 
BRANCH   7   3
ATOM      3  C   UNL     1      50.910  21.059  18.606  0.00  0.00    -0.015 C 
BRANCH   3   4
ATOM      4  C   UNL     1      51.245  20.177  17.402  0.00  0.00    -0.024 C 
ATOM      5  C   UNL     1      52.410  19.252  17.754  0.00  0.00    +0.011 C 
ATOM      6  C   UNL     1      51.638  21.062  16.216  0.00  0.00    +0.012 C 
ENDBRANCH   3   4
BRANCH   3   2
ATOM      1  C   UNL     1      52.568  21.826  20.310  0.00  0.00    +0.003 C 
ATOM      2  C   UNL     1      51.759  20.630  19.805  0.00  0.00    +0.003 C 
ENDBRANCH   3   2
ENDBRANCH   7   3
ENDBRANCH   8   7
ENDBRANCH   9   8
ENDBRANCH  10   9
BRANCH  22  23
ATOM     23  O   UNL     1      50.080  12.151  12.932  0.00  0.00    -0.565 OA
ATOM     24  H   UNL     1      49.114  12.130  12.929  0.00  0.00    +0.374 HD
ENDBRANCH  22  23
TORSDOF 7
ENDMDL
MODEL 3
REMARK VINA RESULT:      -5.6      2.881      3.896
REMARK  Name = ZINC44607992
REMARK  13 active torsions:
REMARK  status: ('A' for Active; 'I' for Inactive)
REMARK    1  A    between atoms: C1_1  and  C2_2
REMARK    2  A    between atoms: C2_2  and  C3_3
REMARK    3  A    between atoms: C3_3  and  C4_5
REMARK    4  A    between atoms: C3_3  and  C27_35
REMARK    5  A    between atoms: C4_5  and  C5_6
REMARK    6  A    between atoms: C5_6  and  C6_7
REMARK    7  A    between atoms: C6_7  and  C7_9
REMARK    8  A    between atoms: C6_7  and  C8_10
REMARK    9  A    between atoms: C12_16  and  C26_34
REMARK   10  A    between atoms: C20_26  and  C25_33
REMARK   11  A    between atoms: C23_29  and  O1_32
REMARK   12  A    between atoms: C27_35  and  C28_36
REMARK   13  A    between atoms: C27_35  and  C29_37
REMARK                            x       y       z     vdW  Elec       q    Type
REMARK                         _______ _______ _______ _____ _____    ______ ____
ROOT
ATOM     10  C   UNL     1      45.813  18.519  19.890  0.00  0.00    -0.004 C 
ATOM     11  C   UNL     1      44.893  17.828  20.928  0.00  0.00    +0.006 C 
ATOM     12  C   UNL     1      45.049  16.300  20.701  0.00  0.00    +0.009 C 
ATOM     13  C   UNL     1      45.511  16.214  19.242  0.00  0.00    -0.005 C 
ATOM     14  C   UNL     1      46.235  14.938  18.853  0.00  0.00    +0.008 C 
ATOM     15  C   UNL     1      45.265  13.754  18.936  0.00  0.00    +0.058 C 
ATOM     16  C   UNL     1      45.934  12.528  18.387  0.00  0.00    -0.060 C 
ATOM     17  C   UNL     1      46.889  12.574  17.506  0.00  0.00    -0.092 C 
ATOM     18  C   UNL     1      47.481  13.869  16.948  0.00  0.00    -0.009 C 
ATOM     19  C   UNL     1      48.930  14.025  17.412  0.00  0.00    +0.024 C 
ATOM     20  C   UNL     1      47.492  13.784  15.419  0.00  0.00    +0.031 C 
ATOM     21  C   UNL     1      48.262  12.534  14.986  0.00  0.00    +0.033 C 
ATOM     22  C   UNL     1      47.547  11.284  15.501  0.00  0.00    +0.163 C 
ATOM     25  C   UNL     1      47.484  11.264  17.018  0.00  0.00    +0.026 C 
ATOM     26  C   UNL     1      46.704  15.097  17.395  0.00  0.00    -0.004 C 
ATOM     27  C   UNL     1      47.554  16.348  17.188  0.00  0.00    +0.011 C 
ATOM     28  C   UNL     1      46.843  17.610  17.698  0.00  0.00    +0.023 C 
ATOM     29  C   UNL     1      46.531  17.384  19.165  0.00  0.00    -0.055 C 
ATOM     30  C   UNL     1      47.807  17.011  19.922  0.00  0.00    +0.020 C 
ENDROOT
BRANCH  10   9
ATOM      9  C   UNL     1      44.979  19.335  18.901  0.00  0.00    -0.011 C 
ATOM     31  C   UNL     1      43.517  19.339  19.349  0.00  0.00    +0.014 C 
BRANCH   9   8
ATOM      8  C   UNL     1      45.503  20.772  18.856  0.00  0.00    +0.005 C 
BRANCH   8   7
ATOM      7  C   UNL     1      45.806  21.248  20.277  0.00  0.00    +0.011 C 
BRANCH   7   3
ATOM      3  C   UNL     1      44.957  22.482  20.594  0.00  0.00    -0.015 C 
BRANCH   3   4
ATOM      4  C   UNL     1      44.328  23.013  19.305  0.00  0.00    -0.024 C 
ATOM      5  C   UNL     1      44.751  24.468  19.092  0.00  0.00    +0.011 C 
ATOM      6  C   UNL     1      42.804  22.937  19.412  0.00  0.00    +0.012 C 
ENDBRANCH   3   4
BRANCH   3   2
ATOM      1  C   UNL     1      47.055  22.909  21.882  0.00  0.00    +0.003 C 
ATOM      2  C   UNL     1      45.843  23.564  21.215  0.00  0.00    +0.003 C 
ENDBRANCH   3   2
ENDBRANCH   7   3
ENDBRANCH   8   7
ENDBRANCH   9   8
ENDBRANCH  10   9
BRANCH  22  23
ATOM     23  O   UNL     1      46.196  11.281  15.033  0.00  0.00    -0.565 OA
ATOM     24  H   UNL     1      46.113  11.226  14.072  0.00  0.00    +0.374 HD
ENDBRANCH  22  23
TORSDOF 7
ENDMDL
MODEL 4
REMARK VINA RESULT:      -5.5      2.927      6.593
REMARK  Name = ZINC44607992
REMARK  13 active torsions:
REMARK  status: ('A' for Active; 'I' for Inactive)
REMARK    1  A    between atoms: C1_1  and  C2_2
REMARK    2  A    between atoms: C2_2  and  C3_3
REMARK    3  A    between atoms: C3_3  and  C4_5
REMARK    4  A    between atoms: C3_3  and  C27_35
REMARK    5  A    between atoms: C4_5  and  C5_6
REMARK    6  A    between atoms: C5_6  and  C6_7
REMARK    7  A    between atoms: C6_7  and  C7_9
REMARK    8  A    between atoms: C6_7  and  C8_10
REMARK    9  A    between atoms: C12_16  and  C26_34
REMARK   10  A    between atoms: C20_26  and  C25_33
REMARK   11  A    between atoms: C23_29  and  O1_32
REMARK   12  A    between atoms: C27_35  and  C28_36
REMARK   13  A    between atoms: C27_35  and  C29_37
REMARK                            x       y       z     vdW  Elec       q    Type
REMARK                         _______ _______ _______ _____ _____    ______ ____
ROOT
ATOM     10  C   UNL     1      51.186  18.659  18.363  0.00  0.00    -0.004 C 
ATOM     11  C   UNL     1      51.626  20.116  18.650  0.00  0.00    +0.006 C 
ATOM     12  C   UNL     1      50.485  20.762  19.482  0.00  0.00    +0.009 C 
ATOM     13  C   UNL     1      49.264  19.914  19.105  0.00  0.00    -0.005 C 
ATOM     14  C   UNL     1      48.114  19.937  20.096  0.00  0.00    +0.008 C 
ATOM     15  C   UNL     1      47.506  21.344  20.142  0.00  0.00    +0.058 C 
ATOM     16  C   UNL     1      46.267  21.319  20.988  0.00  0.00    -0.060 C 
ATOM     17  C   UNL     1      45.544  20.251  21.157  0.00  0.00    -0.092 C 
ATOM     18  C   UNL     1      45.877  18.885  20.559  0.00  0.00    -0.009 C 
ATOM     19  C   UNL     1      46.235  17.899  21.673  0.00  0.00    +0.024 C 
ATOM     20  C   UNL     1      44.634  18.345  19.846  0.00  0.00    +0.031 C 
ATOM     21  C   UNL     1      43.463  18.302  20.830  0.00  0.00    +0.033 C 
ATOM     22  C   UNL     1      43.133  19.720  21.300  0.00  0.00    +0.163 C 
ATOM     25  C   UNL     1      44.305  20.351  22.031  0.00  0.00    +0.026 C 
ATOM     26  C   UNL     1      47.046  18.950  19.589  0.00  0.00    -0.004 C 
ATOM     27  C   UNL     1      47.607  17.548  19.363  0.00  0.00    +0.011 C 
ATOM     28  C   UNL     1      48.842  17.569  18.450  0.00  0.00    +0.023 C 
ATOM     29  C   UNL     1      49.864  18.481  19.103  0.00  0.00    -0.055 C 
ATOM     30  C   UNL     1      50.130  18.027  20.539  0.00  0.00    +0.020 C 
ENDROOT
BRANCH  10   9
ATOM      9  C   UNL     1      50.985  18.452  16.860  0.00  0.00    -0.011 C 
ATOM     31  C   UNL     1      51.646  19.599  16.095  0.00  0.00    +0.014 C 
BRANCH   9   8
ATOM      8  C   UNL     1      51.619  17.125  16.439  0.00  0.00    +0.005 C 
BRANCH   8   7
ATOM      7  C   UNL     1      52.212  16.431  17.667  0.00  0.00    +0.011 C 
BRANCH   7   3
ATOM      3  C   UNL     1      51.723  14.981  17.720  0.00  0.00    -0.015 C 
BRANCH   3   4
ATOM      4  C   UNL     1      50.744  14.731  16.572  0.00  0.00    -0.024 C 
ATOM      5  C   UNL     1      49.389  14.307  17.140  0.00  0.00    +0.011 C 
ATOM      6  C   UNL     1      51.288  13.620  15.671  0.00  0.00    +0.012 C 
ENDBRANCH   3   4
BRANCH   3   2
ATOM      1  C   UNL     1      52.031  14.868  20.196  0.00  0.00    +0.003 C 
ATOM      2  C   UNL     1      51.021  14.729  19.055  0.00  0.00    +0.003 C 
ENDBRANCH   3   2
ENDBRANCH   7   3
ENDBRANCH   8   7
ENDBRANCH   9   8
ENDBRANCH  10   9
BRANCH  22  23
ATOM     23  O   UNL     1      42.861  20.546  20.166  0.00  0.00    -0.565 OA
ATOM     24  H   UNL     1      43.390  20.331  19.386  0.00  0.00    +0.374 HD
ENDBRANCH  22  23
TORSDOF 7
ENDMDL
MODEL 5
REMARK VINA RESULT:      -5.3      3.859      6.404
REMARK  Name = ZINC44607992
REMARK  13 active torsions:
REMARK  status: ('A' for Active; 'I' for Inactive)
REMARK    1  A    between atoms: C1_1  and  C2_2
REMARK    2  A    between atoms: C2_2  and  C3_3
REMARK    3  A    between atoms: C3_3  and  C4_5
REMARK    4  A    between atoms: C3_3  and  C27_35
REMARK    5  A    between atoms: C4_5  and  C5_6
REMARK    6  A    between atoms: C5_6  and  C6_7
REMARK    7  A    between atoms: C6_7  and  C7_9
REMARK    8  A    between atoms: C6_7  and  C8_10
REMARK    9  A    between atoms: C12_16  and  C26_34
REMARK   10  A    between atoms: C20_26  and  C25_33
REMARK   11  A    between atoms: C23_29  and  O1_32
REMARK   12  A    between atoms: C27_35  and  C28_36
REMARK   13  A    between atoms: C27_35  and  C29_37
REMARK                            x       y       z     vdW  Elec       q    Type
REMARK                         _______ _______ _______ _____ _____    ______ ____
ROOT
ATOM     10  C   UNL     1      51.163  18.953  18.581  0.00  0.00    -0.004 C 
ATOM     11  C   UNL     1      51.161  20.447  18.170  0.00  0.00    +0.006 C 
ATOM     12  C   UNL     1      49.823  21.041  18.687  0.00  0.00    +0.009 C 
ATOM     13  C   UNL     1      48.916  19.808  18.788  0.00  0.00    -0.005 C 
ATOM     14  C   UNL     1      47.728  19.938  19.723  0.00  0.00    +0.008 C 
ATOM     15  C   UNL     1      46.756  20.988  19.173  0.00  0.00    +0.058 C 
ATOM     16  C   UNL     1      45.507  20.988  20.005  0.00  0.00    -0.060 C 
ATOM     17  C   UNL     1      45.094  19.948  20.666  0.00  0.00    -0.092 C 
ATOM     18  C   UNL     1      45.837  18.613  20.718  0.00  0.00    -0.009 C 
ATOM     19  C   UNL     1      46.360  18.360  22.134  0.00  0.00    +0.024 C 
ATOM     20  C   UNL     1      44.852  17.489  20.383  0.00  0.00    +0.031 C 
ATOM     21  C   UNL     1      43.662  17.555  21.343  0.00  0.00    +0.033 C 
ATOM     22  C   UNL     1      42.918  18.878  21.153  0.00  0.00    +0.163 C 
ATOM     25  C   UNL     1      43.808  20.067  21.467  0.00  0.00    +0.026 C 
ATOM     26  C   UNL     1      47.017  18.572  19.762  0.00  0.00    -0.004 C 
ATOM     27  C   UNL     1      47.958  17.435  20.151  0.00  0.00    +0.011 C 
ATOM     28  C   UNL     1      49.209  17.401  19.261  0.00  0.00    +0.023 C 
ATOM     29  C   UNL     1      49.886  18.753  19.389  0.00  0.00    -0.055 C 
ATOM     30  C   UNL     1      50.149  19.070  20.863  0.00  0.00    +0.020 C 
ENDROOT
BRANCH  10   9
ATOM      9  C   UNL     1      51.149  18.061  17.337  0.00  0.00    -0.011 C 
ATOM     31  C   UNL     1      51.481  18.901  16.103  0.00  0.00    +0.014 C 
BRANCH   9   8
ATOM      8  C   UNL     1      52.190  16.951  17.495  0.00  0.00    +0.005 C 
BRANCH   8   7
ATOM      7  C   UNL     1      52.985  17.176  18.782  0.00  0.00    +0.011 C 
BRANCH   7   3
ATOM      3  C   UNL     1      53.276  15.827  19.445  0.00  0.00    -0.015 C 
BRANCH   3   4
ATOM      4  C   UNL     1      52.082  15.415  20.308  0.00  0.00    -0.024 C 
ATOM      5  C   UNL     1      52.166  16.118  21.664  0.00  0.00    +0.011 C 
ATOM      6  C   UNL     1      52.105  13.900  20.519  0.00  0.00    +0.012 C 
ENDBRANCH   3   4
BRANCH   3   2
ATOM      1  C   UNL     1      55.738  15.418  19.558  0.00  0.00    +0.003 C 
ATOM      2  C   UNL     1      54.524  15.950  20.322  0.00  0.00    +0.003 C 
ENDBRANCH   3   2
ENDBRANCH   7   3
ENDBRANCH   8   7
ENDBRANCH   9   8
ENDBRANCH  10   9
BRANCH  22  23
ATOM     23  O   UNL     1      42.523  19.009  19.786  0.00  0.00    -0.565 OA
ATOM     24  H   UNL     1      43.250  18.918  19.155  0.00  0.00    +0.374 HD
ENDBRANCH  22  23
TORSDOF 7
ENDMDL
MODEL 6
REMARK VINA RESULT:      -5.3      3.073      7.739
REMARK  Name = ZINC44607992
REMARK  13 active torsions:
REMARK  status: ('A' for Active; 'I' for Inactive)
REMARK    1  A    between atoms: C1_1  and  C2_2
REMARK    2  A    between atoms: C2_2  and  C3_3
REMARK    3  A    between atoms: C3_3  and  C4_5
REMARK    4  A    between atoms: C3_3  and  C27_35
REMARK    5  A    between atoms: C4_5  and  C5_6
REMARK    6  A    between atoms: C5_6  and  C6_7
REMARK    7  A    between atoms: C6_7  and  C7_9
REMARK    8  A    between atoms: C6_7  and  C8_10
REMARK    9  A    between atoms: C12_16  and  C26_34
REMARK   10  A    between atoms: C20_26  and  C25_33
REMARK   11  A    between atoms: C23_29  and  O1_32
REMARK   12  A    between atoms: C27_35  and  C28_36
REMARK   13  A    between atoms: C27_35  and  C29_37
REMARK                            x       y       z     vdW  Elec       q    Type
REMARK                         _______ _______ _______ _____ _____    ______ ____
ROOT
ATOM     10  C   UNL     1      49.375  16.134  18.880  0.00  0.00    -0.004 C 
ATOM     11  C   UNL     1      50.620  16.885  19.413  0.00  0.00    +0.006 C 
ATOM     12  C   UNL     1      50.099  18.208  20.039  0.00  0.00    +0.009 C 
ATOM     13  C   UNL     1      48.766  18.429  19.313  0.00  0.00    -0.005 C 
ATOM     14  C   UNL     1      47.770  19.327  20.023  0.00  0.00    +0.008 C 
ATOM     15  C   UNL     1      48.323  20.755  20.088  0.00  0.00    +0.058 C 
ATOM     16  C   UNL     1      47.266  21.671  20.633  0.00  0.00    -0.060 C 
ATOM     17  C   UNL     1      45.993  21.430  20.522  0.00  0.00    -0.092 C 
ATOM     18  C   UNL     1      45.409  20.179  19.867  0.00  0.00    -0.009 C 
ATOM     19  C   UNL     1      44.709  19.315  20.919  0.00  0.00    +0.024 C 
ATOM     20  C   UNL     1      44.353  20.608  18.844  0.00  0.00    +0.031 C 
ATOM     21  C   UNL     1      43.298  21.473  19.537  0.00  0.00    +0.033 C 
ATOM     22  C   UNL     1      43.950  22.749  20.074  0.00  0.00    +0.163 C 
ATOM     25  C   UNL     1      45.016  22.436  21.108  0.00  0.00    +0.026 C 
ATOM     26  C   UNL     1      46.474  19.332  19.191  0.00  0.00    -0.004 C 
ATOM     27  C   UNL     1      45.935  17.925  18.943  0.00  0.00    +0.011 C 
ATOM     28  C   UNL     1      47.002  17.005  18.331  0.00  0.00    +0.023 C 
ATOM     29  C   UNL     1      48.179  16.990  19.287  0.00  0.00    -0.055 C 
ATOM     30  C   UNL     1      47.712  16.595  20.689  0.00  0.00    +0.020 C 
ENDROOT
BRANCH  10   9
ATOM      9  C   UNL     1      49.442  16.010  17.356  0.00  0.00    -0.011 C 
ATOM     31  C   UNL     1      50.859  16.334  16.880  0.00  0.00    +0.014 C 
BRANCH   9   8
ATOM      8  C   UNL     1      49.080  14.581  16.945  0.00  0.00    +0.005 C 
BRANCH   8   7
ATOM      7  C   UNL     1      49.374  13.627  18.104  0.00  0.00    +0.011 C 
BRANCH   7   3
ATOM      3  C   UNL     1      48.135  12.775  18.392  0.00  0.00    -0.015 C 
BRANCH   3   4
ATOM      4  C   UNL     1      47.000  13.194  17.456  0.00  0.00    -0.024 C 
ATOM      5  C   UNL     1      45.782  13.608  18.284  0.00  0.00    +0.011 C 
ATOM      6  C   UNL     1      46.625  12.018  16.552  0.00  0.00    +0.012 C 
ENDBRANCH   3   4
BRANCH   3   2
ATOM      1  C   UNL     1      48.928  12.896  20.758  0.00  0.00    +0.003 C 
ATOM      2  C   UNL     1      47.702  12.980  19.845  0.00  0.00    +0.003 C 
ENDBRANCH   3   2
ENDBRANCH   7   3
ENDBRANCH   8   7
ENDBRANCH   9   8
ENDBRANCH  10   9
BRANCH  22  23
ATOM     23  O   UNL     1      44.602  23.437  19.004  0.00  0.00    -0.565 OA
ATOM     24  H   UNL     1      45.275  22.911  18.550  0.00  0.00    +0.374 HD
ENDBRANCH  22  23
TORSDOF 7
ENDMDL
MODEL 7
REMARK VINA RESULT:      -5.1      3.138      7.545
REMARK  Name = ZINC44607992
REMARK  13 active torsions:
REMARK  status: ('A' for Active; 'I' for Inactive)
REMARK    1  A    between atoms: C1_1  and  C2_2
REMARK    2  A    between atoms: C2_2  and  C3_3
REMARK    3  A    between atoms: C3_3  and  C4_5
REMARK    4  A    between atoms: C3_3  and  C27_35
REMARK    5  A    between atoms: C4_5  and  C5_6
REMARK    6  A    between atoms: C5_6  and  C6_7
REMARK    7  A    between atoms: C6_7  and  C7_9
REMARK    8  A    between atoms: C6_7  and  C8_10
REMARK    9  A    between atoms: C12_16  and  C26_34
REMARK   10  A    between atoms: C20_26  and  C25_33
REMARK   11  A    between atoms: C23_29  and  O1_32
REMARK   12  A    between atoms: C27_35  and  C28_36
REMARK   13  A    between atoms: C27_35  and  C29_37
REMARK                            x       y       z     vdW  Elec       q    Type
REMARK                         _______ _______ _______ _____ _____    ______ ____
ROOT
ATOM     10  C   UNL     1      48.756  15.289  17.717  0.00  0.00    -0.004 C 
ATOM     11  C   UNL     1      47.567  15.033  16.756  0.00  0.00    +0.006 C 
ATOM     12  C   UNL     1      46.677  16.304  16.813  0.00  0.00    +0.009 C 
ATOM     13  C   UNL     1      47.025  16.906  18.180  0.00  0.00    -0.005 C 
ATOM     14  C   UNL     1      46.733  18.387  18.342  0.00  0.00    +0.008 C 
ATOM     15  C   UNL     1      45.219  18.619  18.283  0.00  0.00    +0.058 C 
ATOM     16  C   UNL     1      44.925  20.053  18.616  0.00  0.00    -0.060 C 
ATOM     17  C   UNL     1      45.706  20.784  19.356  0.00  0.00    -0.092 C 
ATOM     18  C   UNL     1      47.030  20.300  19.946  0.00  0.00    -0.009 C 
ATOM     19  C   UNL     1      48.196  21.053  19.302  0.00  0.00    +0.024 C 
ATOM     20  C   UNL     1      47.045  20.619  21.444  0.00  0.00    +0.031 C 
ATOM     21  C   UNL     1      46.807  22.118  21.645  0.00  0.00    +0.033 C 
ATOM     22  C   UNL     1      45.422  22.494  21.119  0.00  0.00    +0.163 C 
ATOM     25  C   UNL     1      45.298  22.222  19.630  0.00  0.00    +0.026 C 
ATOM     26  C   UNL     1      47.249  18.812  19.729  0.00  0.00    -0.004 C 
ATOM     27  C   UNL     1      48.723  18.472  19.933  0.00  0.00    +0.011 C 
ATOM     28  C   UNL     1      49.010  16.990  19.648  0.00  0.00    +0.023 C 
ATOM     29  C   UNL     1      48.567  16.715  18.224  0.00  0.00    -0.055 C 
ATOM     30  C   UNL     1      49.240  17.700  17.266  0.00  0.00    +0.020 C 
ENDROOT
BRANCH  10   9
ATOM      9  C   UNL     1      48.716  14.302  18.885  0.00  0.00    -0.011 C 
ATOM     31  C   UNL     1      47.573  13.309  18.674  0.00  0.00    +0.014 C 
BRANCH   9   8
ATOM      8  C   UNL     1      50.044  13.544  18.956  0.00  0.00    +0.005 C 
BRANCH   8   7
ATOM      7  C   UNL     1      51.016  14.121  17.926  0.00  0.00    +0.011 C 
BRANCH   7   3
ATOM      3  C   UNL     1      51.484  13.008  16.985  0.00  0.00    -0.015 C 
BRANCH   3   4
ATOM      4  C   UNL     1      50.878  13.224  15.597  0.00  0.00    -0.024 C 
ATOM      5  C   UNL     1      49.678  12.295  15.414  0.00  0.00    +0.011 C 
ATOM      6  C   UNL     1      51.929  12.916  14.529  0.00  0.00    +0.012 C 
ENDBRANCH   3   4
BRANCH   3   2
ATOM      1  C   UNL     1      52.244  10.729  17.672  0.00  0.00    +0.003 C 
ATOM      2  C   UNL     1      51.032  11.653  17.535  0.00  0.00    +0.003 C 
ENDBRANCH   3   2
ENDBRANCH   7   3
ENDBRANCH   8   7
ENDBRANCH   9   8
ENDBRANCH  10   9
BRANCH  22  23
ATOM     23  O   UNL     1      44.431  21.693  21.767  0.00  0.00    -0.565 OA
ATOM     24  H   UNL     1      44.760  20.840  22.082  0.00  0.00    +0.374 HD
ENDBRANCH  22  23
TORSDOF 7
ENDMDL
MODEL 8
REMARK VINA RESULT:      -5.0      2.350      5.276
REMARK  Name = ZINC44607992
REMARK  13 active torsions:
REMARK  status: ('A' for Active; 'I' for Inactive)
REMARK    1  A    between atoms: C1_1  and  C2_2
REMARK    2  A    between atoms: C2_2  and  C3_3
REMARK    3  A    between atoms: C3_3  and  C4_5
REMARK    4  A    between atoms: C3_3  and  C27_35
REMARK    5  A    between atoms: C4_5  and  C5_6
REMARK    6  A    between atoms: C5_6  and  C6_7
REMARK    7  A    between atoms: C6_7  and  C7_9
REMARK    8  A    between atoms: C6_7  and  C8_10
REMARK    9  A    between atoms: C12_16  and  C26_34
REMARK   10  A    between atoms: C20_26  and  C25_33
REMARK   11  A    between atoms: C23_29  and  O1_32
REMARK   12  A    between atoms: C27_35  and  C28_36
REMARK   13  A    between atoms: C27_35  and  C29_37
REMARK                            x       y       z     vdW  Elec       q    Type
REMARK                         _______ _______ _______ _____ _____    ______ ____
ROOT
ATOM     10  C   UNL     1      47.279  19.717  19.729  0.00  0.00    -0.004 C 
ATOM     11  C   UNL     1      48.682  20.255  19.351  0.00  0.00    +0.006 C 
ATOM     12  C   UNL     1      49.366  19.142  18.512  0.00  0.00    +0.009 C 
ATOM     13  C   UNL     1      48.634  17.873  18.964  0.00  0.00    -0.005 C 
ATOM     14  C   UNL     1      48.691  16.701  18.001  0.00  0.00    +0.008 C 
ATOM     15  C   UNL     1      50.134  16.198  17.890  0.00  0.00    +0.058 C 
ATOM     16  C   UNL     1      50.158  14.938  17.076  0.00  0.00    -0.060 C 
ATOM     17  C   UNL     1      49.140  14.133  16.983  0.00  0.00    -0.092 C 
ATOM     18  C   UNL     1      47.787  14.381  17.649  0.00  0.00    -0.009 C 
ATOM     19  C   UNL     1      46.718  14.634  16.583  0.00  0.00    +0.024 C 
ATOM     20  C   UNL     1      47.381  13.121  18.420  0.00  0.00    +0.031 C 
ATOM     21  C   UNL     1      47.374  11.924  17.467  0.00  0.00    +0.033 C 
ATOM     22  C   UNL     1      48.785  11.687  16.926  0.00  0.00    +0.163 C 
ATOM     25  C   UNL     1      49.287  12.881  16.135  0.00  0.00    +0.026 C 
ATOM     26  C   UNL     1      47.815  15.577  18.586  0.00  0.00    -0.004 C 
ATOM     27  C   UNL     1      46.389  16.039  18.876  0.00  0.00    +0.011 C 
ATOM     28  C   UNL     1      46.366  17.297  19.757  0.00  0.00    +0.023 C 
ATOM     29  C   UNL     1      47.162  18.365  19.032  0.00  0.00    -0.055 C 
ATOM     30  C   UNL     1      46.612  18.558  17.617  0.00  0.00    +0.020 C 
ENDROOT
BRANCH  10   9
ATOM      9  C   UNL     1      47.169  19.542  21.246  0.00  0.00    -0.011 C 
ATOM     31  C   UNL     1      48.469  20.000  21.908  0.00  0.00    +0.014 C 
BRANCH   9   8
ATOM      8  C   UNL     1      46.004  20.383  21.772  0.00  0.00    +0.005 C 
BRANCH   8   7
ATOM      7  C   UNL     1      44.850  19.462  22.172  0.00  0.00    +0.011 C 
BRANCH   7   3
ATOM      3  C   UNL     1      43.585  19.868  21.412  0.00  0.00    -0.015 C 
BRANCH   3   4
ATOM      4  C   UNL     1      42.816  18.613  20.996  0.00  0.00    -0.024 C 
ATOM      5  C   UNL     1      41.328  18.803  21.295  0.00  0.00    +0.011 C 
ATOM      6  C   UNL     1      43.343  17.409  21.779  0.00  0.00    +0.012 C 
ENDBRANCH   3   4
BRANCH   3   2
ATOM      1  C   UNL     1      43.456  19.947  18.919  0.00  0.00    +0.003 C 
ATOM      2  C   UNL     1      43.974  20.666  20.166  0.00  0.00    +0.003 C 
ENDBRANCH   3   2
ENDBRANCH   7   3
ENDBRANCH   8   7
ENDBRANCH   9   8
ENDBRANCH  10   9
BRANCH  22  23
ATOM     23  O   UNL     1      49.690  11.508  18.019  0.00  0.00    -0.565 OA
ATOM     24  H   UNL     1      49.815  12.300  18.560  0.00  0.00    +0.374 HD
ENDBRANCH  22  23
TORSDOF 7
ENDMDL
MODEL 9
REMARK VINA RESULT:      -4.9      2.059      3.493
REMARK  Name = ZINC44607992
REMARK  13 active torsions:
REMARK  status: ('A' for Active; 'I' for Inactive)
REMARK    1  A    between atoms: C1_1  and  C2_2
REMARK    2  A    between atoms: C2_2  and  C3_3
REMARK    3  A    between atoms: C3_3  and  C4_5
REMARK    4  A    between atoms: C3_3  and  C27_35
REMARK    5  A    between atoms: C4_5  and  C5_6
REMARK    6  A    between atoms: C5_6  and  C6_7
REMARK    7  A    between atoms: C6_7  and  C7_9
REMARK    8  A    between atoms: C6_7  and  C8_10
REMARK    9  A    between atoms: C12_16  and  C26_34
REMARK   10  A    between atoms: C20_26  and  C25_33
REMARK   11  A    between atoms: C23_29  and  O1_32
REMARK   12  A    between atoms: C27_35  and  C28_36
REMARK   13  A    between atoms: C27_35  and  C29_37
REMARK                            x       y       z     vdW  Elec       q    Type
REMARK                         _______ _______ _______ _____ _____    ______ ____
ROOT
ATOM     10  C   UNL     1      47.174  15.989  19.345  0.00  0.00    -0.004 C 
ATOM     11  C   UNL     1      45.771  15.385  19.091  0.00  0.00    +0.006 C 
ATOM     12  C   UNL     1      45.991  14.119  18.219  0.00  0.00    +0.009 C 
ATOM     13  C   UNL     1      47.332  14.403  17.533  0.00  0.00    -0.005 C 
ATOM     14  C   UNL     1      48.082  13.187  17.020  0.00  0.00    +0.008 C 
ATOM     15  C   UNL     1      47.288  12.539  15.881  0.00  0.00    +0.058 C 
ATOM     16  C   UNL     1      48.111  11.446  15.265  0.00  0.00    -0.060 C 
ATOM     17  C   UNL     1      49.411  11.435  15.291  0.00  0.00    -0.092 C 
ATOM     18  C   UNL     1      50.265  12.500  15.978  0.00  0.00    -0.009 C 
ATOM     19  C   UNL     1      50.993  11.893  17.180  0.00  0.00    +0.024 C 
ATOM     20  C   UNL     1      51.330  12.988  14.992  0.00  0.00    +0.031 C 
ATOM     21  C   UNL     1      52.144  11.792  14.493  0.00  0.00    +0.033 C 
ATOM     22  C   UNL     1      51.232  10.829  13.732  0.00  0.00    +0.163 C 
ATOM     25  C   UNL     1      50.136  10.277  14.625  0.00  0.00    +0.026 C 
ATOM     26  C   UNL     1      49.435  13.675  16.470  0.00  0.00    -0.004 C 
ATOM     27  C   UNL     1      50.231  14.473  17.500  0.00  0.00    +0.011 C 
ATOM     28  C   UNL     1      49.406  15.627  18.088  0.00  0.00    +0.023 C 
ATOM     29  C   UNL     1      48.157  15.019  18.697  0.00  0.00    -0.055 C 
ATOM     30  C   UNL     1      48.541  13.925  19.696  0.00  0.00    +0.020 C 
ENDROOT
BRANCH  10   9
ATOM      9  C   UNL     1      47.285  17.369  18.693  0.00  0.00    -0.011 C 
ATOM     31  C   UNL     1      45.934  17.756  18.088  0.00  0.00    +0.014 C 
BRANCH   9   8
ATOM      8  C   UNL     1      47.686  18.401  19.749  0.00  0.00    +0.005 C 
BRANCH   8   7
ATOM      7  C   UNL     1      47.054  19.751  19.407  0.00  0.00    +0.011 C 
BRANCH   7   3
ATOM      3  C   UNL     1      48.065  20.870  19.670  0.00  0.00    -0.015 C 
BRANCH   3   4
ATOM      4  C   UNL     1      49.481  20.291  19.651  0.00  0.00    -0.024 C 
ATOM      5  C   UNL     1      50.231  20.735  20.908  0.00  0.00    +0.011 C 
ATOM      6  C   UNL     1      50.222  20.798  18.411  0.00  0.00    +0.012 C 
ENDBRANCH   3   4
BRANCH   3   2
ATOM      1  C   UNL     1      46.377  22.089  21.049  0.00  0.00    +0.003 C 
ATOM      2  C   UNL     1      47.787  21.496  21.038  0.00  0.00    +0.003 C 
ENDBRANCH   3   2
ENDBRANCH   7   3
ENDBRANCH   8   7
ENDBRANCH   9   8
ENDBRANCH  10   9
BRANCH  22  23
ATOM     23  O   UNL     1      50.583  11.528  12.667  0.00  0.00    -0.565 OA
ATOM     24  H   UNL     1      50.394  12.456  12.864  0.00  0.00    +0.374 HD
ENDBRANCH  22  23
TORSDOF 7
ENDMDL
