MODEL 1
REMARK VINA RESULT:      -6.4      0.000      0.000
REMARK  Name = ZINC14780903
REMARK  12 active torsions:
REMARK  status: ('A' for Active; 'I' for Inactive)
REMARK    1  A    between atoms: C1_1  and  C2_2
REMARK    2  A    between atoms: C2_2  and  C25_31
REMARK    3  A    between atoms: C3_3  and  C4_4
REMARK    4  A    between atoms: C4_4  and  C5_5
REMARK    5  A    between atoms: C9_9  and  C11_12
REMARK    6  A    between atoms: C10_10  and  O1_11
REMARK    7  A    between atoms: C11_12  and  C12_13
REMARK    8  A    between atoms: C13_14  and  C14_15
REMARK    9  A    between atoms: C13_14  and  C15_16
REMARK   10  A    between atoms: C17_19  and  C19_23
REMARK   11  A    between atoms: C22_26  and  O5_30
REMARK   12  A    between atoms: C24_28  and  O4_29
REMARK                            x       y       z     vdW  Elec       q    Type
REMARK                         _______ _______ _______ _____ _____    ______ ____
ROOT
ATOM      6  C   UNL     1      46.280  20.211  21.080  0.00  0.00    -0.138 A 
ATOM      7  C   UNL     1      47.602  20.189  21.420  0.00  0.00    +0.128 A 
ATOM      8  C   UNL     1      48.472  19.309  20.770  0.00  0.00    -0.253 A 
ATOM      9  C   UNL     1      47.991  18.448  19.766  0.00  0.00    +0.188 A 
ATOM     10  O   UNL     1      48.826  17.599  19.122  0.00  0.00    -0.298 OA
ATOM     11  C   UNL     1      50.050  17.226  19.756  0.00  0.00    +0.282 C 
ATOM     12  C   UNL     1      50.807  18.493  20.182  0.00  0.00    +0.003 C 
ATOM     23  C   UNL     1      46.647  18.481  19.436  0.00  0.00    -0.140 A 
ATOM     29  C   UNL     1      49.898  19.265  21.123  0.00  0.00    +0.411 C 
ATOM     30  O   UNL     1      50.328  19.818  22.114  0.00  0.00    -0.436 OA
ATOM     31  C   UNL     1      45.795  19.358  20.092  0.00  0.00    +0.186 A 
ENDROOT
BRANCH  12  13
ATOM     13  C   UNL     1      51.124  19.332  18.972  0.00  0.00    -0.121 A 
ATOM     14  C   UNL     1      50.526  20.568  18.813  0.00  0.00    +0.067 A 
ATOM     15  C   UNL     1      50.816  21.340  17.703  0.00  0.00    -0.016 A 
ATOM     16  C   UNL     1      51.707  20.875  16.746  0.00  0.00    +0.132 A 
ATOM     19  C   UNL     1      52.308  19.636  16.904  0.00  0.00    -0.034 A 
ATOM     20  C   UNL     1      52.016  18.864  18.018  0.00  0.00    +0.139 A 
BRANCH  16  17
ATOM     17  O   UNL     1      51.991  21.634  15.655  0.00  0.00    -0.496 OA
ATOM     18  H   UNL     1      51.604  22.520  15.682  0.00  0.00    +0.396 HD
ENDBRANCH  16  17
BRANCH  20  21
ATOM     21  O   UNL     1      52.599  17.646  18.173  0.00  0.00    -0.494 OA
ATOM     22  H   UNL     1      53.466  17.677  18.602  0.00  0.00    +0.397 HD
ENDBRANCH  20  21
ENDBRANCH  12  13
BRANCH  31  32
ATOM     32  O   UNL     1      44.478  19.388  19.765  0.00  0.00    -0.483 OA
ATOM     33  H   UNL     1      44.241  18.803  19.033  0.00  0.00    +0.396 HD
ENDBRANCH  31  32
BRANCH   6   5
ATOM      5  C   UNL     1      45.340  21.161  21.779  0.00  0.00    +0.124 C 
BRANCH   5   4
ATOM      1  C   UNL     1      44.477  22.990  19.814  0.00  0.00    +0.073 C 
ATOM      2  C   UNL     1      45.466  23.421  20.865  0.00  0.00    -0.124 C 
ATOM      3  C   UNL     1      45.940  24.851  20.913  0.00  0.00    +0.074 C 
ATOM      4  C   UNL     1      45.914  22.553  21.738  0.00  0.00    -0.059 C 
ENDBRANCH   5   4
ENDBRANCH   6   5
BRANCH  23  24
ATOM     24  C   UNL     1      46.108  17.563  18.369  0.00  0.00    +0.132 C 
BRANCH  24  25
ATOM     25  C   UNL     1      45.756  16.232  18.980  0.00  0.00    -0.052 C 
ATOM     26  C   UNL     1      46.111  15.122  18.381  0.00  0.00    -0.130 C 
ATOM     27  C   UNL     1      45.586  13.798  18.875  0.00  0.00    +0.071 C 
ATOM     28  C   UNL     1      47.044  15.169  17.198  0.00  0.00    +0.074 C 
ENDBRANCH  24  25
ENDBRANCH  23  24
TORSDOF 8
ENDMDL
MODEL 2
REMARK VINA RESULT:      -6.2      2.326      7.603
REMARK  Name = ZINC14780903
REMARK  12 active torsions:
REMARK  status: ('A' for Active; 'I' for Inactive)
REMARK    1  A    between atoms: C1_1  and  C2_2
REMARK    2  A    between atoms: C2_2  and  C25_31
REMARK    3  A    between atoms: C3_3  and  C4_4
REMARK    4  A    between atoms: C4_4  and  C5_5
REMARK    5  A    between atoms: C9_9  and  C11_12
REMARK    6  A    between atoms: C10_10  and  O1_11
REMARK    7  A    between atoms: C11_12  and  C12_13
REMARK    8  A    between atoms: C13_14  and  C14_15
REMARK    9  A    between atoms: C13_14  and  C15_16
REMARK   10  A    between atoms: C17_19  and  C19_23
REMARK   11  A    between atoms: C22_26  and  O5_30
REMARK   12  A    between atoms: C24_28  and  O4_29
REMARK                            x       y       z     vdW  Elec       q    Type
REMARK                         _______ _______ _______ _____ _____    ______ ____
ROOT
ATOM      6  C   UNL     1      47.642  16.698  19.451  0.00  0.00    -0.138 A 
ATOM      7  C   UNL     1      46.652  16.704  20.392  0.00  0.00    +0.128 A 
ATOM      8  C   UNL     1      46.196  17.918  20.913  0.00  0.00    -0.253 A 
ATOM      9  C   UNL     1      46.749  19.133  20.469  0.00  0.00    +0.188 A 
ATOM     10  O   UNL     1      46.308  20.316  20.958  0.00  0.00    -0.298 OA
ATOM     11  C   UNL     1      45.653  20.333  22.228  0.00  0.00    +0.282 C 
ATOM     12  C   UNL     1      44.515  19.302  22.226  0.00  0.00    +0.003 C 
ATOM     23  C   UNL     1      47.754  19.109  19.517  0.00  0.00    -0.140 A 
ATOM     29  C   UNL     1      45.136  17.948  21.930  0.00  0.00    +0.411 C 
ATOM     30  O   UNL     1      44.774  16.942  22.505  0.00  0.00    -0.436 OA
ATOM     31  C   UNL     1      48.199  17.896  19.011  0.00  0.00    +0.186 A 
ENDROOT
BRANCH  12  13
ATOM     13  C   UNL     1      43.511  19.649  21.157  0.00  0.00    -0.121 A 
ATOM     14  C   UNL     1      43.782  20.662  20.257  0.00  0.00    +0.067 A 
ATOM     15  C   UNL     1      42.863  20.982  19.276  0.00  0.00    -0.016 A 
ATOM     16  C   UNL     1      41.664  20.288  19.194  0.00  0.00    +0.132 A 
ATOM     19  C   UNL     1      41.390  19.272  20.095  0.00  0.00    -0.034 A 
ATOM     20  C   UNL     1      42.314  18.952  21.078  0.00  0.00    +0.139 A 
BRANCH  16  17
ATOM     17  O   UNL     1      40.760  20.604  18.229  0.00  0.00    -0.496 OA
ATOM     18  H   UNL     1      41.047  21.315  17.640  0.00  0.00    +0.396 HD
ENDBRANCH  16  17
BRANCH  20  21
ATOM     21  O   UNL     1      42.045  17.960  21.967  0.00  0.00    -0.494 OA
ATOM     22  H   UNL     1      42.648  17.206  21.909  0.00  0.00    +0.397 HD
ENDBRANCH  20  21
ENDBRANCH  12  13
BRANCH  31  32
ATOM     32  O   UNL     1      49.183  17.876  18.077  0.00  0.00    -0.483 OA
ATOM     33  H   UNL     1      49.979  18.361  18.335  0.00  0.00    +0.396 HD
ENDBRANCH  31  32
BRANCH   6   5
ATOM      5  C   UNL     1      48.134  15.389  18.887  0.00  0.00    +0.124 C 
BRANCH   5   4
ATOM      1  C   UNL     1      46.888  14.497  16.519  0.00  0.00    +0.073 C 
ATOM      2  C   UNL     1      46.495  13.908  17.849  0.00  0.00    -0.124 C 
ATOM      3  C   UNL     1      45.487  12.788  17.908  0.00  0.00    +0.074 C 
ATOM      4  C   UNL     1      47.029  14.367  18.953  0.00  0.00    -0.059 C 
ENDBRANCH   5   4
ENDBRANCH   6   5
BRANCH  23  24
ATOM     24  C   UNL     1      48.366  20.398  19.032  0.00  0.00    +0.132 C 
BRANCH  24  25
ATOM     25  C   UNL     1      49.586  20.718  19.857  0.00  0.00    -0.052 C 
ATOM     26  C   UNL     1      50.740  20.918  19.269  0.00  0.00    -0.130 C 
ATOM     27  C   UNL     1      51.996  21.031  20.094  0.00  0.00    +0.071 C 
ATOM     28  C   UNL     1      50.811  21.035  17.768  0.00  0.00    +0.074 C 
ENDBRANCH  24  25
ENDBRANCH  23  24
TORSDOF 8
ENDMDL
MODEL 3
REMARK VINA RESULT:      -6.2      2.752      5.845
REMARK  Name = ZINC14780903
REMARK  12 active torsions:
REMARK  status: ('A' for Active; 'I' for Inactive)
REMARK    1  A    between atoms: C1_1  and  C2_2
REMARK    2  A    between atoms: C2_2  and  C25_31
REMARK    3  A    between atoms: C3_3  and  C4_4
REMARK    4  A    between atoms: C4_4  and  C5_5
REMARK    5  A    between atoms: C9_9  and  C11_12
REMARK    6  A    between atoms: C10_10  and  O1_11
REMARK    7  A    between atoms: C11_12  and  C12_13
REMARK    8  A    between atoms: C13_14  and  C14_15
REMARK    9  A    between atoms: C13_14  and  C15_16
REMARK   10  A    between atoms: C17_19  and  C19_23
REMARK   11  A    between atoms: C22_26  and  O5_30
REMARK   12  A    between atoms: C24_28  and  O4_29
REMARK                            x       y       z     vdW  Elec       q    Type
REMARK                         _______ _______ _______ _____ _____    ______ ____
ROOT
ATOM      6  C   UNL     1      47.899  19.764  19.769  0.00  0.00    -0.138 A 
ATOM      7  C   UNL     1      48.213  18.509  20.206  0.00  0.00    +0.128 A 
ATOM      8  C   UNL     1      47.252  17.495  20.157  0.00  0.00    -0.253 A 
ATOM      9  C   UNL     1      45.964  17.761  19.656  0.00  0.00    +0.188 A 
ATOM     10  O   UNL     1      45.029  16.785  19.594  0.00  0.00    -0.298 OA
ATOM     11  C   UNL     1      45.165  15.647  20.448  0.00  0.00    +0.282 C 
ATOM     12  C   UNL     1      46.568  15.049  20.277  0.00  0.00    +0.003 C 
ATOM     23  C   UNL     1      45.661  19.040  19.220  0.00  0.00    -0.140 A 
ATOM     29  C   UNL     1      47.567  16.138  20.627  0.00  0.00    +0.411 C 
ATOM     30  O   UNL     1      48.574  15.900  21.261  0.00  0.00    -0.436 OA
ATOM     31  C   UNL     1      46.625  20.037  19.277  0.00  0.00    +0.186 A 
ENDROOT
BRANCH  12  13
ATOM     13  C   UNL     1      46.768  14.609  18.849  0.00  0.00    -0.121 A 
ATOM     14  C   UNL     1      47.749  15.200  18.076  0.00  0.00    +0.067 A 
ATOM     15  C   UNL     1      47.934  14.799  16.766  0.00  0.00    -0.016 A 
ATOM     16  C   UNL     1      47.134  13.802  16.225  0.00  0.00    +0.132 A 
ATOM     19  C   UNL     1      46.150  13.207  16.999  0.00  0.00    -0.034 A 
ATOM     20  C   UNL     1      45.967  13.612  18.313  0.00  0.00    +0.139 A 
BRANCH  16  17
ATOM     17  O   UNL     1      47.317  13.408  14.937  0.00  0.00    -0.496 OA
ATOM     18  H   UNL     1      47.290  12.449  14.812  0.00  0.00    +0.396 HD
ENDBRANCH  16  17
BRANCH  20  21
ATOM     21  O   UNL     1      44.999  13.035  19.073  0.00  0.00    -0.494 OA
ATOM     22  H   UNL     1      44.208  12.781  18.577  0.00  0.00    +0.397 HD
ENDBRANCH  20  21
ENDBRANCH  12  13
BRANCH  31  32
ATOM     32  O   UNL     1      46.324  21.289  18.848  0.00  0.00    -0.483 OA
ATOM     33  H   UNL     1      46.865  21.591  18.107  0.00  0.00    +0.396 HD
ENDBRANCH  31  32
BRANCH   6   5
ATOM      5  C   UNL     1      48.934  20.858  19.820  0.00  0.00    +0.124 C 
BRANCH   5   4
ATOM      1  C   UNL     1      51.734  21.191  19.724  0.00  0.00    +0.073 C 
ATOM      2  C   UNL     1      50.947  21.032  18.449  0.00  0.00    -0.124 C 
ATOM      3  C   UNL     1      51.663  20.978  17.123  0.00  0.00    +0.074 C 
ATOM      4  C   UNL     1      49.641  20.942  18.491  0.00  0.00    -0.059 C 
ENDBRANCH   5   4
ENDBRANCH   6   5
BRANCH  23  24
ATOM     24  C   UNL     1      44.286  19.350  18.687  0.00  0.00    +0.132 C 
BRANCH  24  25
ATOM     25  C   UNL     1      43.255  19.030  19.737  0.00  0.00    -0.052 C 
ATOM     26  C   UNL     1      42.042  19.514  19.633  0.00  0.00    -0.130 C 
ATOM     27  C   UNL     1      41.073  19.371  20.778  0.00  0.00    +0.071 C 
ATOM     28  C   UNL     1      41.616  20.216  18.369  0.00  0.00    +0.074 C 
ENDBRANCH  24  25
ENDBRANCH  23  24
TORSDOF 8
ENDMDL
MODEL 4
REMARK VINA RESULT:      -5.9      4.631      8.689
REMARK  Name = ZINC14780903
REMARK  12 active torsions:
REMARK  status: ('A' for Active; 'I' for Inactive)
REMARK    1  A    between atoms: C1_1  and  C2_2
REMARK    2  A    between atoms: C2_2  and  C25_31
REMARK    3  A    between atoms: C3_3  and  C4_4
REMARK    4  A    between atoms: C4_4  and  C5_5
REMARK    5  A    between atoms: C9_9  and  C11_12
REMARK    6  A    between atoms: C10_10  and  O1_11
REMARK    7  A    between atoms: C11_12  and  C12_13
REMARK    8  A    between atoms: C13_14  and  C14_15
REMARK    9  A    between atoms: C13_14  and  C15_16
REMARK   10  A    between atoms: C17_19  and  C19_23
REMARK   11  A    between atoms: C22_26  and  O5_30
REMARK   12  A    between atoms: C24_28  and  O4_29
REMARK                            x       y       z     vdW  Elec       q    Type
REMARK                         _______ _______ _______ _____ _____    ______ ____
ROOT
ATOM      6  C   UNL     1      52.148  14.767  19.440  0.00  0.00    -0.138 A 
ATOM      7  C   UNL     1      51.638  13.624  18.893  0.00  0.00    +0.128 A 
ATOM      8  C   UNL     1      50.589  13.703  17.972  0.00  0.00    -0.253 A 
ATOM      9  C   UNL     1      50.060  14.954  17.604  0.00  0.00    +0.188 A 
ATOM     10  O   UNL     1      49.052  15.044  16.706  0.00  0.00    -0.298 OA
ATOM     11  C   UNL     1      48.215  13.905  16.495  0.00  0.00    +0.282 C 
ATOM     12  C   UNL     1      49.092  12.681  16.189  0.00  0.00    +0.003 C 
ATOM     23  C   UNL     1      50.586  16.102  18.171  0.00  0.00    -0.140 A 
ATOM     29  C   UNL     1      50.021  12.486  17.374  0.00  0.00    +0.411 C 
ATOM     30  O   UNL     1      50.282  11.382  17.806  0.00  0.00    -0.436 OA
ATOM     31  C   UNL     1      51.626  16.008  19.086  0.00  0.00    +0.186 A 
ENDROOT
BRANCH  12  13
ATOM     13  C   UNL     1      49.898  12.927  14.940  0.00  0.00    -0.121 A 
ATOM     14  C   UNL     1      51.233  13.270  15.037  0.00  0.00    +0.067 A 
ATOM     15  C   UNL     1      51.975  13.496  13.893  0.00  0.00    -0.016 A 
ATOM     16  C   UNL     1      51.380  13.381  12.645  0.00  0.00    +0.132 A 
ATOM     19  C   UNL     1      50.041  13.037  12.545  0.00  0.00    -0.034 A 
ATOM     20  C   UNL     1      49.299  12.810  13.694  0.00  0.00    +0.139 A 
BRANCH  16  17
ATOM     17  O   UNL     1      52.110  13.604  11.520  0.00  0.00    -0.496 OA
ATOM     18  H   UNL     1      52.882  14.170  11.659  0.00  0.00    +0.396 HD
ENDBRANCH  16  17
BRANCH  20  21
ATOM     21  O   UNL     1      47.985  12.479  13.601  0.00  0.00    -0.494 OA
ATOM     22  H   UNL     1      47.513  12.499  14.445  0.00  0.00    +0.397 HD
ENDBRANCH  20  21
ENDBRANCH  12  13
BRANCH  31  32
ATOM     32  O   UNL     1      52.140  17.136  19.638  0.00  0.00    -0.483 OA
ATOM     33  H   UNL     1      51.649  17.940  19.419  0.00  0.00    +0.396 HD
ENDBRANCH  31  32
BRANCH   6   5
ATOM      5  C   UNL     1      53.280  14.684  20.432  0.00  0.00    +0.124 C 
BRANCH   5   4
ATOM      1  C   UNL     1      55.925  15.081  19.536  0.00  0.00    +0.073 C 
ATOM      2  C   UNL     1      55.399  13.685  19.745  0.00  0.00    -0.124 C 
ATOM      3  C   UNL     1      56.309  12.499  19.546  0.00  0.00    +0.074 C 
ATOM      4  C   UNL     1      54.151  13.500  20.100  0.00  0.00    -0.059 C 
ENDBRANCH   5   4
ENDBRANCH   6   5
BRANCH  23  24
ATOM     24  C   UNL     1      50.031  17.452  17.797  0.00  0.00    +0.132 C 
BRANCH  24  25
ATOM     25  C   UNL     1      50.897  18.076  16.733  0.00  0.00    -0.052 C 
ATOM     26  C   UNL     1      51.249  19.334  16.829  0.00  0.00    -0.130 C 
ATOM     27  C   UNL     1      51.935  20.015  15.673  0.00  0.00    +0.071 C 
ATOM     28  C   UNL     1      50.968  20.101  18.096  0.00  0.00    +0.074 C 
ENDBRANCH  24  25
ENDBRANCH  23  24
TORSDOF 8
ENDMDL
MODEL 5
REMARK VINA RESULT:      -5.8      1.368      1.853
REMARK  Name = ZINC14780903
REMARK  12 active torsions:
REMARK  status: ('A' for Active; 'I' for Inactive)
REMARK    1  A    between atoms: C1_1  and  C2_2
REMARK    2  A    between atoms: C2_2  and  C25_31
REMARK    3  A    between atoms: C3_3  and  C4_4
REMARK    4  A    between atoms: C4_4  and  C5_5
REMARK    5  A    between atoms: C9_9  and  C11_12
REMARK    6  A    between atoms: C10_10  and  O1_11
REMARK    7  A    between atoms: C11_12  and  C12_13
REMARK    8  A    between atoms: C13_14  and  C14_15
REMARK    9  A    between atoms: C13_14  and  C15_16
REMARK   10  A    between atoms: C17_19  and  C19_23
REMARK   11  A    between atoms: C22_26  and  O5_30
REMARK   12  A    between atoms: C24_28  and  O4_29
REMARK                            x       y       z     vdW  Elec       q    Type
REMARK                         _______ _______ _______ _____ _____    ______ ____
ROOT
ATOM      6  C   UNL     1      46.940  18.138  20.753  0.00  0.00    -0.138 A 
ATOM      7  C   UNL     1      48.283  18.260  20.965  0.00  0.00    +0.128 A 
ATOM      8  C   UNL     1      49.184  17.771  20.015  0.00  0.00    -0.253 A 
ATOM      9  C   UNL     1      48.711  17.158  18.839  0.00  0.00    +0.188 A 
ATOM     10  O   UNL     1      49.573  16.691  17.906  0.00  0.00    -0.298 OA
ATOM     11  C   UNL     1      50.911  16.380  18.300  0.00  0.00    +0.282 C 
ATOM     12  C   UNL     1      51.520  17.589  19.026  0.00  0.00    +0.003 C 
ATOM     23  C   UNL     1      47.346  17.040  18.641  0.00  0.00    -0.140 A 
ATOM     29  C   UNL     1      50.634  17.886  20.224  0.00  0.00    +0.411 C 
ATOM     30  O   UNL     1      51.100  18.203  21.299  0.00  0.00    -0.436 OA
ATOM     31  C   UNL     1      46.464  17.528  19.595  0.00  0.00    +0.186 A 
ENDROOT
BRANCH  12  13
ATOM     13  C   UNL     1      51.551  18.779  18.104  0.00  0.00    -0.121 A 
ATOM     14  C   UNL     1      51.194  20.028  18.576  0.00  0.00    +0.067 A 
ATOM     15  C   UNL     1      51.222  21.122  17.731  0.00  0.00    -0.016 A 
ATOM     16  C   UNL     1      51.607  20.968  16.407  0.00  0.00    +0.132 A 
ATOM     19  C   UNL     1      51.965  19.716  15.931  0.00  0.00    -0.034 A 
ATOM     20  C   UNL     1      51.937  18.621  16.781  0.00  0.00    +0.139 A 
BRANCH  16  17
ATOM     17  O   UNL     1      51.634  22.044  15.577  0.00  0.00    -0.496 OA
ATOM     18  H   UNL     1      50.764  22.428  15.403  0.00  0.00    +0.396 HD
ENDBRANCH  16  17
BRANCH  20  21
ATOM     21  O   UNL     1      52.282  17.391  16.316  0.00  0.00    -0.494 OA
ATOM     22  H   UNL     1      53.035  17.397  15.710  0.00  0.00    +0.397 HD
ENDBRANCH  20  21
ENDBRANCH  12  13
BRANCH  31  32
ATOM     32  O   UNL     1      45.127  17.411  19.397  0.00  0.00    -0.483 OA
ATOM     33  H   UNL     1      44.685  18.247  19.192  0.00  0.00    +0.396 HD
ENDBRANCH  31  32
BRANCH   6   5
ATOM      5  C   UNL     1      45.967  18.666  21.777  0.00  0.00    +0.124 C 
BRANCH   5   4
ATOM      1  C   UNL     1      44.000  20.464  20.854  0.00  0.00    +0.073 C 
ATOM      2  C   UNL     1      45.222  20.981  21.566  0.00  0.00    -0.124 C 
ATOM      3  C   UNL     1      45.361  22.456  21.850  0.00  0.00    +0.074 C 
ATOM      4  C   UNL     1      46.165  20.151  21.937  0.00  0.00    -0.059 C 
ENDBRANCH   5   4
ENDBRANCH   6   5
BRANCH  23  24
ATOM     24  C   UNL     1      46.817  16.382  17.393  0.00  0.00    +0.132 C 
BRANCH  24  25
ATOM     25  C   UNL     1      46.305  15.005  17.729  0.00  0.00    -0.052 C 
ATOM     26  C   UNL     1      46.845  13.951  17.171  0.00  0.00    -0.130 C 
ATOM     27  C   UNL     1      46.206  12.597  17.341  0.00  0.00    +0.071 C 
ATOM     28  C   UNL     1      48.106  14.091  16.357  0.00  0.00    +0.074 C 
ENDBRANCH  24  25
ENDBRANCH  23  24
TORSDOF 8
ENDMDL
MODEL 6
REMARK VINA RESULT:      -5.8      1.775      7.153
REMARK  Name = ZINC14780903
REMARK  12 active torsions:
REMARK  status: ('A' for Active; 'I' for Inactive)
REMARK    1  A    between atoms: C1_1  and  C2_2
REMARK    2  A    between atoms: C2_2  and  C25_31
REMARK    3  A    between atoms: C3_3  and  C4_4
REMARK    4  A    between atoms: C4_4  and  C5_5
REMARK    5  A    between atoms: C9_9  and  C11_12
REMARK    6  A    between atoms: C10_10  and  O1_11
REMARK    7  A    between atoms: C11_12  and  C12_13
REMARK    8  A    between atoms: C13_14  and  C14_15
REMARK    9  A    between atoms: C13_14  and  C15_16
REMARK   10  A    between atoms: C17_19  and  C19_23
REMARK   11  A    between atoms: C22_26  and  O5_30
REMARK   12  A    between atoms: C24_28  and  O4_29
REMARK                            x       y       z     vdW  Elec       q    Type
REMARK                         _______ _______ _______ _____ _____    ______ ____
ROOT
ATOM      6  C   UNL     1      46.957  17.004  17.995  0.00  0.00    -0.138 A 
ATOM      7  C   UNL     1      45.913  17.270  18.834  0.00  0.00    +0.128 A 
ATOM      8  C   UNL     1      46.079  18.178  19.884  0.00  0.00    -0.253 A 
ATOM      9  C   UNL     1      47.316  18.821  20.077  0.00  0.00    +0.188 A 
ATOM     10  O   UNL     1      47.486  19.710  21.082  0.00  0.00    -0.298 OA
ATOM     11  C   UNL     1      46.610  19.648  22.210  0.00  0.00    +0.282 C 
ATOM     12  C   UNL     1      45.154  19.669  21.724  0.00  0.00    +0.003 C 
ATOM     23  C   UNL     1      48.365  18.537  19.219  0.00  0.00    -0.140 A 
ATOM     29  C   UNL     1      44.970  18.476  20.802  0.00  0.00    +0.411 C 
ATOM     30  O   UNL     1      43.960  17.803  20.822  0.00  0.00    -0.436 OA
ATOM     31  C   UNL     1      48.185  17.631  18.182  0.00  0.00    +0.186 A 
ENDROOT
BRANCH  12  13
ATOM     13  C   UNL     1      44.883  20.945  20.970  0.00  0.00    -0.121 A 
ATOM     14  C   UNL     1      45.851  21.929  20.909  0.00  0.00    +0.067 A 
ATOM     15  C   UNL     1      45.605  23.101  20.219  0.00  0.00    -0.016 A 
ATOM     16  C   UNL     1      44.385  23.292  19.586  0.00  0.00    +0.132 A 
ATOM     19  C   UNL     1      43.413  22.306  19.645  0.00  0.00    -0.034 A 
ATOM     20  C   UNL     1      43.662  21.132  20.339  0.00  0.00    +0.139 A 
BRANCH  16  17
ATOM     17  O   UNL     1      44.143  24.445  18.907  0.00  0.00    -0.496 OA
ATOM     18  H   UNL     1      43.578  24.332  18.130  0.00  0.00    +0.396 HD
ENDBRANCH  16  17
BRANCH  20  21
ATOM     21  O   UNL     1      42.709  20.165  20.404  0.00  0.00    -0.494 OA
ATOM     22  H   UNL     1      42.825  19.547  21.139  0.00  0.00    +0.397 HD
ENDBRANCH  20  21
ENDBRANCH  12  13
BRANCH  31  32
ATOM     32  O   UNL     1      49.216  17.356  17.343  0.00  0.00    -0.483 OA
ATOM     33  H   UNL     1      50.051  17.172  17.794  0.00  0.00    +0.396 HD
ENDBRANCH  31  32
BRANCH   6   5
ATOM      5  C   UNL     1      46.779  16.026  16.862  0.00  0.00    +0.124 C 
BRANCH   5   4
ATOM      1  C   UNL     1      48.685  13.964  16.598  0.00  0.00    +0.073 C 
ATOM      2  C   UNL     1      47.406  13.718  17.354  0.00  0.00    -0.124 C 
ATOM      3  C   UNL     1      47.174  12.392  18.033  0.00  0.00    +0.074 C 
ATOM      4  C   UNL     1      46.493  14.656  17.422  0.00  0.00    -0.059 C 
ENDBRANCH   5   4
ENDBRANCH   6   5
BRANCH  23  24
ATOM     24  C   UNL     1      49.700  19.209  19.410  0.00  0.00    +0.132 C 
BRANCH  24  25
ATOM     25  C   UNL     1      49.936  20.188  18.289  0.00  0.00    -0.052 C 
ATOM     26  C   UNL     1      51.101  20.231  17.692  0.00  0.00    -0.130 C 
ATOM     27  C   UNL     1      51.409  21.340  16.719  0.00  0.00    +0.071 C 
ATOM     28  C   UNL     1      52.135  19.172  17.978  0.00  0.00    +0.074 C 
ENDBRANCH  24  25
ENDBRANCH  23  24
TORSDOF 8
ENDMDL
MODEL 7
REMARK VINA RESULT:      -5.4      3.792      7.963
REMARK  Name = ZINC14780903
REMARK  12 active torsions:
REMARK  status: ('A' for Active; 'I' for Inactive)
REMARK    1  A    between atoms: C1_1  and  C2_2
REMARK    2  A    between atoms: C2_2  and  C25_31
REMARK    3  A    between atoms: C3_3  and  C4_4
REMARK    4  A    between atoms: C4_4  and  C5_5
REMARK    5  A    between atoms: C9_9  and  C11_12
REMARK    6  A    between atoms: C10_10  and  O1_11
REMARK    7  A    between atoms: C11_12  and  C12_13
REMARK    8  A    between atoms: C13_14  and  C14_15
REMARK    9  A    between atoms: C13_14  and  C15_16
REMARK   10  A    between atoms: C17_19  and  C19_23
REMARK   11  A    between atoms: C22_26  and  O5_30
REMARK   12  A    between atoms: C24_28  and  O4_29
REMARK                            x       y       z     vdW  Elec       q    Type
REMARK                         _______ _______ _______ _____ _____    ______ ____
ROOT
ATOM      6  C   UNL     1      50.702  13.687  17.005  0.00  0.00    -0.138 A 
ATOM      7  C   UNL     1      49.765  14.673  16.880  0.00  0.00    +0.128 A 
ATOM      8  C   UNL     1      49.759  15.744  17.778  0.00  0.00    -0.253 A 
ATOM      9  C   UNL     1      50.717  15.813  18.806  0.00  0.00    +0.188 A 
ATOM     10  O   UNL     1      50.729  16.851  19.675  0.00  0.00    -0.298 OA
ATOM     11  C   UNL     1      49.529  17.604  19.862  0.00  0.00    +0.282 C 
ATOM     12  C   UNL     1      48.999  18.062  18.495  0.00  0.00    +0.003 C 
ATOM     23  C   UNL     1      51.658  14.804  18.920  0.00  0.00    -0.140 A 
ATOM     29  C   UNL     1      48.757  16.813  17.666  0.00  0.00    +0.411 C 
ATOM     30  O   UNL     1      47.785  16.704  16.947  0.00  0.00    -0.436 OA
ATOM     31  C   UNL     1      51.650  13.745  18.023  0.00  0.00    +0.186 A 
ENDROOT
BRANCH  12  13
ATOM     13  C   UNL     1      50.020  18.938  17.817  0.00  0.00    -0.121 A 
ATOM     14  C   UNL     1      50.728  18.459  16.730  0.00  0.00    +0.067 A 
ATOM     15  C   UNL     1      51.665  19.261  16.105  0.00  0.00    -0.016 A 
ATOM     16  C   UNL     1      51.898  20.548  16.569  0.00  0.00    +0.132 A 
ATOM     19  C   UNL     1      51.189  21.030  17.658  0.00  0.00    -0.034 A 
ATOM     20  C   UNL     1      50.250  20.224  18.283  0.00  0.00    +0.139 A 
BRANCH  16  17
ATOM     17  O   UNL     1      52.820  21.335  15.955  0.00  0.00    -0.496 OA
ATOM     18  H   UNL     1      53.637  21.450  16.459  0.00  0.00    +0.396 HD
ENDBRANCH  16  17
BRANCH  20  21
ATOM     21  O   UNL     1      49.558  20.692  19.355  0.00  0.00    -0.494 OA
ATOM     22  H   UNL     1      48.811  20.134  19.615  0.00  0.00    +0.397 HD
ENDBRANCH  20  21
ENDBRANCH  12  13
BRANCH  31  32
ATOM     32  O   UNL     1      52.575  12.758  18.138  0.00  0.00    -0.483 OA
ATOM     33  H   UNL     1      53.374  12.906  17.615  0.00  0.00    +0.396 HD
ENDBRANCH  31  32
BRANCH   6   5
ATOM      5  C   UNL     1      50.710  12.532  16.036  0.00  0.00    +0.124 C 
BRANCH   5   4
ATOM      1  C   UNL     1      50.947  10.740  13.871  0.00  0.00    +0.073 C 
ATOM      2  C   UNL     1      50.870  12.224  13.620  0.00  0.00    -0.124 C 
ATOM      3  C   UNL     1      50.847  12.749  12.207  0.00  0.00    +0.074 C 
ATOM      4  C   UNL     1      50.824  13.058  14.629  0.00  0.00    -0.059 C 
ENDBRANCH   5   4
ENDBRANCH   6   5
BRANCH  23  24
ATOM     24  C   UNL     1      52.690  14.853  20.018  0.00  0.00    +0.132 C 
BRANCH  24  25
ATOM     25  C   UNL     1      54.000  15.343  19.456  0.00  0.00    -0.052 C 
ATOM     26  C   UNL     1      55.113  14.721  19.754  0.00  0.00    -0.130 C 
ATOM     27  C   UNL     1      56.440  15.324  19.368  0.00  0.00    +0.071 C 
ATOM     28  C   UNL     1      55.069  13.403  20.485  0.00  0.00    +0.074 C 
ENDBRANCH  24  25
ENDBRANCH  23  24
TORSDOF 8
ENDMDL
MODEL 8
REMARK VINA RESULT:      -5.1      2.579      6.452
REMARK  Name = ZINC14780903
REMARK  12 active torsions:
REMARK  status: ('A' for Active; 'I' for Inactive)
REMARK    1  A    between atoms: C1_1  and  C2_2
REMARK    2  A    between atoms: C2_2  and  C25_31
REMARK    3  A    between atoms: C3_3  and  C4_4
REMARK    4  A    between atoms: C4_4  and  C5_5
REMARK    5  A    between atoms: C9_9  and  C11_12
REMARK    6  A    between atoms: C10_10  and  O1_11
REMARK    7  A    between atoms: C11_12  and  C12_13
REMARK    8  A    between atoms: C13_14  and  C14_15
REMARK    9  A    between atoms: C13_14  and  C15_16
REMARK   10  A    between atoms: C17_19  and  C19_23
REMARK   11  A    between atoms: C22_26  and  O5_30
REMARK   12  A    between atoms: C24_28  and  O4_29
REMARK                            x       y       z     vdW  Elec       q    Type
REMARK                         _______ _______ _______ _____ _____    ______ ____
ROOT
ATOM      6  C   UNL     1      49.725  18.098  19.738  0.00  0.00    -0.138 A 
ATOM      7  C   UNL     1      49.361  16.910  20.305  0.00  0.00    +0.128 A 
ATOM      8  C   UNL     1      48.051  16.445  20.163  0.00  0.00    -0.253 A 
ATOM      9  C   UNL     1      47.107  17.194  19.436  0.00  0.00    +0.188 A 
ATOM     10  O   UNL     1      45.838  16.749  19.282  0.00  0.00    -0.298 OA
ATOM     11  C   UNL     1      45.323  15.803  20.222  0.00  0.00    +0.282 C 
ATOM     12  C   UNL     1      46.292  14.617  20.330  0.00  0.00    +0.003 C 
ATOM     23  C   UNL     1      47.492  18.397  18.870  0.00  0.00    -0.140 A 
ATOM     29  C   UNL     1      47.635  15.172  20.770  0.00  0.00    +0.411 C 
ATOM     30  O   UNL     1      48.331  14.594  21.579  0.00  0.00    -0.436 OA
ATOM     31  C   UNL     1      48.796  18.847  19.021  0.00  0.00    +0.186 A 
ENDROOT
BRANCH  12  13
ATOM     13  C   UNL     1      46.429  13.942  18.990  0.00  0.00    -0.121 A 
ATOM     14  C   UNL     1      47.583  14.110  18.248  0.00  0.00    +0.067 A 
ATOM     15  C   UNL     1      47.711  13.492  17.018  0.00  0.00    -0.016 A 
ATOM     16  C   UNL     1      46.682  12.703  16.526  0.00  0.00    +0.132 A 
ATOM     19  C   UNL     1      45.524  12.533  17.269  0.00  0.00    -0.034 A 
ATOM     20  C   UNL     1      45.398  13.154  18.502  0.00  0.00    +0.139 A 
BRANCH  16  17
ATOM     17  O   UNL     1      46.809  12.096  15.316  0.00  0.00    -0.496 OA
ATOM     18  H   UNL     1      47.596  12.364  14.823  0.00  0.00    +0.396 HD
ENDBRANCH  16  17
BRANCH  20  21
ATOM     21  O   UNL     1      44.261  12.994  19.230  0.00  0.00    -0.494 OA
ATOM     22  H   UNL     1      44.368  13.186  20.172  0.00  0.00    +0.397 HD
ENDBRANCH  20  21
ENDBRANCH  12  13
BRANCH  31  32
ATOM     32  O   UNL     1      49.169  20.027  18.464  0.00  0.00    -0.483 OA
ATOM     33  H   UNL     1      49.133  20.778  19.072  0.00  0.00    +0.396 HD
ENDBRANCH  31  32
BRANCH   6   5
ATOM      5  C   UNL     1      51.139  18.600  19.888  0.00  0.00    +0.124 C 
BRANCH   5   4
ATOM      1  C   UNL     1      52.271  21.172  19.648  0.00  0.00    +0.073 C 
ATOM      2  C   UNL     1      51.691  20.721  20.963  0.00  0.00    -0.124 C 
ATOM      3  C   UNL     1      51.651  21.671  22.134  0.00  0.00    +0.074 C 
ATOM      4  C   UNL     1      51.224  19.504  21.091  0.00  0.00    -0.059 C 
ENDBRANCH   5   4
ENDBRANCH   6   5
BRANCH  23  24
ATOM     24  C   UNL     1      46.496  19.219  18.092  0.00  0.00    +0.132 C 
BRANCH  24  25
ATOM     25  C   UNL     1      46.151  20.462  18.871  0.00  0.00    -0.052 C 
ATOM     26  C   UNL     1      44.897  20.787  19.063  0.00  0.00    -0.130 C 
ATOM     27  C   UNL     1      44.549  22.128  19.657  0.00  0.00    +0.071 C 
ATOM     28  C   UNL     1      43.802  19.821  18.689  0.00  0.00    +0.074 C 
ENDBRANCH  24  25
ENDBRANCH  23  24
TORSDOF 8
ENDMDL
MODEL 9
REMARK VINA RESULT:      -5.1      2.090      5.793
REMARK  Name = ZINC14780903
REMARK  12 active torsions:
REMARK  status: ('A' for Active; 'I' for Inactive)
REMARK    1  A    between atoms: C1_1  and  C2_2
REMARK    2  A    between atoms: C2_2  and  C25_31
REMARK    3  A    between atoms: C3_3  and  C4_4
REMARK    4  A    between atoms: C4_4  and  C5_5
REMARK    5  A    between atoms: C9_9  and  C11_12
REMARK    6  A    between atoms: C10_10  and  O1_11
REMARK    7  A    between atoms: C11_12  and  C12_13
REMARK    8  A    between atoms: C13_14  and  C14_15
REMARK    9  A    between atoms: C13_14  and  C15_16
REMARK   10  A    between atoms: C17_19  and  C19_23
REMARK   11  A    between atoms: C22_26  and  O5_30
REMARK   12  A    between atoms: C24_28  and  O4_29
REMARK                            x       y       z     vdW  Elec       q    Type
REMARK                         _______ _______ _______ _____ _____    ______ ____
ROOT
ATOM      6  C   UNL     1      48.474  15.546  19.731  0.00  0.00    -0.138 A 
ATOM      7  C   UNL     1      49.807  15.696  19.476  0.00  0.00    +0.128 A 
ATOM      8  C   UNL     1      50.254  16.794  18.736  0.00  0.00    -0.253 A 
ATOM      9  C   UNL     1      49.336  17.748  18.257  0.00  0.00    +0.188 A 
ATOM     10  O   UNL     1      49.757  18.821  17.549  0.00  0.00    -0.298 OA
ATOM     11  C   UNL     1      51.020  18.754  16.885  0.00  0.00    +0.282 C 
ATOM     12  C   UNL     1      52.100  18.323  17.889  0.00  0.00    +0.003 C 
ATOM     23  C   UNL     1      47.988  17.579  18.522  0.00  0.00    -0.140 A 
ATOM     29  C   UNL     1      51.683  16.973  18.445  0.00  0.00    +0.411 C 
ATOM     30  O   UNL     1      52.490  16.087  18.640  0.00  0.00    -0.436 OA
ATOM     31  C   UNL     1      47.558  16.481  19.256  0.00  0.00    +0.186 A 
ENDROOT
BRANCH  12  13
ATOM     13  C   UNL     1      52.193  19.331  19.005  0.00  0.00    -0.121 A 
ATOM     14  C   UNL     1      52.081  18.918  20.319  0.00  0.00    +0.067 A 
ATOM     15  C   UNL     1      52.167  19.841  21.345  0.00  0.00    -0.016 A 
ATOM     16  C   UNL     1      52.364  21.184  21.056  0.00  0.00    +0.132 A 
ATOM     19  C   UNL     1      52.476  21.601  19.739  0.00  0.00    -0.034 A 
ATOM     20  C   UNL     1      52.390  20.673  18.713  0.00  0.00    +0.139 A 
BRANCH  16  17
ATOM     17  O   UNL     1      52.447  22.091  22.066  0.00  0.00    -0.496 OA
ATOM     18  H   UNL     1      51.698  22.068  22.678  0.00  0.00    +0.396 HD
ENDBRANCH  16  17
BRANCH  20  21
ATOM     21  O   UNL     1      52.494  21.078  17.420  0.00  0.00    -0.494 OA
ATOM     22  H   UNL     1      52.961  21.919  17.307  0.00  0.00    +0.397 HD
ENDBRANCH  20  21
ENDBRANCH  12  13
BRANCH  31  32
ATOM     32  O   UNL     1      46.236  16.320  19.514  0.00  0.00    -0.483 OA
ATOM     33  H   UNL     1      45.666  16.950  19.053  0.00  0.00    +0.396 HD
ENDBRANCH  31  32
BRANCH   6   5
ATOM      5  C   UNL     1      47.990  14.362  20.530  0.00  0.00    +0.124 C 
BRANCH   5   4
ATOM      1  C   UNL     1      46.212  12.985  18.827  0.00  0.00    +0.073 C 
ATOM      2  C   UNL     1      47.621  12.485  19.013  0.00  0.00    -0.124 C 
ATOM      3  C   UNL     1      48.105  11.289  18.232  0.00  0.00    +0.074 C 
ATOM      4  C   UNL     1      48.426  13.088  19.852  0.00  0.00    -0.059 C 
ENDBRANCH   5   4
ENDBRANCH   6   5
BRANCH  23  24
ATOM     24  C   UNL     1      46.986  18.583  18.013  0.00  0.00    +0.132 C 
BRANCH  24  25
ATOM     25  C   UNL     1      46.925  19.756  18.958  0.00  0.00    -0.052 C 
ATOM     26  C   UNL     1      45.791  20.383  19.150  0.00  0.00    -0.130 C 
ATOM     27  C   UNL     1      45.767  21.675  19.926  0.00  0.00    +0.071 C 
ATOM     28  C   UNL     1      44.511  19.813  18.596  0.00  0.00    +0.074 C 
ENDBRANCH  24  25
ENDBRANCH  23  24
TORSDOF 8
ENDMDL
