MODEL 1
REMARK VINA RESULT:      -6.6      0.000      0.000
REMARK  Name = ZINC95486110
REMARK  9 active torsions:
REMARK  status: ('A' for Active; 'I' for Inactive)
REMARK    1  A    between atoms: C1_1  and  C2_2
REMARK    2  A    between atoms: C2_2  and  C3_4
REMARK    3  A    between atoms: C3_4  and  C31_37
REMARK    4  A    between atoms: C7_8  and  C30_36
REMARK    5  A    between atoms: C11_13  and  C29_35
REMARK    6  A    between atoms: C15_18  and  C28_34
REMARK    7  A    between atoms: C19_22  and  C27_31
REMARK    8  A    between atoms: C22_26  and  C25_29
REMARK    9  A    between atoms: C22_26  and  C26_30
REMARK                            x       y       z     vdW  Elec       q    Type
REMARK                         _______ _______ _______ _____ _____    ______ ____
ROOT
ATOM      3  C   UNL     1      43.796  19.946  20.172  0.00  0.00    -0.091 C 
ATOM      4  C   UNL     1      42.308  19.537  20.032  0.00  0.00    +0.040 C 
ATOM      5  C   UNL     1      44.005  21.127  19.223  0.00  0.00    +0.030 C 
ATOM      6  C   UNL     1      45.482  21.421  18.992  0.00  0.00    +0.000 C 
ATOM      7  C   UNL     1      46.188  20.178  18.456  0.00  0.00    +0.011 C 
ATOM      8  C   UNL     1      46.119  19.057  19.509  0.00  0.00    -0.035 C 
ATOM      9  C   UNL     1      46.891  19.524  20.732  0.00  0.00    +0.027 C 
ATOM     10  C   UNL     1      46.716  17.788  18.893  0.00  0.00    +0.002 C 
ATOM     11  C   UNL     1      48.135  17.957  18.403  0.00  0.00    +0.004 C 
ATOM     12  C   UNL     1      48.651  16.747  17.631  0.00  0.00    +0.014 C 
ATOM     13  C   UNL     1      47.706  15.549  17.620  0.00  0.00    +0.014 C 
ATOM     14  C   UNL     1      46.588  15.839  16.613  0.00  0.00    +0.006 C 
ATOM     15  C   UNL     1      47.091  15.347  18.970  0.00  0.00    -0.115 C 
ATOM     16  C   UNL     1      46.987  14.183  19.557  0.00  0.00    -0.015 C 
ATOM     17  C   UNL     1      47.569  12.940  18.938  0.00  0.00    +0.048 C 
ATOM     18  C   UNL     1      48.855  13.378  18.221  0.00  0.00    -0.113 C 
ATOM     22  C   UNL     1      49.593  12.153  17.689  0.00  0.00    +0.016 C 
ATOM     23  C   UNL     1      48.706  11.403  16.701  0.00  0.00    +0.001 C 
ATOM     24  C   UNL     1      48.329  12.310  15.538  0.00  0.00    -0.065 C 
ATOM     25  C   UNL     1      49.564  12.662  14.707  0.00  0.00    +0.016 C 
ATOM     26  C   UNL     1      47.337  11.561  14.631  0.00  0.00    +0.006 C 
ATOM     27  C   UNL     1      47.651  13.590  16.031  0.00  0.00    +0.016 C 
ATOM     28  C   UNL     1      48.458  14.322  17.095  0.00  0.00    +0.020 C 
ATOM     29  C   UNL     1      46.563  16.546  19.753  0.00  0.00    +0.003 C 
ATOM     30  C   UNL     1      47.383  16.595  21.052  0.00  0.00    +0.030 C 
ATOM     31  C   UNL     1      45.088  16.327  20.097  0.00  0.00    +0.009 C 
ATOM     32  C   UNL     1      44.519  17.587  20.766  0.00  0.00    +0.016 C 
ATOM     33  C   UNL     1      44.650  18.757  19.795  0.00  0.00    +0.009 C 
ENDROOT
BRANCH   3   2
ATOM      1  C   UNL     1      44.675  21.703  21.888  0.00  0.00    +0.048 C 
ATOM      2  C   UNL     1      43.999  20.388  21.596  0.00  0.00    +0.359 C 
ATOM     34  O   UNL     1      43.620  19.689  22.505  0.00  0.00    -0.434 OA
ENDBRANCH   3   2
BRANCH  18  19
ATOM     19  C   UNL     1      49.769  14.069  19.204  0.00  0.00    +0.513 C 
ATOM     20  O   UNL     1      49.637  13.875  20.401  0.00  0.00    -0.705 OA
ATOM     21  O   UNL     1      50.640  14.822  18.802  0.00  0.00    -0.686 OA
ENDBRANCH  18  19
TORSDOF 2
ENDMDL
MODEL 2
REMARK VINA RESULT:      -6.6      3.159      4.504
REMARK  Name = ZINC95486110
REMARK  9 active torsions:
REMARK  status: ('A' for Active; 'I' for Inactive)
REMARK    1  A    between atoms: C1_1  and  C2_2
REMARK    2  A    between atoms: C2_2  and  C3_4
REMARK    3  A    between atoms: C3_4  and  C31_37
REMARK    4  A    between atoms: C7_8  and  C30_36
REMARK    5  A    between atoms: C11_13  and  C29_35
REMARK    6  A    between atoms: C15_18  and  C28_34
REMARK    7  A    between atoms: C19_22  and  C27_31
REMARK    8  A    between atoms: C22_26  and  C25_29
REMARK    9  A    between atoms: C22_26  and  C26_30
REMARK                            x       y       z     vdW  Elec       q    Type
REMARK                         _______ _______ _______ _____ _____    ______ ____
ROOT
ATOM      3  C   UNL     1      44.623  20.718  20.987  0.00  0.00    -0.091 C 
ATOM      4  C   UNL     1      44.327  20.626  22.505  0.00  0.00    +0.040 C 
ATOM      5  C   UNL     1      43.496  19.958  20.286  0.00  0.00    +0.030 C 
ATOM      6  C   UNL     1      43.825  19.667  18.827  0.00  0.00    +0.000 C 
ATOM      7  C   UNL     1      45.133  18.887  18.727  0.00  0.00    +0.011 C 
ATOM      8  C   UNL     1      46.285  19.748  19.277  0.00  0.00    -0.035 C 
ATOM      9  C   UNL     1      46.417  20.970  18.381  0.00  0.00    +0.027 C 
ATOM     10  C   UNL     1      47.556  18.893  19.287  0.00  0.00    +0.002 C 
ATOM     11  C   UNL     1      47.924  18.332  17.934  0.00  0.00    +0.004 C 
ATOM     12  C   UNL     1      49.080  17.339  17.990  0.00  0.00    +0.014 C 
ATOM     13  C   UNL     1      49.739  17.207  19.361  0.00  0.00    +0.014 C 
ATOM     14  C   UNL     1      48.826  16.346  20.241  0.00  0.00    +0.006 C 
ATOM     15  C   UNL     1      49.895  18.549  20.006  0.00  0.00    -0.115 C 
ATOM     16  C   UNL     1      50.987  18.947  20.604  0.00  0.00    -0.015 C 
ATOM     17  C   UNL     1      52.228  18.095  20.617  0.00  0.00    +0.048 C 
ATOM     18  C   UNL     1      52.260  17.363  19.267  0.00  0.00    -0.113 C 
ATOM     22  C   UNL     1      53.568  16.587  19.130  0.00  0.00    +0.016 C 
ATOM     23  C   UNL     1      53.679  15.561  20.253  0.00  0.00    +0.001 C 
ATOM     24  C   UNL     1      52.507  14.590  20.198  0.00  0.00    -0.065 C 
ATOM     25  C   UNL     1      52.574  13.736  18.930  0.00  0.00    +0.016 C 
ATOM     26  C   UNL     1      52.588  13.652  21.414  0.00  0.00    +0.006 C 
ATOM     27  C   UNL     1      51.171  15.332  20.256  0.00  0.00    +0.016 C 
ATOM     28  C   UNL     1      51.054  16.436  19.213  0.00  0.00    +0.020 C 
ATOM     29  C   UNL     1      48.744  19.552  19.964  0.00  0.00    +0.003 C 
ATOM     30  C   UNL     1      49.281  20.777  19.206  0.00  0.00    +0.030 C 
ATOM     31  C   UNL     1      48.371  19.966  21.389  0.00  0.00    +0.009 C 
ATOM     32  C   UNL     1      47.129  20.869  21.357  0.00  0.00    +0.016 C 
ATOM     33  C   UNL     1      45.975  20.092  20.731  0.00  0.00    +0.009 C 
ENDROOT
BRANCH   3   2
ATOM      1  C   UNL     1      45.464  23.165  21.316  0.00  0.00    +0.048 C 
ATOM      2  C   UNL     1      44.570  22.175  20.616  0.00  0.00    +0.359 C 
ATOM     34  O   UNL     1      43.810  22.552  19.755  0.00  0.00    -0.434 OA
ENDBRANCH   3   2
BRANCH  18  19
ATOM     19  C   UNL     1      52.211  18.373  18.145  0.00  0.00    +0.513 C 
ATOM     20  O   UNL     1      51.820  18.039  17.040  0.00  0.00    -0.705 OA
ATOM     21  O   UNL     1      52.563  19.523  18.344  0.00  0.00    -0.686 OA
ENDBRANCH  18  19
TORSDOF 2
ENDMDL
MODEL 3
REMARK VINA RESULT:      -6.6      3.514      4.560
REMARK  Name = ZINC95486110
REMARK  9 active torsions:
REMARK  status: ('A' for Active; 'I' for Inactive)
REMARK    1  A    between atoms: C1_1  and  C2_2
REMARK    2  A    between atoms: C2_2  and  C3_4
REMARK    3  A    between atoms: C3_4  and  C31_37
REMARK    4  A    between atoms: C7_8  and  C30_36
REMARK    5  A    between atoms: C11_13  and  C29_35
REMARK    6  A    between atoms: C15_18  and  C28_34
REMARK    7  A    between atoms: C19_22  and  C27_31
REMARK    8  A    between atoms: C22_26  and  C25_29
REMARK    9  A    between atoms: C22_26  and  C26_30
REMARK                            x       y       z     vdW  Elec       q    Type
REMARK                         _______ _______ _______ _____ _____    ______ ____
ROOT
ATOM      3  C   UNL     1      50.369  20.405  19.374  0.00  0.00    -0.091 C 
ATOM      4  C   UNL     1      49.079  20.977  20.014  0.00  0.00    +0.040 C 
ATOM      5  C   UNL     1      50.556  21.152  18.051  0.00  0.00    +0.030 C 
ATOM      6  C   UNL     1      51.578  20.471  17.150  0.00  0.00    +0.000 C 
ATOM      7  C   UNL     1      51.169  19.024  16.889  0.00  0.00    +0.011 C 
ATOM      8  C   UNL     1      51.164  18.246  18.218  0.00  0.00    -0.035 C 
ATOM      9  C   UNL     1      52.590  18.226  18.747  0.00  0.00    +0.027 C 
ATOM     10  C   UNL     1      50.624  16.839  17.944  0.00  0.00    +0.002 C 
ATOM     11  C   UNL     1      51.404  16.078  16.899  0.00  0.00    +0.004 C 
ATOM     12  C   UNL     1      50.752  14.758  16.506  0.00  0.00    +0.014 C 
ATOM     13  C   UNL     1      49.525  14.383  17.334  0.00  0.00    +0.014 C 
ATOM     14  C   UNL     1      48.346  15.227  16.837  0.00  0.00    +0.006 C 
ATOM     15  C   UNL     1      49.751  14.685  18.783  0.00  0.00    -0.115 C 
ATOM     16  C   UNL     1      49.446  13.865  19.753  0.00  0.00    -0.015 C 
ATOM     17  C   UNL     1      48.906  12.487  19.474  0.00  0.00    +0.048 C 
ATOM     18  C   UNL     1      49.600  12.006  18.191  0.00  0.00    -0.113 C 
ATOM     22  C   UNL     1      49.223  10.552  17.913  0.00  0.00    +0.016 C 
ATOM     23  C   UNL     1      47.713  10.435  17.734  0.00  0.00    +0.001 C 
ATOM     24  C   UNL     1      47.250  11.307  16.575  0.00  0.00    -0.065 C 
ATOM     25  C   UNL     1      47.806  10.781  15.250  0.00  0.00    +0.016 C 
ATOM     26  C   UNL     1      45.714  11.258  16.505  0.00  0.00    +0.006 C 
ATOM     27  C   UNL     1      47.673  12.763  16.775  0.00  0.00    +0.016 C 
ATOM     28  C   UNL     1      49.162  12.921  17.056  0.00  0.00    +0.020 C 
ATOM     29  C   UNL     1      50.397  16.005  19.193  0.00  0.00    +0.003 C 
ATOM     30  C   UNL     1      51.697  15.629  19.923  0.00  0.00    +0.030 C 
ATOM     31  C   UNL     1      49.475  16.750  20.159  0.00  0.00    +0.009 C 
ATOM     32  C   UNL     1      50.059  18.137  20.469  0.00  0.00    +0.016 C 
ATOM     33  C   UNL     1      50.174  18.920  19.164  0.00  0.00    +0.009 C 
ENDROOT
BRANCH   3   2
ATOM      1  C   UNL     1      52.588  21.678  19.881  0.00  0.00    +0.048 C 
ATOM      2  C   UNL     1      51.504  20.724  20.309  0.00  0.00    +0.359 C 
ATOM     34  O   UNL     1      51.546  20.214  21.403  0.00  0.00    -0.434 OA
ENDBRANCH   3   2
BRANCH  18  19
ATOM     19  C   UNL     1      51.097  12.061  18.377  0.00  0.00    +0.513 C 
ATOM     20  O   UNL     1      51.831  12.114  17.405  0.00  0.00    -0.705 OA
ATOM     21  O   UNL     1      51.573  12.052  19.499  0.00  0.00    -0.686 OA
ENDBRANCH  18  19
TORSDOF 2
ENDMDL
MODEL 4
REMARK VINA RESULT:      -6.5      1.561      2.752
REMARK  Name = ZINC95486110
REMARK  9 active torsions:
REMARK  status: ('A' for Active; 'I' for Inactive)
REMARK    1  A    between atoms: C1_1  and  C2_2
REMARK    2  A    between atoms: C2_2  and  C3_4
REMARK    3  A    between atoms: C3_4  and  C31_37
REMARK    4  A    between atoms: C7_8  and  C30_36
REMARK    5  A    between atoms: C11_13  and  C29_35
REMARK    6  A    between atoms: C15_18  and  C28_34
REMARK    7  A    between atoms: C19_22  and  C27_31
REMARK    8  A    between atoms: C22_26  and  C25_29
REMARK    9  A    between atoms: C22_26  and  C26_30
REMARK                            x       y       z     vdW  Elec       q    Type
REMARK                         _______ _______ _______ _____ _____    ______ ____
ROOT
ATOM      3  C   UNL     1      46.043  20.475  19.880  0.00  0.00    -0.091 C 
ATOM      4  C   UNL     1      45.942  21.468  18.695  0.00  0.00    +0.040 C 
ATOM      5  C   UNL     1      47.059  21.076  20.854  0.00  0.00    +0.030 C 
ATOM      6  C   UNL     1      47.520  20.063  21.895  0.00  0.00    +0.000 C 
ATOM      7  C   UNL     1      48.108  18.833  21.208  0.00  0.00    +0.011 C 
ATOM      8  C   UNL     1      47.013  18.142  20.373  0.00  0.00    -0.035 C 
ATOM      9  C   UNL     1      45.939  17.655  21.333  0.00  0.00    +0.027 C 
ATOM     10  C   UNL     1      47.662  16.994  19.594  0.00  0.00    +0.002 C 
ATOM     11  C   UNL     1      48.366  15.983  20.470  0.00  0.00    +0.004 C 
ATOM     12  C   UNL     1      49.158  14.951  19.676  0.00  0.00    +0.014 C 
ATOM     13  C   UNL     1      48.980  15.038  18.162  0.00  0.00    +0.014 C 
ATOM     14  C   UNL     1      49.819  16.216  17.656  0.00  0.00    +0.006 C 
ATOM     15  C   UNL     1      47.546  15.287  17.811  0.00  0.00    -0.115 C 
ATOM     16  C   UNL     1      46.906  14.648  16.868  0.00  0.00    -0.015 C 
ATOM     17  C   UNL     1      47.557  13.527  16.101  0.00  0.00    +0.048 C 
ATOM     18  C   UNL     1      48.475  12.802  17.096  0.00  0.00    -0.113 C 
ATOM     22  C   UNL     1      49.064  11.555  16.442  0.00  0.00    +0.016 C 
ATOM     23  C   UNL     1      49.878  11.950  15.214  0.00  0.00    +0.001 C 
ATOM     24  C   UNL     1      51.005  12.893  15.610  0.00  0.00    -0.065 C 
ATOM     25  C   UNL     1      52.026  12.172  16.493  0.00  0.00    +0.016 C 
ATOM     26  C   UNL     1      51.723  13.366  14.334  0.00  0.00    +0.006 C 
ATOM     27  C   UNL     1      50.466  14.126  16.338  0.00  0.00    +0.016 C 
ATOM     28  C   UNL     1      49.565  13.778  17.516  0.00  0.00    +0.020 C 
ATOM     29  C   UNL     1      46.741  16.322  18.591  0.00  0.00    +0.003 C 
ATOM     30  C   UNL     1      45.583  15.550  19.244  0.00  0.00    +0.030 C 
ATOM     31  C   UNL     1      46.171  17.364  17.626  0.00  0.00    +0.009 C 
ATOM     32  C   UNL     1      45.473  18.479  18.420  0.00  0.00    +0.016 C 
ATOM     33  C   UNL     1      46.498  19.139  19.339  0.00  0.00    +0.009 C 
ENDROOT
BRANCH   3   2
ATOM      1  C   UNL     1      43.455  20.233  19.673  0.00  0.00    +0.048 C 
ATOM      2  C   UNL     1      44.685  20.418  20.524  0.00  0.00    +0.359 C 
ATOM     34  O   UNL     1      44.580  20.520  21.723  0.00  0.00    -0.434 OA
ENDBRANCH   3   2
BRANCH  18  19
ATOM     19  C   UNL     1      47.668  12.352  18.291  0.00  0.00    +0.513 C 
ATOM     20  O   UNL     1      46.459  12.229  18.198  0.00  0.00    -0.705 OA
ATOM     21  O   UNL     1      48.226  12.111  19.347  0.00  0.00    -0.686 OA
ENDBRANCH  18  19
TORSDOF 2
ENDMDL
MODEL 5
REMARK VINA RESULT:      -6.5      1.840      7.934
REMARK  Name = ZINC95486110
REMARK  9 active torsions:
REMARK  status: ('A' for Active; 'I' for Inactive)
REMARK    1  A    between atoms: C1_1  and  C2_2
REMARK    2  A    between atoms: C2_2  and  C3_4
REMARK    3  A    between atoms: C3_4  and  C31_37
REMARK    4  A    between atoms: C7_8  and  C30_36
REMARK    5  A    between atoms: C11_13  and  C29_35
REMARK    6  A    between atoms: C15_18  and  C28_34
REMARK    7  A    between atoms: C19_22  and  C27_31
REMARK    8  A    between atoms: C22_26  and  C25_29
REMARK    9  A    between atoms: C22_26  and  C26_30
REMARK                            x       y       z     vdW  Elec       q    Type
REMARK                         _______ _______ _______ _____ _____    ______ ____
ROOT
ATOM      3  C   UNL     1      47.873  11.419  16.519  0.00  0.00    -0.091 C 
ATOM      4  C   UNL     1      46.734  10.971  15.568  0.00  0.00    +0.040 C 
ATOM      5  C   UNL     1      47.948  10.362  17.622  0.00  0.00    +0.030 C 
ATOM      6  C   UNL     1      48.780  10.833  18.809  0.00  0.00    +0.000 C 
ATOM      7  C   UNL     1      48.214  12.138  19.363  0.00  0.00    +0.011 C 
ATOM      8  C   UNL     1      48.316  13.236  18.287  0.00  0.00    -0.035 C 
ATOM      9  C   UNL     1      49.792  13.466  18.001  0.00  0.00    +0.027 C 
ATOM     10  C   UNL     1      47.624  14.493  18.823  0.00  0.00    +0.002 C 
ATOM     11  C   UNL     1      48.190  14.991  20.132  0.00  0.00    +0.004 C 
ATOM     12  C   UNL     1      47.378  16.127  20.743  0.00  0.00    +0.014 C 
ATOM     13  C   UNL     1      46.243  16.644  19.862  0.00  0.00    +0.014 C 
ATOM     14  C   UNL     1      45.087  15.641  19.946  0.00  0.00    +0.006 C 
ATOM     15  C   UNL     1      46.684  16.745  18.435  0.00  0.00    -0.115 C 
ATOM     16  C   UNL     1      46.438  17.774  17.668  0.00  0.00    -0.015 C 
ATOM     17  C   UNL     1      45.747  19.001  18.202  0.00  0.00    +0.048 C 
ATOM     18  C   UNL     1      46.221  19.163  19.654  0.00  0.00    -0.113 C 
ATOM     22  C   UNL     1      45.685  20.472  20.230  0.00  0.00    +0.016 C 
ATOM     23  C   UNL     1      44.160  20.462  20.204  0.00  0.00    +0.001 C 
ATOM     24  C   UNL     1      43.627  19.294  21.022  0.00  0.00    -0.065 C 
ATOM     25  C   UNL     1      43.954  19.481  22.505  0.00  0.00    +0.016 C 
ATOM     26  C   UNL     1      42.096  19.245  20.870  0.00  0.00    +0.006 C 
ATOM     27  C   UNL     1      44.198  17.964  20.527  0.00  0.00    +0.016 C 
ATOM     28  C   UNL     1      45.719  17.961  20.442  0.00  0.00    +0.020 C 
ATOM     29  C   UNL     1      47.492  15.612  17.807  0.00  0.00    +0.003 C 
ATOM     30  C   UNL     1      48.838  16.232  17.398  0.00  0.00    +0.030 C 
ATOM     31  C   UNL     1      46.773  15.102  16.556  0.00  0.00    +0.009 C 
ATOM     32  C   UNL     1      47.512  13.876  15.998  0.00  0.00    +0.016 C 
ATOM     33  C   UNL     1      47.523  12.785  17.064  0.00  0.00    +0.009 C 
ENDROOT
BRANCH   3   2
ATOM      1  C   UNL     1      49.247  12.242  14.460  0.00  0.00    +0.048 C 
ATOM      2  C   UNL     1      49.145  11.414  15.715  0.00  0.00    +0.359 C 
ATOM     34  O   UNL     1      50.085  10.747  16.075  0.00  0.00    -0.434 OA
ENDBRANCH   3   2
BRANCH  18  19
ATOM     19  C   UNL     1      47.729  19.235  19.687  0.00  0.00    +0.513 C 
ATOM     20  O   UNL     1      48.328  18.990  20.720  0.00  0.00    -0.705 OA
ATOM     21  O   UNL     1      48.347  19.538  18.682  0.00  0.00    -0.686 OA
ENDBRANCH  18  19
TORSDOF 2
ENDMDL
MODEL 6
REMARK VINA RESULT:      -6.2      1.924      3.618
REMARK  Name = ZINC95486110
REMARK  9 active torsions:
REMARK  status: ('A' for Active; 'I' for Inactive)
REMARK    1  A    between atoms: C1_1  and  C2_2
REMARK    2  A    between atoms: C2_2  and  C3_4
REMARK    3  A    between atoms: C3_4  and  C31_37
REMARK    4  A    between atoms: C7_8  and  C30_36
REMARK    5  A    between atoms: C11_13  and  C29_35
REMARK    6  A    between atoms: C15_18  and  C28_34
REMARK    7  A    between atoms: C19_22  and  C27_31
REMARK    8  A    between atoms: C22_26  and  C25_29
REMARK    9  A    between atoms: C22_26  and  C26_30
REMARK                            x       y       z     vdW  Elec       q    Type
REMARK                         _______ _______ _______ _____ _____    ______ ____
ROOT
ATOM      3  C   UNL     1      45.954  21.205  20.911  0.00  0.00    -0.091 C 
ATOM      4  C   UNL     1      47.199  22.033  21.320  0.00  0.00    +0.040 C 
ATOM      5  C   UNL     1      45.095  21.076  22.170  0.00  0.00    +0.030 C 
ATOM      6  C   UNL     1      44.017  20.010  22.018  0.00  0.00    +0.000 C 
ATOM      7  C   UNL     1      44.650  18.666  21.669  0.00  0.00    +0.011 C 
ATOM      8  C   UNL     1      45.359  18.775  20.306  0.00  0.00    -0.035 C 
ATOM      9  C   UNL     1      44.299  19.063  19.255  0.00  0.00    +0.027 C 
ATOM     10  C   UNL     1      46.095  17.457  20.045  0.00  0.00    +0.002 C 
ATOM     11  C   UNL     1      45.197  16.242  20.070  0.00  0.00    +0.004 C 
ATOM     12  C   UNL     1      45.965  14.927  19.992  0.00  0.00    +0.014 C 
ATOM     13  C   UNL     1      47.466  15.080  19.759  0.00  0.00    +0.014 C 
ATOM     14  C   UNL     1      48.110  15.490  21.087  0.00  0.00    +0.006 C 
ATOM     15  C   UNL     1      47.739  16.148  18.746  0.00  0.00    -0.115 C 
ATOM     16  C   UNL     1      48.590  16.017  17.762  0.00  0.00    -0.015 C 
ATOM     17  C   UNL     1      49.315  14.720  17.520  0.00  0.00    +0.048 C 
ATOM     18  C   UNL     1      48.333  13.602  17.900  0.00  0.00    -0.113 C 
ATOM     22  C   UNL     1      48.933  12.244  17.544  0.00  0.00    +0.016 C 
ATOM     23  C   UNL     1      50.237  12.039  18.308  0.00  0.00    +0.001 C 
ATOM     24  C   UNL     1      49.985  12.102  19.808  0.00  0.00    -0.065 C 
ATOM     25  C   UNL     1      49.122  10.922  20.259  0.00  0.00    +0.016 C 
ATOM     26  C   UNL     1      51.337  12.016  20.538  0.00  0.00    +0.006 C 
ATOM     27  C   UNL     1      49.314  13.419  20.201  0.00  0.00    +0.016 C 
ATOM     28  C   UNL     1      48.057  13.715  19.392  0.00  0.00    +0.020 C 
ATOM     29  C   UNL     1      46.984  17.472  18.815  0.00  0.00    +0.003 C 
ATOM     30  C   UNL     1      46.203  17.580  17.495  0.00  0.00    +0.030 C 
ATOM     31  C   UNL     1      47.982  18.628  18.905  0.00  0.00    +0.009 C 
ATOM     32  C   UNL     1      47.226  19.950  19.109  0.00  0.00    +0.016 C 
ATOM     33  C   UNL     1      46.427  19.861  20.406  0.00  0.00    +0.009 C 
ENDROOT
BRANCH   3   2
ATOM      1  C   UNL     1      44.027  22.836  20.255  0.00  0.00    +0.048 C 
ATOM      2  C   UNL     1      45.220  22.001  19.867  0.00  0.00    +0.359 C 
ATOM     34  O   UNL     1      45.587  21.971  18.716  0.00  0.00    -0.434 OA
ENDBRANCH   3   2
BRANCH  18  19
ATOM     19  C   UNL     1      47.059  13.759  17.105  0.00  0.00    +0.513 C 
ATOM     20  O   UNL     1      46.026  13.246  17.501  0.00  0.00    -0.705 OA
ATOM     21  O   UNL     1      47.062  14.399  16.067  0.00  0.00    -0.686 OA
ENDBRANCH  18  19
TORSDOF 2
ENDMDL
MODEL 7
REMARK VINA RESULT:      -6.1      1.854      8.045
REMARK  Name = ZINC95486110
REMARK  9 active torsions:
REMARK  status: ('A' for Active; 'I' for Inactive)
REMARK    1  A    between atoms: C1_1  and  C2_2
REMARK    2  A    between atoms: C2_2  and  C3_4
REMARK    3  A    between atoms: C3_4  and  C31_37
REMARK    4  A    between atoms: C7_8  and  C30_36
REMARK    5  A    between atoms: C11_13  and  C29_35
REMARK    6  A    between atoms: C15_18  and  C28_34
REMARK    7  A    between atoms: C19_22  and  C27_31
REMARK    8  A    between atoms: C22_26  and  C25_29
REMARK    9  A    between atoms: C22_26  and  C26_30
REMARK                            x       y       z     vdW  Elec       q    Type
REMARK                         _______ _______ _______ _____ _____    ______ ____
ROOT
ATOM      3  C   UNL     1      50.770  12.834  15.063  0.00  0.00    -0.091 C 
ATOM      4  C   UNL     1      51.833  13.647  14.282  0.00  0.00    +0.040 C 
ATOM      5  C   UNL     1      49.805  12.277  14.015  0.00  0.00    +0.030 C 
ATOM      6  C   UNL     1      48.522  11.747  14.644  0.00  0.00    +0.000 C 
ATOM      7  C   UNL     1      47.843  12.844  15.459  0.00  0.00    +0.011 C 
ATOM      8  C   UNL     1      48.765  13.262  16.620  0.00  0.00    -0.035 C 
ATOM      9  C   UNL     1      48.934  12.057  17.533  0.00  0.00    +0.027 C 
ATOM     10  C   UNL     1      48.117  14.450  17.338  0.00  0.00    +0.002 C 
ATOM     11  C   UNL     1      46.726  14.167  17.853  0.00  0.00    +0.004 C 
ATOM     12  C   UNL     1      46.025  15.405  18.401  0.00  0.00    +0.014 C 
ATOM     13  C   UNL     1      46.899  16.656  18.461  0.00  0.00    +0.014 C 
ATOM     14  C   UNL     1      47.008  17.224  17.042  0.00  0.00    +0.006 C 
ATOM     15  C   UNL     1      48.274  16.319  18.947  0.00  0.00    -0.115 C 
ATOM     16  C   UNL     1      48.919  17.013  19.847  0.00  0.00    -0.015 C 
ATOM     17  C   UNL     1      48.277  18.185  20.540  0.00  0.00    +0.048 C 
ATOM     18  C   UNL     1      46.791  17.830  20.698  0.00  0.00    -0.113 C 
ATOM     22  C   UNL     1      46.088  18.902  21.527  0.00  0.00    +0.016 C 
ATOM     23  C   UNL     1      46.203  20.253  20.829  0.00  0.00    +0.001 C 
ATOM     24  C   UNL     1      45.570  20.188  19.447  0.00  0.00    -0.065 C 
ATOM     25  C   UNL     1      44.059  19.974  19.556  0.00  0.00    +0.016 C 
ATOM     26  C   UNL     1      45.815  21.527  18.729  0.00  0.00    +0.006 C 
ATOM     27  C   UNL     1      46.194  19.074  18.604  0.00  0.00    +0.016 C 
ATOM     28  C   UNL     1      46.190  17.721  19.304  0.00  0.00    +0.020 C 
ATOM     29  C   UNL     1      48.992  15.086  18.404  0.00  0.00    +0.003 C 
ATOM     30  C   UNL     1      49.241  14.175  19.617  0.00  0.00    +0.030 C 
ATOM     31  C   UNL     1      50.336  15.498  17.800  0.00  0.00    +0.009 C 
ATOM     32  C   UNL     1      50.999  14.283  17.134  0.00  0.00    +0.016 C 
ATOM     33  C   UNL     1      50.079  13.768  16.031  0.00  0.00    +0.009 C 
ENDROOT
BRANCH   3   2
ATOM      1  C   UNL     1      51.274  10.286  15.294  0.00  0.00    +0.048 C 
ATOM      2  C   UNL     1      51.493  11.706  15.747  0.00  0.00    +0.359 C 
ATOM     34  O   UNL     1      52.248  11.939  16.661  0.00  0.00    -0.434 OA
ENDBRANCH   3   2
BRANCH  18  19
ATOM     19  C   UNL     1      46.662  16.522  21.441  0.00  0.00    +0.513 C 
ATOM     20  O   UNL     1      45.640  15.864  21.346  0.00  0.00    -0.705 OA
ATOM     21  O   UNL     1      47.580  16.123  22.137  0.00  0.00    -0.686 OA
ENDBRANCH  18  19
TORSDOF 2
ENDMDL
MODEL 8
REMARK VINA RESULT:      -5.9      3.158      4.508
REMARK  Name = ZINC95486110
REMARK  9 active torsions:
REMARK  status: ('A' for Active; 'I' for Inactive)
REMARK    1  A    between atoms: C1_1  and  C2_2
REMARK    2  A    between atoms: C2_2  and  C3_4
REMARK    3  A    between atoms: C3_4  and  C31_37
REMARK    4  A    between atoms: C7_8  and  C30_36
REMARK    5  A    between atoms: C11_13  and  C29_35
REMARK    6  A    between atoms: C15_18  and  C28_34
REMARK    7  A    between atoms: C19_22  and  C27_31
REMARK    8  A    between atoms: C22_26  and  C25_29
REMARK    9  A    between atoms: C22_26  and  C26_30
REMARK                            x       y       z     vdW  Elec       q    Type
REMARK                         _______ _______ _______ _____ _____    ______ ____
ROOT
ATOM      3  C   UNL     1      50.498  20.179  19.389  0.00  0.00    -0.091 C 
ATOM      4  C   UNL     1      50.454  21.166  18.195  0.00  0.00    +0.040 C 
ATOM      5  C   UNL     1      51.906  20.283  19.977  0.00  0.00    +0.030 C 
ATOM      6  C   UNL     1      52.213  19.137  20.933  0.00  0.00    +0.000 C 
ATOM      7  C   UNL     1      52.032  17.798  20.224  0.00  0.00    +0.011 C 
ATOM      8  C   UNL     1      50.560  17.639  19.800  0.00  0.00    -0.035 C 
ATOM      9  C   UNL     1      49.717  17.600  21.065  0.00  0.00    +0.027 C 
ATOM     10  C   UNL     1      50.437  16.352  18.978  0.00  0.00    +0.002 C 
ATOM     11  C   UNL     1      50.906  15.115  19.708  0.00  0.00    +0.004 C 
ATOM     12  C   UNL     1      50.950  13.876  18.821  0.00  0.00    +0.014 C 
ATOM     13  C   UNL     1      50.382  14.077  17.418  0.00  0.00    +0.014 C 
ATOM     14  C   UNL     1      51.429  14.828  16.589  0.00  0.00    +0.006 C 
ATOM     15  C   UNL     1      49.132  14.898  17.465  0.00  0.00    -0.115 C 
ATOM     16  C   UNL     1      48.043  14.605  16.805  0.00  0.00    -0.015 C 
ATOM     17  C   UNL     1      47.936  13.342  15.992  0.00  0.00    +0.048 C 
ATOM     18  C   UNL     1      48.740  12.275  16.748  0.00  0.00    -0.113 C 
ATOM     22  C   UNL     1      48.563  10.918  16.072  0.00  0.00    +0.016 C 
ATOM     23  C   UNL     1      49.064  10.988  14.633  0.00  0.00    +0.001 C 
ATOM     24  C   UNL     1      50.535  11.379  14.606  0.00  0.00    -0.065 C 
ATOM     25  C   UNL     1      51.397  10.277  15.226  0.00  0.00    +0.016 C 
ATOM     26  C   UNL     1      50.969  11.560  13.140  0.00  0.00    +0.006 C 
ATOM     27  C   UNL     1      50.771  12.700  15.340  0.00  0.00    +0.016 C 
ATOM     28  C   UNL     1      50.199  12.710  16.751  0.00  0.00    +0.020 C 
ATOM     29  C   UNL     1      49.074  16.146  18.343  0.00  0.00    +0.003 C 
ATOM     30  C   UNL     1      47.954  15.890  19.365  0.00  0.00    +0.030 C 
ATOM     31  C   UNL     1      48.706  17.360  17.488  0.00  0.00    +0.009 C 
ATOM     32  C   UNL     1      48.778  18.635  18.340  0.00  0.00    +0.016 C 
ATOM     33  C   UNL     1      50.202  18.792  18.866  0.00  0.00    +0.009 C 
ENDROOT
BRANCH   3   2
ATOM      1  C   UNL     1      49.933  21.115  21.757  0.00  0.00    +0.048 C 
ATOM      2  C   UNL     1      49.485  20.658  20.393  0.00  0.00    +0.359 C 
ATOM     34  O   UNL     1      48.311  20.675  20.107  0.00  0.00    -0.434 OA
ENDBRANCH   3   2
BRANCH  18  19
ATOM     19  C   UNL     1      48.214  12.153  18.159  0.00  0.00    +0.513 C 
ATOM     20  O   UNL     1      47.089  12.541  18.425  0.00  0.00    -0.705 OA
ATOM     21  O   UNL     1      48.913  11.667  19.031  0.00  0.00    -0.686 OA
ENDBRANCH  18  19
TORSDOF 2
ENDMDL
MODEL 9
REMARK VINA RESULT:      -5.6      3.212      5.372
REMARK  Name = ZINC95486110
REMARK  9 active torsions:
REMARK  status: ('A' for Active; 'I' for Inactive)
REMARK    1  A    between atoms: C1_1  and  C2_2
REMARK    2  A    between atoms: C2_2  and  C3_4
REMARK    3  A    between atoms: C3_4  and  C31_37
REMARK    4  A    between atoms: C7_8  and  C30_36
REMARK    5  A    between atoms: C11_13  and  C29_35
REMARK    6  A    between atoms: C15_18  and  C28_34
REMARK    7  A    between atoms: C19_22  and  C27_31
REMARK    8  A    between atoms: C22_26  and  C25_29
REMARK    9  A    between atoms: C22_26  and  C26_30
REMARK                            x       y       z     vdW  Elec       q    Type
REMARK                         _______ _______ _______ _____ _____    ______ ____
ROOT
ATOM      3  C   UNL     1      45.977  21.270  20.929  0.00  0.00    -0.091 C 
ATOM      4  C   UNL     1      46.476  22.681  21.331  0.00  0.00    +0.040 C 
ATOM      5  C   UNL     1      45.130  20.768  22.100  0.00  0.00    +0.030 C 
ATOM      6  C   UNL     1      44.854  19.272  22.004  0.00  0.00    +0.000 C 
ATOM      7  C   UNL     1      46.167  18.498  21.929  0.00  0.00    +0.011 C 
ATOM      8  C   UNL     1      46.919  18.892  20.644  0.00  0.00    -0.035 C 
ATOM      9  C   UNL     1      46.069  18.458  19.460  0.00  0.00    +0.027 C 
ATOM     10  C   UNL     1      48.287  18.202  20.663  0.00  0.00    +0.002 C 
ATOM     11  C   UNL     1      48.210  16.698  20.782  0.00  0.00    +0.004 C 
ATOM     12  C   UNL     1      49.572  16.042  20.983  0.00  0.00    +0.014 C 
ATOM     13  C   UNL     1      50.759  16.996  20.882  0.00  0.00    +0.014 C 
ATOM     14  C   UNL     1      50.838  17.790  22.190  0.00  0.00    +0.006 C 
ATOM     15  C   UNL     1      50.571  17.959  19.751  0.00  0.00    -0.115 C 
ATOM     16  C   UNL     1      51.505  18.262  18.889  0.00  0.00    -0.015 C 
ATOM     17  C   UNL     1      52.850  17.585  18.922  0.00  0.00    +0.048 C 
ATOM     18  C   UNL     1      52.592  16.138  19.367  0.00  0.00    -0.113 C 
ATOM     22  C   UNL     1      53.886  15.333  19.284  0.00  0.00    +0.016 C 
ATOM     23  C   UNL     1      54.939  15.951  20.197  0.00  0.00    +0.001 C 
ATOM     24  C   UNL     1      54.444  15.966  21.637  0.00  0.00    -0.065 C 
ATOM     25  C   UNL     1      54.305  14.540  22.174  0.00  0.00    +0.016 C 
ATOM     26  C   UNL     1      55.477  16.707  22.505  0.00  0.00    +0.006 C 
ATOM     27  C   UNL     1      53.107  16.700  21.755  0.00  0.00    +0.016 C 
ATOM     28  C   UNL     1      52.052  16.180  20.789  0.00  0.00    +0.020 C 
ATOM     29  C   UNL     1      49.215  18.629  19.540  0.00  0.00    +0.003 C 
ATOM     30  C   UNL     1      48.738  18.186  18.148  0.00  0.00    +0.030 C 
ATOM     31  C   UNL     1      49.387  20.150  19.554  0.00  0.00    +0.009 C 
ATOM     32  C   UNL     1      48.010  20.827  19.477  0.00  0.00    +0.016 C 
ATOM     33  C   UNL     1      47.185  20.394  20.685  0.00  0.00    +0.009 C 
ENDROOT
BRANCH   3   2
ATOM      1  C   UNL     1      43.637  21.158  19.781  0.00  0.00    +0.048 C 
ATOM      2  C   UNL     1      45.116  21.440  19.707  0.00  0.00    +0.359 C 
ATOM     34  O   UNL     1      45.610  21.801  18.665  0.00  0.00    -0.434 OA
ENDBRANCH   3   2
BRANCH  18  19
ATOM     19  C   UNL     1      51.595  15.495  18.432  0.00  0.00    +0.513 C 
ATOM     20  O   UNL     1      50.952  14.526  18.800  0.00  0.00    -0.705 OA
ATOM     21  O   UNL     1      51.432  15.943  17.311  0.00  0.00    -0.686 OA
ENDBRANCH  18  19
TORSDOF 2
ENDMDL
