MODEL 1
REMARK VINA RESULT:      -4.7      0.000      0.000
REMARK  Name = ZINC04098287
REMARK  7 active torsions:
REMARK  status: ('A' for Active; 'I' for Inactive)
REMARK    1  A    between atoms: C1_1  and  C2_2
REMARK    2  A    between atoms: C6_6  and  C14_20
REMARK    3  A    between atoms: C6_6  and  C15_21
REMARK    4  A    between atoms: C8_9  and  O4_19
REMARK    5  A    between atoms: C10_12  and  C13_17
REMARK    6  A    between atoms: C11_13  and  C12_14
REMARK    7  A    between atoms: C11_13  and  O2_16
REMARK                            x       y       z     vdW  Elec       q    Type
REMARK                         _______ _______ _______ _____ _____    ______ ____
ROOT
ATOM      1  C   UNL     1      46.270  18.259  21.485  0.00  0.00    +0.042 C 
ATOM      2  C   UNL     1      45.436  17.565  20.404  0.00  0.00    -0.017 C 
ATOM      3  C   UNL     1      46.006  17.892  19.023  0.00  0.00    +0.034 C 
ATOM      4  C   UNL     1      45.762  19.361  18.683  0.00  0.00    +0.009 C 
ATOM      5  C   UNL     1      44.258  19.601  18.617  0.00  0.00    +0.017 C 
ATOM      6  C   UNL     1      43.598  19.302  19.965  0.00  0.00    -0.046 C 
ATOM      7  C   UNL     1      42.074  19.363  19.705  0.00  0.00    +0.026 C 
ATOM      8  C   UNL     1      43.937  20.422  20.948  0.00  0.00    +0.024 C 
ATOM      9  C   UNL     1      45.556  16.042  20.609  0.00  0.00    +0.128 C 
ATOM     14  C   UNL     1      44.822  15.631  21.849  0.00  0.00    -0.241 C 
ATOM     17  C   UNL     1      43.905  16.372  22.438  0.00  0.00    +0.062 C 
ATOM     18  C   UNL     1      43.474  17.723  21.932  0.00  0.00    +0.216 C 
ATOM     21  C   UNL     1      43.954  17.928  20.495  0.00  0.00    +0.043 C 
ENDROOT
BRANCH   9  10
ATOM     10  O   UNL     1      45.004  15.362  19.484  0.00  0.00    -0.526 OA
ATOM     11  H   UNL     1      44.041  15.284  19.505  0.00  0.00    +0.384 HD
ENDBRANCH   9  10
BRANCH   9  12
ATOM     12  C   UNL     1      47.009  15.673  20.760  0.00  0.00    +0.420 C 
ATOM     13  O   UNL     1      47.519  14.901  19.984  0.00  0.00    -0.428 OA
ENDBRANCH   9  12
BRANCH  14  15
ATOM     15  C   UNL     1      45.143  14.331  22.440  0.00  0.00    +0.473 C 
ATOM     16  O   UNL     1      44.908  13.311  21.825  0.00  0.00    -0.451 OA
ENDBRANCH  14  15
BRANCH  18  19
ATOM     19  O   UNL     1      42.044  17.756  21.996  0.00  0.00    -0.547 OA
ATOM     20  H   UNL     1      41.621  18.069  21.185  0.00  0.00    +0.378 HD
ENDBRANCH  18  19
TORSDOF 4
ENDMDL
MODEL 2
REMARK VINA RESULT:      -4.5     22.901     25.177
REMARK  Name = ZINC04098287
REMARK  7 active torsions:
REMARK  status: ('A' for Active; 'I' for Inactive)
REMARK    1  A    between atoms: C1_1  and  C2_2
REMARK    2  A    between atoms: C6_6  and  C14_20
REMARK    3  A    between atoms: C6_6  and  C15_21
REMARK    4  A    between atoms: C8_9  and  O4_19
REMARK    5  A    between atoms: C10_12  and  C13_17
REMARK    6  A    between atoms: C11_13  and  C12_14
REMARK    7  A    between atoms: C11_13  and  O2_16
REMARK                            x       y       z     vdW  Elec       q    Type
REMARK                         _______ _______ _______ _____ _____    ______ ____
ROOT
ATOM      1  C   UNL     1      54.956  34.665   2.995  0.00  0.00    +0.042 C 
ATOM      2  C   UNL     1      54.527  33.232   3.323  0.00  0.00    -0.017 C 
ATOM      3  C   UNL     1      53.467  32.769   2.322  0.00  0.00    +0.034 C 
ATOM      4  C   UNL     1      52.158  33.525   2.549  0.00  0.00    +0.009 C 
ATOM      5  C   UNL     1      51.640  33.189   3.943  0.00  0.00    +0.017 C 
ATOM      6  C   UNL     1      52.639  33.623   5.017  0.00  0.00    -0.046 C 
ATOM      7  C   UNL     1      52.108  33.032   6.344  0.00  0.00    +0.026 C 
ATOM      8  C   UNL     1      52.602  35.145   5.150  0.00  0.00    +0.024 C 
ATOM      9  C   UNL     1      55.755  32.315   3.158  0.00  0.00    +0.128 C 
ATOM     14  C   UNL     1      56.744  32.578   4.252  0.00  0.00    -0.241 C 
ATOM     17  C   UNL     1      56.445  33.194   5.378  0.00  0.00    +0.062 C 
ATOM     18  C   UNL     1      55.067  33.704   5.710  0.00  0.00    +0.216 C 
ATOM     21  C   UNL     1      54.035  33.090   4.762  0.00  0.00    +0.043 C 
ENDROOT
BRANCH   9  10
ATOM     10  O   UNL     1      55.344  30.951   3.208  0.00  0.00    -0.526 OA
ATOM     11  H   UNL     1      54.530  30.767   2.721  0.00  0.00    +0.384 HD
ENDBRANCH   9  10
BRANCH   9  12
ATOM     12  C   UNL     1      56.413  32.596   1.832  0.00  0.00    +0.420 C 
ATOM     13  O   UNL     1      56.517  31.716   1.011  0.00  0.00    -0.428 OA
ENDBRANCH   9  12
BRANCH  14  15
ATOM     15  C   UNL     1      58.122  32.125   4.058  0.00  0.00    +0.473 C 
ATOM     16  O   UNL     1      58.371  30.938   4.027  0.00  0.00    -0.451 OA
ENDBRANCH  14  15
BRANCH  18  19
ATOM     19  O   UNL     1      54.797  33.326   7.064  0.00  0.00    -0.547 OA
ATOM     20  H   UNL     1      53.861  33.164   7.247  0.00  0.00    +0.378 HD
ENDBRANCH  18  19
TORSDOF 4
ENDMDL
MODEL 3
REMARK VINA RESULT:      -4.3      4.824      6.881
REMARK  Name = ZINC04098287
REMARK  7 active torsions:
REMARK  status: ('A' for Active; 'I' for Inactive)
REMARK    1  A    between atoms: C1_1  and  C2_2
REMARK    2  A    between atoms: C6_6  and  C14_20
REMARK    3  A    between atoms: C6_6  and  C15_21
REMARK    4  A    between atoms: C8_9  and  O4_19
REMARK    5  A    between atoms: C10_12  and  C13_17
REMARK    6  A    between atoms: C11_13  and  C12_14
REMARK    7  A    between atoms: C11_13  and  O2_16
REMARK                            x       y       z     vdW  Elec       q    Type
REMARK                         _______ _______ _______ _____ _____    ______ ____
ROOT
ATOM      1  C   UNL     1      50.402  18.059  20.093  0.00  0.00    +0.042 C 
ATOM      2  C   UNL     1      49.652  19.200  19.398  0.00  0.00    -0.017 C 
ATOM      3  C   UNL     1      49.129  20.185  20.445  0.00  0.00    +0.034 C 
ATOM      4  C   UNL     1      48.004  19.548  21.257  0.00  0.00    +0.009 C 
ATOM      5  C   UNL     1      46.845  19.232  20.318  0.00  0.00    +0.017 C 
ATOM      6  C   UNL     1      47.276  18.243  19.233  0.00  0.00    -0.046 C 
ATOM      7  C   UNL     1      46.099  18.184  18.232  0.00  0.00    +0.026 C 
ATOM      8  C   UNL     1      47.418  16.852  19.851  0.00  0.00    +0.024 C 
ATOM      9  C   UNL     1      50.653  19.957  18.504  0.00  0.00    +0.128 C 
ATOM     14  C   UNL     1      51.039  19.109  17.330  0.00  0.00    -0.241 C 
ATOM     17  C   UNL     1      50.345  18.066  16.921  0.00  0.00    +0.062 C 
ATOM     18  C   UNL     1      49.072  17.601  17.577  0.00  0.00    +0.216 C 
ATOM     21  C   UNL     1      48.525  18.691  18.501  0.00  0.00    +0.043 C 
ENDROOT
BRANCH   9  10
ATOM     10  O   UNL     1      50.060  21.168  18.040  0.00  0.00    -0.526 OA
ATOM     11  H   UNL     1      50.247  21.936  18.596  0.00  0.00    +0.384 HD
ENDBRANCH   9  10
BRANCH   9  12
ATOM     12  C   UNL     1      51.892  20.275  19.301  0.00  0.00    +0.420 C 
ATOM     13  O   UNL     1      52.223  21.424  19.471  0.00  0.00    -0.428 OA
ENDBRANCH   9  12
BRANCH  14  15
ATOM     15  C   UNL     1      52.257  19.460  16.598  0.00  0.00    +0.473 C 
ATOM     16  O   UNL     1      52.266  20.428  15.867  0.00  0.00    -0.451 OA
ENDBRANCH  14  15
BRANCH  18  19
ATOM     19  O   UNL     1      48.141  17.316  16.527  0.00  0.00    -0.547 OA
ATOM     20  H   UNL     1      47.236  17.167  16.833  0.00  0.00    +0.378 HD
ENDBRANCH  18  19
TORSDOF 4
ENDMDL
MODEL 4
REMARK VINA RESULT:      -4.3      4.600      6.157
REMARK  Name = ZINC04098287
REMARK  7 active torsions:
REMARK  status: ('A' for Active; 'I' for Inactive)
REMARK    1  A    between atoms: C1_1  and  C2_2
REMARK    2  A    between atoms: C6_6  and  C14_20
REMARK    3  A    between atoms: C6_6  and  C15_21
REMARK    4  A    between atoms: C8_9  and  O4_19
REMARK    5  A    between atoms: C10_12  and  C13_17
REMARK    6  A    between atoms: C11_13  and  C12_14
REMARK    7  A    between atoms: C11_13  and  O2_16
REMARK                            x       y       z     vdW  Elec       q    Type
REMARK                         _______ _______ _______ _____ _____    ______ ____
ROOT
ATOM      1  C   UNL     1      48.876  12.810  18.111  0.00  0.00    +0.042 C 
ATOM      2  C   UNL     1      48.020  13.789  17.302  0.00  0.00    -0.017 C 
ATOM      3  C   UNL     1      48.833  15.045  16.986  0.00  0.00    +0.034 C 
ATOM      4  C   UNL     1      49.077  15.854  18.259  0.00  0.00    +0.009 C 
ATOM      5  C   UNL     1      47.730  16.314  18.806  0.00  0.00    +0.017 C 
ATOM      6  C   UNL     1      46.845  15.117  19.158  0.00  0.00    -0.046 C 
ATOM      7  C   UNL     1      45.453  15.708  19.480  0.00  0.00    +0.026 C 
ATOM      8  C   UNL     1      47.369  14.464  20.437  0.00  0.00    +0.024 C 
ATOM      9  C   UNL     1      47.661  13.117  15.963  0.00  0.00    +0.128 C 
ATOM     14  C   UNL     1      46.686  12.002  16.191  0.00  0.00    -0.241 C 
ATOM     17  C   UNL     1      45.960  11.876  17.284  0.00  0.00    +0.062 C 
ATOM     18  C   UNL     1      46.013  12.844  18.437  0.00  0.00    +0.216 C 
ATOM     21  C   UNL     1      46.712  14.136  18.011  0.00  0.00    +0.043 C 
ENDROOT
BRANCH   9  10
ATOM     10  O   UNL     1      47.082  14.079  15.084  0.00  0.00    -0.526 OA
ATOM     11  H   UNL     1      47.625  14.282  14.310  0.00  0.00    +0.384 HD
ENDBRANCH   9  10
BRANCH   9  12
ATOM     12  C   UNL     1      48.909  12.549  15.339  0.00  0.00    +0.420 C 
ATOM     13  O   UNL     1      49.281  12.948  14.261  0.00  0.00    -0.428 OA
ENDBRANCH   9  12
BRANCH  14  15
ATOM     15  C   UNL     1      46.533  10.995  15.141  0.00  0.00    +0.473 C 
ATOM     16  O   UNL     1      45.426  10.617  14.819  0.00  0.00    -0.451 OA
ENDBRANCH  14  15
BRANCH  18  19
ATOM     19  O   UNL     1      44.660  13.106  18.824  0.00  0.00    -0.547 OA
ATOM     20  H   UNL     1      44.577  13.647  19.622  0.00  0.00    +0.378 HD
ENDBRANCH  18  19
TORSDOF 4
ENDMDL
MODEL 5
REMARK VINA RESULT:      -4.3      1.396      1.656
REMARK  Name = ZINC04098287
REMARK  7 active torsions:
REMARK  status: ('A' for Active; 'I' for Inactive)
REMARK    1  A    between atoms: C1_1  and  C2_2
REMARK    2  A    between atoms: C6_6  and  C14_20
REMARK    3  A    between atoms: C6_6  and  C15_21
REMARK    4  A    between atoms: C8_9  and  O4_19
REMARK    5  A    between atoms: C10_12  and  C13_17
REMARK    6  A    between atoms: C11_13  and  C12_14
REMARK    7  A    between atoms: C11_13  and  O2_16
REMARK                            x       y       z     vdW  Elec       q    Type
REMARK                         _______ _______ _______ _____ _____    ______ ____
ROOT
ATOM      1  C   UNL     1      46.762  18.767  21.332  0.00  0.00    +0.042 C 
ATOM      2  C   UNL     1      46.133  18.594  19.947  0.00  0.00    -0.017 C 
ATOM      3  C   UNL     1      46.995  19.297  18.898  0.00  0.00    +0.034 C 
ATOM      4  C   UNL     1      46.910  20.813  19.070  0.00  0.00    +0.009 C 
ATOM      5  C   UNL     1      45.468  21.248  18.833  0.00  0.00    +0.017 C 
ATOM      6  C   UNL     1      44.527  20.594  19.847  0.00  0.00    -0.046 C 
ATOM      7  C   UNL     1      43.096  20.931  19.364  0.00  0.00    +0.026 C 
ATOM      8  C   UNL     1      44.716  21.260  21.209  0.00  0.00    +0.024 C 
ATOM      9  C   UNL     1      46.122  17.090  19.610  0.00  0.00    +0.128 C 
ATOM     14  C   UNL     1      45.124  16.377  20.471  0.00  0.00    -0.241 C 
ATOM     17  C   UNL     1      44.148  16.983  21.117  0.00  0.00    +0.062 C 
ATOM     18  C   UNL     1      43.908  18.468  21.063  0.00  0.00    +0.216 C 
ATOM     21  C   UNL     1      44.687  19.088  19.902  0.00  0.00    +0.043 C 
ENDROOT
BRANCH   9  10
ATOM     10  O   UNL     1      45.779  16.909  18.238  0.00  0.00    -0.526 OA
ATOM     11  H   UNL     1      46.088  16.075  17.861  0.00  0.00    +0.384 HD
ENDBRANCH   9  10
BRANCH   9  12
ATOM     12  C   UNL     1      47.488  16.511  19.869  0.00  0.00    +0.420 C 
ATOM     13  O   UNL     1      48.135  16.057  18.956  0.00  0.00    -0.428 OA
ENDBRANCH   9  12
BRANCH  14  15
ATOM     15  C   UNL     1      45.242  14.924  20.602  0.00  0.00    +0.473 C 
ATOM     16  O   UNL     1      45.048  14.211  19.639  0.00  0.00    -0.451 OA
ENDBRANCH  14  15
BRANCH  18  19
ATOM     19  O   UNL     1      42.500  18.657  20.884  0.00  0.00    -0.547 OA
ATOM     20  H   UNL     1      42.273  19.404  20.312  0.00  0.00    +0.378 HD
ENDBRANCH  18  19
TORSDOF 4
ENDMDL
MODEL 6
REMARK VINA RESULT:      -4.2      4.382      6.525
REMARK  Name = ZINC04098287
REMARK  7 active torsions:
REMARK  status: ('A' for Active; 'I' for Inactive)
REMARK    1  A    between atoms: C1_1  and  C2_2
REMARK    2  A    between atoms: C6_6  and  C14_20
REMARK    3  A    between atoms: C6_6  and  C15_21
REMARK    4  A    between atoms: C8_9  and  O4_19
REMARK    5  A    between atoms: C10_12  and  C13_17
REMARK    6  A    between atoms: C11_13  and  C12_14
REMARK    7  A    between atoms: C11_13  and  O2_16
REMARK                            x       y       z     vdW  Elec       q    Type
REMARK                         _______ _______ _______ _____ _____    ______ ____
ROOT
ATOM      1  C   UNL     1      49.628  17.054  19.653  0.00  0.00    +0.042 C 
ATOM      2  C   UNL     1      49.282  17.371  18.195  0.00  0.00    -0.017 C 
ATOM      3  C   UNL     1      49.590  16.158  17.316  0.00  0.00    +0.034 C 
ATOM      4  C   UNL     1      51.100  15.945  17.218  0.00  0.00    +0.009 C 
ATOM      5  C   UNL     1      51.719  17.162  16.539  0.00  0.00    +0.017 C 
ATOM      6  C   UNL     1      51.464  18.430  17.356  0.00  0.00    -0.046 C 
ATOM      7  C   UNL     1      51.935  19.602  16.462  0.00  0.00    +0.026 C 
ATOM      8  C   UNL     1      52.356  18.416  18.596  0.00  0.00    +0.024 C 
ATOM      9  C   UNL     1      47.766  17.635  18.109  0.00  0.00    +0.128 C 
ATOM     14  C   UNL     1      47.432  18.936  18.775  0.00  0.00    -0.241 C 
ATOM     17  C   UNL     1      48.318  19.876  19.033  0.00  0.00    +0.062 C 
ATOM     18  C   UNL     1      49.779  19.764  18.683  0.00  0.00    +0.216 C 
ATOM     21  C   UNL     1      49.998  18.622  17.689  0.00  0.00    +0.043 C 
ENDROOT
BRANCH   9  10
ATOM     10  O   UNL     1      47.365  17.685  16.742  0.00  0.00    -0.526 OA
ATOM     11  H   UNL     1      46.547  17.206  16.554  0.00  0.00    +0.384 HD
ENDBRANCH   9  10
BRANCH   9  12
ATOM     12  C   UNL     1      47.026  16.526  18.812  0.00  0.00    +0.420 C 
ATOM     13  O   UNL     1      46.221  15.860  18.207  0.00  0.00    -0.428 OA
ENDBRANCH   9  12
BRANCH  14  15
ATOM     15  C   UNL     1      46.040  19.173  19.160  0.00  0.00    +0.473 C 
ATOM     16  O   UNL     1      45.202  19.383  18.308  0.00  0.00    -0.451 OA
ENDBRANCH  14  15
BRANCH  18  19
ATOM     19  O   UNL     1      50.167  21.016  18.107  0.00  0.00    -0.547 OA
ATOM     20  H   UNL     1      50.471  21.668  18.753  0.00  0.00    +0.378 HD
ENDBRANCH  18  19
TORSDOF 4
ENDMDL
MODEL 7
REMARK VINA RESULT:      -4.2      5.391      6.547
REMARK  Name = ZINC04098287
REMARK  7 active torsions:
REMARK  status: ('A' for Active; 'I' for Inactive)
REMARK    1  A    between atoms: C1_1  and  C2_2
REMARK    2  A    between atoms: C6_6  and  C14_20
REMARK    3  A    between atoms: C6_6  and  C15_21
REMARK    4  A    between atoms: C8_9  and  O4_19
REMARK    5  A    between atoms: C10_12  and  C13_17
REMARK    6  A    between atoms: C11_13  and  C12_14
REMARK    7  A    between atoms: C11_13  and  O2_16
REMARK                            x       y       z     vdW  Elec       q    Type
REMARK                         _______ _______ _______ _____ _____    ______ ____
ROOT
ATOM      1  C   UNL     1      52.566  17.387  18.492  0.00  0.00    +0.042 C 
ATOM      2  C   UNL     1      51.262  17.681  17.745  0.00  0.00    -0.017 C 
ATOM      3  C   UNL     1      51.575  18.121  16.315  0.00  0.00    +0.034 C 
ATOM      4  C   UNL     1      52.229  19.502  16.316  0.00  0.00    +0.009 C 
ATOM      5  C   UNL     1      51.237  20.508  16.889  0.00  0.00    +0.017 C 
ATOM      6  C   UNL     1      50.867  20.149  18.330  0.00  0.00    -0.046 C 
ATOM      7  C   UNL     1      49.705  21.097  18.709  0.00  0.00    +0.026 C 
ATOM      8  C   UNL     1      52.044  20.481  19.247  0.00  0.00    +0.024 C 
ATOM      9  C   UNL     1      50.451  16.373  17.663  0.00  0.00    +0.128 C 
ATOM     14  C   UNL     1      49.930  16.005  19.020  0.00  0.00    -0.241 C 
ATOM     17  C   UNL     1      49.840  16.852  20.025  0.00  0.00    +0.062 C 
ATOM     18  C   UNL     1      50.243  18.300  19.934  0.00  0.00    +0.216 C 
ATOM     21  C   UNL     1      50.400  18.714  18.470  0.00  0.00    +0.043 C 
ENDROOT
BRANCH   9  10
ATOM     10  O   UNL     1      49.357  16.543  16.765  0.00  0.00    -0.526 OA
ATOM     11  H   UNL     1      49.224  15.800  16.162  0.00  0.00    +0.384 HD
ENDBRANCH   9  10
BRANCH   9  12
ATOM     12  C   UNL     1      51.343  15.264  17.169  0.00  0.00    +0.420 C 
ATOM     13  O   UNL     1      51.038  14.639  16.181  0.00  0.00    -0.428 OA
ENDBRANCH   9  12
BRANCH  14  15
ATOM     15  C   UNL     1      49.497  14.624  19.239  0.00  0.00    +0.473 C 
ATOM     16  O   UNL     1      48.467  14.225  18.736  0.00  0.00    -0.451 OA
ENDBRANCH  14  15
BRANCH  18  19
ATOM     19  O   UNL     1      49.208  19.062  20.566  0.00  0.00    -0.547 OA
ATOM     20  H   UNL     1      49.036  19.916  20.145  0.00  0.00    +0.378 HD
ENDBRANCH  18  19
TORSDOF 4
ENDMDL
MODEL 8
REMARK VINA RESULT:      -4.1      3.254      4.107
REMARK  Name = ZINC04098287
REMARK  7 active torsions:
REMARK  status: ('A' for Active; 'I' for Inactive)
REMARK    1  A    between atoms: C1_1  and  C2_2
REMARK    2  A    between atoms: C6_6  and  C14_20
REMARK    3  A    between atoms: C6_6  and  C15_21
REMARK    4  A    between atoms: C8_9  and  O4_19
REMARK    5  A    between atoms: C10_12  and  C13_17
REMARK    6  A    between atoms: C11_13  and  C12_14
REMARK    7  A    between atoms: C11_13  and  O2_16
REMARK                            x       y       z     vdW  Elec       q    Type
REMARK                         _______ _______ _______ _____ _____    ______ ____
ROOT
ATOM      1  C   UNL     1      48.576  17.325  20.225  0.00  0.00    +0.042 C 
ATOM      2  C   UNL     1      48.376  17.885  18.813  0.00  0.00    -0.017 C 
ATOM      3  C   UNL     1      49.642  18.615  18.364  0.00  0.00    +0.034 C 
ATOM      4  C   UNL     1      49.825  19.903  19.165  0.00  0.00    +0.009 C 
ATOM      5  C   UNL     1      48.646  20.825  18.876  0.00  0.00    +0.017 C 
ATOM      6  C   UNL     1      47.327  20.176  19.301  0.00  0.00    -0.046 C 
ATOM      7  C   UNL     1      46.214  21.100  18.756  0.00  0.00    +0.026 C 
ATOM      8  C   UNL     1      47.228  20.196  20.826  0.00  0.00    +0.024 C 
ATOM      9  C   UNL     1      48.156  16.698  17.855  0.00  0.00    +0.128 C 
ATOM     14  C   UNL     1      46.819  16.071  18.110  0.00  0.00    -0.241 C 
ATOM     17  C   UNL     1      45.841  16.670  18.759  0.00  0.00    +0.062 C 
ATOM     18  C   UNL     1      45.942  18.065  19.319  0.00  0.00    +0.216 C 
ATOM     21  C   UNL     1      47.148  18.789  18.718  0.00  0.00    +0.043 C 
ENDROOT
BRANCH   9  10
ATOM     10  O   UNL     1      48.216  17.155  16.505  0.00  0.00    -0.526 OA
ATOM     11  H   UNL     1      47.868  16.525  15.861  0.00  0.00    +0.384 HD
ENDBRANCH   9  10
BRANCH   9  12
ATOM     12  C   UNL     1      49.228  15.665  18.086  0.00  0.00    +0.420 C 
ATOM     13  O   UNL     1      49.980  15.363  17.190  0.00  0.00    -0.428 OA
ENDBRANCH   9  12
BRANCH  14  15
ATOM     15  C   UNL     1      46.588  14.716  17.609  0.00  0.00    +0.473 C 
ATOM     16  O   UNL     1      46.589  14.503  16.414  0.00  0.00    -0.451 OA
ENDBRANCH  14  15
BRANCH  18  19
ATOM     19  O   UNL     1      44.726  18.740  18.979  0.00  0.00    -0.547 OA
ATOM     20  H   UNL     1      43.967  18.151  18.868  0.00  0.00    +0.378 HD
ENDBRANCH  18  19
TORSDOF 4
ENDMDL
MODEL 9
REMARK VINA RESULT:      -4.1      4.224      5.914
REMARK  Name = ZINC04098287
REMARK  7 active torsions:
REMARK  status: ('A' for Active; 'I' for Inactive)
REMARK    1  A    between atoms: C1_1  and  C2_2
REMARK    2  A    between atoms: C6_6  and  C14_20
REMARK    3  A    between atoms: C6_6  and  C15_21
REMARK    4  A    between atoms: C8_9  and  O4_19
REMARK    5  A    between atoms: C10_12  and  C13_17
REMARK    6  A    between atoms: C11_13  and  C12_14
REMARK    7  A    between atoms: C11_13  and  O2_16
REMARK                            x       y       z     vdW  Elec       q    Type
REMARK                         _______ _______ _______ _____ _____    ______ ____
ROOT
ATOM      1  C   UNL     1      49.876  18.153  20.360  0.00  0.00    +0.042 C 
ATOM      2  C   UNL     1      49.616  18.767  18.981  0.00  0.00    -0.017 C 
ATOM      3  C   UNL     1      49.747  20.288  19.061  0.00  0.00    +0.034 C 
ATOM      4  C   UNL     1      48.590  20.878  19.866  0.00  0.00    +0.009 C 
ATOM      5  C   UNL     1      47.286  20.576  19.134  0.00  0.00    +0.017 C 
ATOM      6  C   UNL     1      47.067  19.067  19.011  0.00  0.00    -0.046 C 
ATOM      7  C   UNL     1      45.852  18.899  18.069  0.00  0.00    +0.026 C 
ATOM      8  C   UNL     1      46.667  18.505  20.374  0.00  0.00    +0.024 C 
ATOM      9  C   UNL     1      50.705  18.256  18.016  0.00  0.00    +0.128 C 
ATOM     14  C   UNL     1      50.495  16.800  17.729  0.00  0.00    -0.241 C 
ATOM     17  C   UNL     1      49.358  16.168  17.940  0.00  0.00    +0.062 C 
ATOM     18  C   UNL     1      48.124  16.832  18.490  0.00  0.00    +0.216 C 
ATOM     21  C   UNL     1      48.261  18.353  18.409  0.00  0.00    +0.043 C 
ENDROOT
BRANCH   9  10
ATOM     10  O   UNL     1      50.649  18.993  16.797  0.00  0.00    -0.526 OA
ATOM     11  H   UNL     1      51.237  19.760  16.774  0.00  0.00    +0.384 HD
ENDBRANCH   9  10
BRANCH   9  12
ATOM     12  C   UNL     1      52.059  18.434  18.653  0.00  0.00    +0.420 C 
ATOM     13  O   UNL     1      52.872  19.168  18.146  0.00  0.00    -0.428 OA
ENDBRANCH   9  12
BRANCH  14  15
ATOM     15  C   UNL     1      51.618  16.038  17.181  0.00  0.00    +0.473 C 
ATOM     16  O   UNL     1      51.998  16.248  16.048  0.00  0.00    -0.451 OA
ENDBRANCH  14  15
BRANCH  18  19
ATOM     19  O   UNL     1      47.019  16.382  17.699  0.00  0.00    -0.547 OA
ATOM     20  H   UNL     1      46.198  16.869  17.856  0.00  0.00    +0.378 HD
ENDBRANCH  18  19
TORSDOF 4
ENDMDL
