MODEL 1
REMARK VINA RESULT:      -7.2      0.000      0.000
REMARK  Name = ZINC95486174
REMARK  11 active torsions:
REMARK  status: ('A' for Active; 'I' for Inactive)
REMARK    1  A    between atoms: C1_1  and  C2_2
REMARK    2  A    between atoms: C2_2  and  O2_4
REMARK    3  A    between atoms: O2_4  and  C3_5
REMARK    4  A    between atoms: C5_8  and  C30_40
REMARK    5  A    between atoms: C6_9  and  C29_39
REMARK    6  A    between atoms: C10_14  and  C11_15
REMARK    7  A    between atoms: C10_14  and  C12_16
REMARK    8  A    between atoms: C13_17  and  C28_38
REMARK    9  A    between atoms: C14_18  and  C27_37
REMARK   10  A    between atoms: C18_26  and  C23_32
REMARK   11  A    between atoms: C19_28  and  C22_31
REMARK                            x       y       z     vdW  Elec       q    Type
REMARK                         _______ _______ _______ _____ _____    ______ ____
ROOT
ATOM      4  C   UNL     1      49.116  18.885  19.571  0.00  0.00    +0.167 C 
ATOM      5  C   UNL     1      50.112  17.727  19.538  0.00  0.00    +0.039 C 
ATOM      6  C   UNL     1      49.814  16.751  18.403  0.00  0.00    -0.016 C 
ATOM      7  C   UNL     1      50.090  17.480  17.067  0.00  0.00    +0.026 C 
ATOM      8  C   UNL     1      48.384  16.242  18.495  0.00  0.00    -0.020 C 
ATOM      9  C   UNL     1      48.271  15.270  19.694  0.00  0.00    +0.023 C 
ATOM     10  C   UNL     1      47.340  17.339  18.655  0.00  0.00    -0.014 C 
ATOM     11  C   UNL     1      47.187  18.083  17.304  0.00  0.00    +0.031 C 
ATOM     12  C   UNL     1      45.940  16.776  18.886  0.00  0.00    +0.029 C 
ATOM     13  C   UNL     1      45.015  17.625  19.729  0.00  0.00    +0.049 C 
ATOM     14  C   UNL     1      45.211  19.129  19.646  0.00  0.00    -0.054 C 
ATOM     15  C   UNL     1      44.510  19.652  18.381  0.00  0.00    +0.053 C 
ATOM     16  C   UNL     1      44.512  19.803  20.825  0.00  0.00    +0.277 C 
ATOM     22  O   UNL     1      44.762  21.194  20.883  0.00  0.00    -0.340 OA
ATOM     23  C   UNL     1      46.023  21.637  20.926  0.00  0.00    +0.509 C 
ATOM     24  O   UNL     1      46.295  22.648  21.533  0.00  0.00    -0.431 OA
ATOM     25  C   UNL     1      47.102  20.863  20.214  0.00  0.00    +0.074 C 
ATOM     26  O   UNL     1      47.017  20.674  18.809  0.00  0.00    -0.269 OA
ATOM     27  C   UNL     1      46.680  19.528  19.587  0.00  0.00    +0.069 C 
ATOM     28  C   UNL     1      48.070  15.393  17.256  0.00  0.00    +0.043 C 
ATOM     29  C   UNL     1      48.934  14.134  17.265  0.00  0.00    +0.028 C 
ATOM     30  C   UNL     1      50.368  14.424  17.594  0.00  0.00    +0.370 C 
ATOM     31  O   UNL     1      51.221  13.638  17.188  0.00  0.00    -0.469 OA
ATOM     32  C   UNL     1      50.840  15.610  18.388  0.00  0.00    -0.089 C 
ATOM     33  C   UNL     1      51.319  15.186  19.772  0.00  0.00    +0.058 C 
ATOM     34  C   UNL     1      52.089  16.160  17.643  0.00  0.00    +0.043 C 
ATOM     35  C   UNL     1      47.688  18.374  19.713  0.00  0.00    +0.000 C 
ATOM     36  C   UNL     1      47.547  17.830  21.145  0.00  0.00    +0.061 C 
ENDROOT
BRANCH  16  17
ATOM     17  C   UNL     1      43.027  19.591  20.686  0.00  0.00    -0.188 A 
ATOM     18  C   UNL     1      42.222  18.728  21.464  0.00  0.00    -0.045 A 
ATOM     19  C   UNL     1      40.964  18.849  21.006  0.00  0.00    +0.172 A 
ATOM     20  O   UNL     1      40.964  19.736  19.996  0.00  0.00    -0.171 OA
ATOM     21  C   UNL     1      42.211  20.193  19.802  0.00  0.00    +0.208 A 
ENDBRANCH  16  17
BRANCH   4   3
ATOM      3  O   UNL     1      49.286  19.764  18.470  0.00  0.00    -0.318 OA
BRANCH   3   2
ATOM      1  C   UNL     1      51.088  20.979  17.301  0.00  0.00    +0.152 C 
ATOM      2  C   UNL     1      50.302  20.638  18.539  0.00  0.00    +0.458 C 
ATOM     37  O   UNL     1      50.586  21.151  19.596  0.00  0.00    -0.513 OA
ENDBRANCH   3   2
ENDBRANCH   4   3
TORSDOF 3
ENDMDL
MODEL 2
REMARK VINA RESULT:      -6.6      2.747      6.318
REMARK  Name = ZINC95486174
REMARK  11 active torsions:
REMARK  status: ('A' for Active; 'I' for Inactive)
REMARK    1  A    between atoms: C1_1  and  C2_2
REMARK    2  A    between atoms: C2_2  and  O2_4
REMARK    3  A    between atoms: O2_4  and  C3_5
REMARK    4  A    between atoms: C5_8  and  C30_40
REMARK    5  A    between atoms: C6_9  and  C29_39
REMARK    6  A    between atoms: C10_14  and  C11_15
REMARK    7  A    between atoms: C10_14  and  C12_16
REMARK    8  A    between atoms: C13_17  and  C28_38
REMARK    9  A    between atoms: C14_18  and  C27_37
REMARK   10  A    between atoms: C18_26  and  C23_32
REMARK   11  A    between atoms: C19_28  and  C22_31
REMARK                            x       y       z     vdW  Elec       q    Type
REMARK                         _______ _______ _______ _____ _____    ______ ____
ROOT
ATOM      4  C   UNL     1      48.321  17.125  20.229  0.00  0.00    +0.167 C 
ATOM      5  C   UNL     1      49.530  17.990  20.586  0.00  0.00    +0.039 C 
ATOM      6  C   UNL     1      50.132  18.662  19.356  0.00  0.00    -0.016 C 
ATOM      7  C   UNL     1      49.111  19.698  18.833  0.00  0.00    +0.026 C 
ATOM      8  C   UNL     1      50.491  17.627  18.301  0.00  0.00    -0.020 C 
ATOM      9  C   UNL     1      51.727  16.828  18.778  0.00  0.00    +0.023 C 
ATOM     10  C   UNL     1      49.369  16.647  17.981  0.00  0.00    -0.014 C 
ATOM     11  C   UNL     1      48.283  17.384  17.157  0.00  0.00    +0.031 C 
ATOM     12  C   UNL     1      49.820  15.544  17.027  0.00  0.00    +0.029 C 
ATOM     13  C   UNL     1      49.130  14.208  17.186  0.00  0.00    +0.049 C 
ATOM     14  C   UNL     1      47.688  14.242  17.661  0.00  0.00    -0.054 C 
ATOM     15  C   UNL     1      46.777  14.549  16.460  0.00  0.00    +0.053 C 
ATOM     16  C   UNL     1      47.279  12.856  18.157  0.00  0.00    +0.277 C 
ATOM     22  O   UNL     1      45.988  12.844  18.735  0.00  0.00    -0.340 OA
ATOM     23  C   UNL     1      45.710  13.672  19.747  0.00  0.00    +0.509 C 
ATOM     24  O   UNL     1      44.931  13.340  20.612  0.00  0.00    -0.431 OA
ATOM     25  C   UNL     1      46.379  15.021  19.803  0.00  0.00    +0.074 C 
ATOM     26  O   UNL     1      46.179  15.945  18.743  0.00  0.00    -0.269 OA
ATOM     27  C   UNL     1      47.448  15.294  18.735  0.00  0.00    +0.069 C 
ATOM     28  C   UNL     1      50.943  18.345  17.022  0.00  0.00    +0.043 C 
ATOM     29  C   UNL     1      52.245  19.097  17.290  0.00  0.00    +0.028 C 
ATOM     30  C   UNL     1      52.209  19.869  18.574  0.00  0.00    +0.370 C 
ATOM     31  O   UNL     1      52.946  20.847  18.678  0.00  0.00    -0.469 OA
ATOM     32  C   UNL     1      51.332  19.534  19.749  0.00  0.00    -0.089 C 
ATOM     33  C   UNL     1      52.156  18.974  20.903  0.00  0.00    +0.058 C 
ATOM     34  C   UNL     1      50.742  20.883  20.248  0.00  0.00    +0.043 C 
ATOM     35  C   UNL     1      48.695  16.058  19.209  0.00  0.00    +0.000 C 
ATOM     36  C   UNL     1      49.580  15.032  19.938  0.00  0.00    +0.061 C 
ENDROOT
BRANCH  16  17
ATOM     17  C   UNL     1      47.285  11.907  16.986  0.00  0.00    -0.188 A 
ATOM     18  C   UNL     1      46.155  11.410  16.299  0.00  0.00    -0.045 A 
ATOM     19  C   UNL     1      46.614  10.601  15.327  0.00  0.00    +0.172 A 
ATOM     20  O   UNL     1      47.956  10.582  15.390  0.00  0.00    -0.171 OA
ATOM     21  C   UNL     1      48.368  11.376  16.392  0.00  0.00    +0.208 A 
ENDBRANCH  16  17
BRANCH   4   3
ATOM      3  O   UNL     1      47.206  17.908  19.832  0.00  0.00    -0.318 OA
BRANCH   3   2
ATOM      1  C   UNL     1      45.955  19.884  20.622  0.00  0.00    +0.152 C 
ATOM      2  C   UNL     1      46.491  18.488  20.808  0.00  0.00    +0.458 C 
ATOM     37  O   UNL     1      46.277  17.891  21.837  0.00  0.00    -0.513 OA
ENDBRANCH   3   2
ENDBRANCH   4   3
TORSDOF 3
ENDMDL
MODEL 3
REMARK VINA RESULT:      -6.6      1.819      6.665
REMARK  Name = ZINC95486174
REMARK  11 active torsions:
REMARK  status: ('A' for Active; 'I' for Inactive)
REMARK    1  A    between atoms: C1_1  and  C2_2
REMARK    2  A    between atoms: C2_2  and  O2_4
REMARK    3  A    between atoms: O2_4  and  C3_5
REMARK    4  A    between atoms: C5_8  and  C30_40
REMARK    5  A    between atoms: C6_9  and  C29_39
REMARK    6  A    between atoms: C10_14  and  C11_15
REMARK    7  A    between atoms: C10_14  and  C12_16
REMARK    8  A    between atoms: C13_17  and  C28_38
REMARK    9  A    between atoms: C14_18  and  C27_37
REMARK   10  A    between atoms: C18_26  and  C23_32
REMARK   11  A    between atoms: C19_28  and  C22_31
REMARK                            x       y       z     vdW  Elec       q    Type
REMARK                         _______ _______ _______ _____ _____    ______ ____
ROOT
ATOM      4  C   UNL     1      48.425  19.542  19.145  0.00  0.00    +0.167 C 
ATOM      5  C   UNL     1      47.542  20.755  19.435  0.00  0.00    +0.039 C 
ATOM      6  C   UNL     1      46.706  20.562  20.697  0.00  0.00    -0.016 C 
ATOM      7  C   UNL     1      47.670  20.542  21.906  0.00  0.00    +0.026 C 
ATOM      8  C   UNL     1      45.878  19.291  20.602  0.00  0.00    -0.020 C 
ATOM      9  C   UNL     1      44.737  19.507  19.580  0.00  0.00    +0.023 C 
ATOM     10  C   UNL     1      46.672  18.057  20.194  0.00  0.00    -0.014 C 
ATOM     11  C   UNL     1      47.555  17.615  21.388  0.00  0.00    +0.031 C 
ATOM     12  C   UNL     1      45.778  16.840  19.974  0.00  0.00    +0.029 C 
ATOM     13  C   UNL     1      46.258  15.843  18.943  0.00  0.00    +0.049 C 
ATOM     14  C   UNL     1      47.762  15.703  18.784  0.00  0.00    -0.054 C 
ATOM     15  C   UNL     1      48.295  14.784  19.896  0.00  0.00    +0.053 C 
ATOM     16  C   UNL     1      48.074  14.996  17.466  0.00  0.00    +0.277 C 
ATOM     22  O   UNL     1      49.461  14.947  17.190  0.00  0.00    -0.340 OA
ATOM     23  C   UNL     1      50.167  16.082  17.153  0.00  0.00    +0.509 C 
ATOM     24  O   UNL     1      51.111  16.190  16.403  0.00  0.00    -0.431 OA
ATOM     25  C   UNL     1      49.774  17.226  18.052  0.00  0.00    +0.074 C 
ATOM     26  O   UNL     1      49.785  17.044  19.461  0.00  0.00    -0.269 OA
ATOM     27  C   UNL     1      48.488  17.039  18.867  0.00  0.00    +0.069 C 
ATOM     28  C   UNL     1      45.175  19.044  21.945  0.00  0.00    +0.043 C 
ATOM     29  C   UNL     1      44.159  20.154  22.202  0.00  0.00    +0.028 C 
ATOM     30  C   UNL     1      44.713  21.518  21.920  0.00  0.00    +0.370 C 
ATOM     31  O   UNL     1      44.212  22.475  22.505  0.00  0.00    -0.469 OA
ATOM     32  C   UNL     1      45.844  21.802  20.969  0.00  0.00    -0.089 C 
ATOM     33  C   UNL     1      45.337  22.495  19.709  0.00  0.00    +0.058 C 
ATOM     34  C   UNL     1      46.768  22.824  21.688  0.00  0.00    +0.043 C 
ATOM     35  C   UNL     1      47.588  18.278  19.002  0.00  0.00    +0.000 C 
ATOM     36  C   UNL     1      46.818  18.399  17.675  0.00  0.00    +0.061 C 
ENDROOT
BRANCH  16  17
ATOM     17  C   UNL     1      47.554  13.584  17.545  0.00  0.00    -0.188 A 
ATOM     18  C   UNL     1      46.239  13.153  17.255  0.00  0.00    -0.045 A 
ATOM     19  C   UNL     1      46.212  11.823  17.454  0.00  0.00    +0.172 A 
ATOM     20  O   UNL     1      47.435  11.428  17.845  0.00  0.00    -0.171 OA
ATOM     21  C   UNL     1      48.254  12.491  17.897  0.00  0.00    +0.208 A 
ENDBRANCH  16  17
BRANCH   4   3
ATOM      3  O   UNL     1      49.475  19.411  20.091  0.00  0.00    -0.318 OA
BRANCH   3   2
ATOM      1  C   UNL     1      50.950  20.730  18.616  0.00  0.00    +0.152 C 
ATOM      2  C   UNL     1      50.508  20.259  19.977  0.00  0.00    +0.458 C 
ATOM     37  O   UNL     1      51.084  20.647  20.967  0.00  0.00    -0.513 OA
ENDBRANCH   3   2
ENDBRANCH   4   3
TORSDOF 3
ENDMDL
MODEL 4
REMARK VINA RESULT:      -6.3      2.309      4.444
REMARK  Name = ZINC95486174
REMARK  11 active torsions:
REMARK  status: ('A' for Active; 'I' for Inactive)
REMARK    1  A    between atoms: C1_1  and  C2_2
REMARK    2  A    between atoms: C2_2  and  O2_4
REMARK    3  A    between atoms: O2_4  and  C3_5
REMARK    4  A    between atoms: C5_8  and  C30_40
REMARK    5  A    between atoms: C6_9  and  C29_39
REMARK    6  A    between atoms: C10_14  and  C11_15
REMARK    7  A    between atoms: C10_14  and  C12_16
REMARK    8  A    between atoms: C13_17  and  C28_38
REMARK    9  A    between atoms: C14_18  and  C27_37
REMARK   10  A    between atoms: C18_26  and  C23_32
REMARK   11  A    between atoms: C19_28  and  C22_31
REMARK                            x       y       z     vdW  Elec       q    Type
REMARK                         _______ _______ _______ _____ _____    ______ ____
ROOT
ATOM      4  C   UNL     1      46.362  15.439  19.689  0.00  0.00    +0.167 C 
ATOM      5  C   UNL     1      47.099  14.678  18.586  0.00  0.00    +0.039 C 
ATOM      6  C   UNL     1      48.573  15.065  18.514  0.00  0.00    -0.016 C 
ATOM      7  C   UNL     1      49.261  14.556  19.802  0.00  0.00    +0.026 C 
ATOM      8  C   UNL     1      48.724  16.568  18.339  0.00  0.00    -0.020 C 
ATOM      9  C   UNL     1      48.296  16.954  16.903  0.00  0.00    +0.023 C 
ATOM     10  C   UNL     1      47.917  17.397  19.330  0.00  0.00    -0.014 C 
ATOM     11  C   UNL     1      48.590  17.303  20.722  0.00  0.00    +0.031 C 
ATOM     12  C   UNL     1      47.988  18.891  19.026  0.00  0.00    +0.029 C 
ATOM     13  C   UNL     1      46.769  19.702  19.406  0.00  0.00    +0.049 C 
ATOM     14  C   UNL     1      45.984  19.222  20.613  0.00  0.00    -0.054 C 
ATOM     15  C   UNL     1      46.688  19.713  21.890  0.00  0.00    +0.053 C 
ATOM     16  C   UNL     1      44.601  19.870  20.617  0.00  0.00    +0.277 C 
ATOM     22  O   UNL     1      43.767  19.369  21.644  0.00  0.00    -0.340 OA
ATOM     23  C   UNL     1      43.536  18.054  21.724  0.00  0.00    +0.509 C 
ATOM     24  O   UNL     1      42.472  17.645  22.130  0.00  0.00    -0.431 OA
ATOM     25  C   UNL     1      44.611  17.088  21.298  0.00  0.00    +0.074 C 
ATOM     26  O   UNL     1      45.865  17.099  21.966  0.00  0.00    -0.269 OA
ATOM     27  C   UNL     1      45.870  17.704  20.675  0.00  0.00    +0.069 C 
ATOM     28  C   UNL     1      50.211  16.940  18.430  0.00  0.00    +0.043 C 
ATOM     29  C   UNL     1      50.964  16.331  17.250  0.00  0.00    +0.028 C 
ATOM     30  C   UNL     1      50.594  14.898  17.009  0.00  0.00    +0.370 C 
ATOM     31  O   UNL     1      51.416  14.179  16.445  0.00  0.00    -0.469 OA
ATOM     32  C   UNL     1      49.286  14.274  17.410  0.00  0.00    -0.089 C 
ATOM     33  C   UNL     1      48.419  13.991  16.188  0.00  0.00    +0.058 C 
ATOM     34  C   UNL     1      49.638  12.890  18.025  0.00  0.00    +0.043 C 
ATOM     35  C   UNL     1      46.475  16.944  19.483  0.00  0.00    +0.000 C 
ATOM     36  C   UNL     1      45.608  17.294  18.261  0.00  0.00    +0.061 C 
ENDROOT
BRANCH  16  17
ATOM     17  C   UNL     1      44.769  21.354  20.822  0.00  0.00    -0.188 A 
ATOM     18  C   UNL     1      45.007  22.321  19.819  0.00  0.00    -0.045 A 
ATOM     19  C   UNL     1      45.088  23.513  20.438  0.00  0.00    +0.172 A 
ATOM     20  O   UNL     1      44.913  23.319  21.755  0.00  0.00    -0.171 OA
ATOM     21  C   UNL     1      44.713  22.012  21.993  0.00  0.00    +0.208 A 
ENDBRANCH  16  17
BRANCH   4   3
ATOM      3  O   UNL     1      46.768  15.022  20.983  0.00  0.00    -0.318 OA
BRANCH   3   2
ATOM      1  C   UNL     1      47.094  12.934  22.259  0.00  0.00    +0.152 C 
ATOM      2  C   UNL     1      46.245  13.876  21.446  0.00  0.00    +0.458 C 
ATOM     37  O   UNL     1      45.092  13.599  21.210  0.00  0.00    -0.513 OA
ENDBRANCH   3   2
ENDBRANCH   4   3
TORSDOF 3
ENDMDL
MODEL 5
REMARK VINA RESULT:      -6.2      1.867      6.864
REMARK  Name = ZINC95486174
REMARK  11 active torsions:
REMARK  status: ('A' for Active; 'I' for Inactive)
REMARK    1  A    between atoms: C1_1  and  C2_2
REMARK    2  A    between atoms: C2_2  and  O2_4
REMARK    3  A    between atoms: O2_4  and  C3_5
REMARK    4  A    between atoms: C5_8  and  C30_40
REMARK    5  A    between atoms: C6_9  and  C29_39
REMARK    6  A    between atoms: C10_14  and  C11_15
REMARK    7  A    between atoms: C10_14  and  C12_16
REMARK    8  A    between atoms: C13_17  and  C28_38
REMARK    9  A    between atoms: C14_18  and  C27_37
REMARK   10  A    between atoms: C18_26  and  C23_32
REMARK   11  A    between atoms: C19_28  and  C22_31
REMARK                            x       y       z     vdW  Elec       q    Type
REMARK                         _______ _______ _______ _____ _____    ______ ____
ROOT
ATOM      4  C   UNL     1      48.995  19.356  18.928  0.00  0.00    +0.167 C 
ATOM      5  C   UNL     1      47.941  20.420  19.233  0.00  0.00    +0.039 C 
ATOM      6  C   UNL     1      47.261  20.179  20.578  0.00  0.00    -0.016 C 
ATOM      7  C   UNL     1      48.312  20.409  21.688  0.00  0.00    +0.026 C 
ATOM      8  C   UNL     1      46.663  18.782  20.634  0.00  0.00    -0.020 C 
ATOM      9  C   UNL     1      45.420  18.729  19.715  0.00  0.00    +0.023 C 
ATOM     10  C   UNL     1      47.624  17.674  20.223  0.00  0.00    -0.014 C 
ATOM     11  C   UNL     1      48.668  17.476  21.350  0.00  0.00    +0.031 C 
ATOM     12  C   UNL     1      46.941  16.311  20.157  0.00  0.00    +0.029 C 
ATOM     13  C   UNL     1      47.499  15.338  19.143  0.00  0.00    +0.049 C 
ATOM     14  C   UNL     1      48.985  15.444  18.850  0.00  0.00    -0.054 C 
ATOM     15  C   UNL     1      49.763  14.711  19.956  0.00  0.00    +0.053 C 
ATOM     16  C   UNL     1      49.305  14.707  17.550  0.00  0.00    +0.277 C 
ATOM     22  O   UNL     1      50.650  14.873  17.146  0.00  0.00    -0.340 OA
ATOM     23  C   UNL     1      51.141  16.106  16.978  0.00  0.00    +0.509 C 
ATOM     24  O   UNL     1      51.985  16.317  16.136  0.00  0.00    -0.431 OA
ATOM     25  C   UNL     1      50.632  17.228  17.844  0.00  0.00    +0.074 C 
ATOM     26  O   UNL     1      50.792  17.153  19.254  0.00  0.00    -0.269 OA
ATOM     27  C   UNL     1      49.471  16.885  18.788  0.00  0.00    +0.069 C 
ATOM     28  C   UNL     1      46.130  18.518  22.050  0.00  0.00    +0.043 C 
ATOM     29  C   UNL     1      44.961  19.456  22.340  0.00  0.00    +0.028 C 
ATOM     30  C   UNL     1      45.242  20.870  21.929  0.00  0.00    +0.370 C 
ATOM     31  O   UNL     1      44.633  21.768  22.505  0.00  0.00    -0.469 OA
ATOM     32  C   UNL     1      46.221  21.271  20.860  0.00  0.00    -0.089 C 
ATOM     33  C   UNL     1      45.497  21.776  19.618  0.00  0.00    +0.058 C 
ATOM     34  C   UNL     1      47.010  22.484  21.430  0.00  0.00    +0.043 C 
ATOM     35  C   UNL     1      48.383  17.961  18.937  0.00  0.00    +0.000 C 
ATOM     36  C   UNL     1      47.494  17.854  17.686  0.00  0.00    +0.061 C 
ENDROOT
BRANCH  16  17
ATOM     17  C   UNL     1      49.048  13.237  17.757  0.00  0.00    -0.188 A 
ATOM     18  C   UNL     1      47.793  12.587  17.719  0.00  0.00    -0.045 A 
ATOM     19  C   UNL     1      48.022  11.282  17.953  0.00  0.00    +0.172 A 
ATOM     20  O   UNL     1      49.343  11.109  18.131  0.00  0.00    -0.171 OA
ATOM     21  C   UNL     1      49.970  12.290  18.008  0.00  0.00    +0.208 A 
ENDBRANCH  16  17
BRANCH   4   3
ATOM      3  O   UNL     1      50.127  19.472  19.776  0.00  0.00    -0.318 OA
BRANCH   3   2
ATOM      1  C   UNL     1      51.234  20.891  18.087  0.00  0.00    +0.152 C 
ATOM      2  C   UNL     1      50.987  20.468  19.512  0.00  0.00    +0.458 C 
ATOM     37  O   UNL     1      51.563  21.026  20.416  0.00  0.00    -0.513 OA
ENDBRANCH   3   2
ENDBRANCH   4   3
TORSDOF 3
ENDMDL
MODEL 6
REMARK VINA RESULT:      -6.1      1.447      1.716
REMARK  Name = ZINC95486174
REMARK  11 active torsions:
REMARK  status: ('A' for Active; 'I' for Inactive)
REMARK    1  A    between atoms: C1_1  and  C2_2
REMARK    2  A    between atoms: C2_2  and  O2_4
REMARK    3  A    between atoms: O2_4  and  C3_5
REMARK    4  A    between atoms: C5_8  and  C30_40
REMARK    5  A    between atoms: C6_9  and  C29_39
REMARK    6  A    between atoms: C10_14  and  C11_15
REMARK    7  A    between atoms: C10_14  and  C12_16
REMARK    8  A    between atoms: C13_17  and  C28_38
REMARK    9  A    between atoms: C14_18  and  C27_37
REMARK   10  A    between atoms: C18_26  and  C23_32
REMARK   11  A    between atoms: C19_28  and  C22_31
REMARK                            x       y       z     vdW  Elec       q    Type
REMARK                         _______ _______ _______ _____ _____    ______ ____
ROOT
ATOM      4  C   UNL     1      49.040  17.656  20.359  0.00  0.00    +0.167 C 
ATOM      5  C   UNL     1      49.665  16.294  20.658  0.00  0.00    +0.039 C 
ATOM      6  C   UNL     1      49.303  15.256  19.600  0.00  0.00    -0.016 C 
ATOM      7  C   UNL     1      49.991  15.666  18.278  0.00  0.00    +0.026 C 
ATOM      8  C   UNL     1      47.794  15.145  19.451  0.00  0.00    -0.020 C 
ATOM      9  C   UNL     1      47.215  14.439  20.700  0.00  0.00    +0.023 C 
ATOM     10  C   UNL     1      47.085  16.481  19.272  0.00  0.00    -0.014 C 
ATOM     11  C   UNL     1      47.374  17.012  17.845  0.00  0.00    +0.031 C 
ATOM     12  C   UNL     1      45.566  16.334  19.270  0.00  0.00    +0.029 C 
ATOM     13  C   UNL     1      44.785  17.513  19.807  0.00  0.00    +0.049 C 
ATOM     14  C   UNL     1      45.403  18.885  19.602  0.00  0.00    -0.054 C 
ATOM     15  C   UNL     1      45.098  19.357  18.170  0.00  0.00    +0.053 C 
ATOM     16  C   UNL     1      44.731  19.894  20.532  0.00  0.00    +0.277 C 
ATOM     22  O   UNL     1      45.344  21.168  20.487  0.00  0.00    -0.340 OA
ATOM     23  C   UNL     1      46.653  21.279  20.739  0.00  0.00    +0.509 C 
ATOM     24  O   UNL     1      47.089  22.273  21.275  0.00  0.00    -0.431 OA
ATOM     25  C   UNL     1      47.578  20.154  20.354  0.00  0.00    +0.074 C 
ATOM     26  O   UNL     1      47.681  19.770  18.990  0.00  0.00    -0.269 OA
ATOM     27  C   UNL     1      46.912  18.886  19.803  0.00  0.00    +0.069 C 
ATOM     28  C   UNL     1      47.470  14.215  18.274  0.00  0.00    +0.043 C 
ATOM     29  C   UNL     1      47.935  12.797  18.599  0.00  0.00    +0.028 C 
ATOM     30  C   UNL     1      49.315  12.765  19.182  0.00  0.00    +0.370 C 
ATOM     31  O   UNL     1      49.972  11.735  19.048  0.00  0.00    -0.469 OA
ATOM     32  C   UNL     1      49.958  13.906  19.921  0.00  0.00    -0.089 C 
ATOM     33  C   UNL     1      50.060  13.603  21.412  0.00  0.00    +0.058 C 
ATOM     34  C   UNL     1      51.418  13.995  19.393  0.00  0.00    +0.043 C 
ATOM     35  C   UNL     1      47.523  17.551  20.259  0.00  0.00    +0.000 C 
ATOM     36  C   UNL     1      46.997  17.298  21.682  0.00  0.00    +0.061 C 
ENDROOT
BRANCH  16  17
ATOM     17  C   UNL     1      43.291  20.044  20.114  0.00  0.00    -0.188 A 
ATOM     18  C   UNL     1      42.211  19.216  20.498  0.00  0.00    -0.045 A 
ATOM     19  C   UNL     1      41.111  19.708  19.902  0.00  0.00    +0.172 A 
ATOM     20  O   UNL     1      41.465  20.785  19.180  0.00  0.00    -0.171 OA
ATOM     21  C   UNL     1      42.785  20.995  19.309  0.00  0.00    +0.208 A 
ENDBRANCH  16  17
BRANCH   4   3
ATOM      3  O   UNL     1      49.631  18.274  19.226  0.00  0.00    -0.318 OA
BRANCH   3   2
ATOM      1  C   UNL     1      51.143  19.610  20.647  0.00  0.00    +0.152 C 
ATOM      2  C   UNL     1      50.842  18.827  19.397  0.00  0.00    +0.458 C 
ATOM     37  O   UNL     1      51.691  18.696  18.546  0.00  0.00    -0.513 OA
ENDBRANCH   3   2
ENDBRANCH   4   3
TORSDOF 3
ENDMDL
MODEL 7
REMARK VINA RESULT:      -6.0      2.185      3.486
REMARK  Name = ZINC95486174
REMARK  11 active torsions:
REMARK  status: ('A' for Active; 'I' for Inactive)
REMARK    1  A    between atoms: C1_1  and  C2_2
REMARK    2  A    between atoms: C2_2  and  O2_4
REMARK    3  A    between atoms: O2_4  and  C3_5
REMARK    4  A    between atoms: C5_8  and  C30_40
REMARK    5  A    between atoms: C6_9  and  C29_39
REMARK    6  A    between atoms: C10_14  and  C11_15
REMARK    7  A    between atoms: C10_14  and  C12_16
REMARK    8  A    between atoms: C13_17  and  C28_38
REMARK    9  A    between atoms: C14_18  and  C27_37
REMARK   10  A    between atoms: C18_26  and  C23_32
REMARK   11  A    between atoms: C19_28  and  C22_31
REMARK                            x       y       z     vdW  Elec       q    Type
REMARK                         _______ _______ _______ _____ _____    ______ ____
ROOT
ATOM      4  C   UNL     1      49.881  16.469  19.158  0.00  0.00    +0.167 C 
ATOM      5  C   UNL     1      49.790  14.943  19.155  0.00  0.00    +0.039 C 
ATOM      6  C   UNL     1      48.577  14.446  18.373  0.00  0.00    -0.016 C 
ATOM      7  C   UNL     1      48.806  14.780  16.880  0.00  0.00    +0.026 C 
ATOM      8  C   UNL     1      47.300  15.071  18.911  0.00  0.00    -0.020 C 
ATOM      9  C   UNL     1      46.976  14.449  20.291  0.00  0.00    +0.023 C 
ATOM     10  C   UNL     1      47.359  16.586  19.059  0.00  0.00    -0.014 C 
ATOM     11  C   UNL     1      47.301  17.227  17.650  0.00  0.00    +0.031 C 
ATOM     12  C   UNL     1      46.112  17.151  19.733  0.00  0.00    +0.029 C 
ATOM     13  C   UNL     1      46.314  18.404  20.556  0.00  0.00    +0.049 C 
ATOM     14  C   UNL     1      47.405  19.351  20.090  0.00  0.00    -0.054 C 
ATOM     15  C   UNL     1      46.857  20.214  18.941  0.00  0.00    +0.053 C 
ATOM     16  C   UNL     1      47.756  20.322  21.217  0.00  0.00    +0.277 C 
ATOM     22  O   UNL     1      48.857  21.151  20.898  0.00  0.00    -0.340 OA
ATOM     23  C   UNL     1      50.020  20.596  20.542  0.00  0.00    +0.509 C 
ATOM     24  O   UNL     1      51.066  21.137  20.823  0.00  0.00    -0.431 OA
ATOM     25  C   UNL     1      50.015  19.290  19.791  0.00  0.00    +0.074 C 
ATOM     26  O   UNL     1      49.375  19.213  18.525  0.00  0.00    -0.269 OA
ATOM     27  C   UNL     1      48.648  18.621  19.599  0.00  0.00    +0.069 C 
ATOM     28  C   UNL     1      46.124  14.677  18.006  0.00  0.00    +0.043 C 
ATOM     29  C   UNL     1      45.891  13.171  18.096  0.00  0.00    +0.028 C 
ATOM     30  C   UNL     1      47.164  12.385  18.005  0.00  0.00    +0.370 C 
ATOM     31  O   UNL     1      47.098  11.227  17.599  0.00  0.00    -0.469 OA
ATOM     32  C   UNL     1      48.523  12.913  18.376  0.00  0.00    -0.089 C 
ATOM     33  C   UNL     1      49.023  12.276  19.667  0.00  0.00    +0.058 C 
ATOM     34  C   UNL     1      49.490  12.443  17.254  0.00  0.00    +0.043 C 
ATOM     35  C   UNL     1      48.619  17.090  19.743  0.00  0.00    +0.000 C 
ATOM     36  C   UNL     1      48.635  16.797  21.253  0.00  0.00    +0.061 C 
ENDROOT
BRANCH  16  17
ATOM     17  C   UNL     1      46.560  21.200  21.482  0.00  0.00    -0.188 A 
ATOM     18  C   UNL     1      46.315  22.479  20.933  0.00  0.00    -0.045 A 
ATOM     19  C   UNL     1      45.140  22.900  21.434  0.00  0.00    +0.172 A 
ATOM     20  O   UNL     1      44.663  21.948  22.253  0.00  0.00    -0.171 OA
ATOM     21  C   UNL     1      45.518  20.913  22.282  0.00  0.00    +0.208 A 
ENDBRANCH  16  17
BRANCH   4   3
ATOM      3  O   UNL     1      50.213  16.983  17.878  0.00  0.00    -0.318 OA
BRANCH   3   2
ATOM      1  C   UNL     1      52.588  17.181  18.519  0.00  0.00    +0.152 C 
ATOM      2  C   UNL     1      51.502  16.916  17.510  0.00  0.00    +0.458 C 
ATOM     37  O   UNL     1      51.791  16.642  16.368  0.00  0.00    -0.513 OA
ENDBRANCH   3   2
ENDBRANCH   4   3
TORSDOF 3
ENDMDL
MODEL 8
REMARK VINA RESULT:      -5.9      2.011      2.928
REMARK  Name = ZINC95486174
REMARK  11 active torsions:
REMARK  status: ('A' for Active; 'I' for Inactive)
REMARK    1  A    between atoms: C1_1  and  C2_2
REMARK    2  A    between atoms: C2_2  and  O2_4
REMARK    3  A    between atoms: O2_4  and  C3_5
REMARK    4  A    between atoms: C5_8  and  C30_40
REMARK    5  A    between atoms: C6_9  and  C29_39
REMARK    6  A    between atoms: C10_14  and  C11_15
REMARK    7  A    between atoms: C10_14  and  C12_16
REMARK    8  A    between atoms: C13_17  and  C28_38
REMARK    9  A    between atoms: C14_18  and  C27_37
REMARK   10  A    between atoms: C18_26  and  C23_32
REMARK   11  A    between atoms: C19_28  and  C22_31
REMARK                            x       y       z     vdW  Elec       q    Type
REMARK                         _______ _______ _______ _____ _____    ______ ____
ROOT
ATOM      4  C   UNL     1      49.538  15.738  19.027  0.00  0.00    +0.167 C 
ATOM      5  C   UNL     1      50.020  14.304  18.807  0.00  0.00    +0.039 C 
ATOM      6  C   UNL     1      49.206  13.588  17.733  0.00  0.00    -0.016 C 
ATOM      7  C   UNL     1      49.510  14.265  16.377  0.00  0.00    +0.026 C 
ATOM      8  C   UNL     1      47.724  13.623  18.072  0.00  0.00    -0.020 C 
ATOM      9  C   UNL     1      47.456  12.671  19.261  0.00  0.00    +0.023 C 
ATOM     10  C   UNL     1      47.196  15.008  18.424  0.00  0.00    -0.014 C 
ATOM     11  C   UNL     1      47.111  15.854  17.130  0.00  0.00    +0.031 C 
ATOM     12  C   UNL     1      45.744  14.971  18.894  0.00  0.00    +0.029 C 
ATOM     13  C   UNL     1      45.345  16.031  19.896  0.00  0.00    +0.049 C 
ATOM     14  C   UNL     1      46.064  17.365  19.794  0.00  0.00    -0.054 C 
ATOM     15  C   UNL     1      45.409  18.198  18.678  0.00  0.00    +0.053 C 
ATOM     16  C   UNL     1      45.861  18.156  21.086  0.00  0.00    +0.277 C 
ATOM     22  O   UNL     1      46.611  19.356  21.112  0.00  0.00    -0.340 OA
ATOM     23  C   UNL     1      47.936  19.310  20.935  0.00  0.00    +0.509 C 
ATOM     24  O   UNL     1      48.654  20.108  21.495  0.00  0.00    -0.431 OA
ATOM     25  C   UNL     1      48.525  18.255  20.036  0.00  0.00    +0.074 C 
ATOM     26  O   UNL     1      48.151  18.214  18.666  0.00  0.00    -0.269 OA
ATOM     27  C   UNL     1      47.546  17.212  19.480  0.00  0.00    +0.069 C 
ATOM     28  C   UNL     1      46.924  13.038  16.899  0.00  0.00    +0.043 C 
ATOM     29  C   UNL     1      47.254  11.556  16.743  0.00  0.00    +0.028 C 
ATOM     30  C   UNL     1      48.726  11.284  16.816  0.00  0.00    +0.370 C 
ATOM     31  O   UNL     1      49.153  10.277  16.257  0.00  0.00    -0.469 OA
ATOM     32  C   UNL     1      49.723  12.159  17.525  0.00  0.00    -0.089 C 
ATOM     33  C   UNL     1      50.229  11.490  18.798  0.00  0.00    +0.058 C 
ATOM     34  C   UNL     1      50.949  12.275  16.576  0.00  0.00    +0.043 C 
ATOM     35  C   UNL     1      48.065  15.766  19.414  0.00  0.00    +0.000 C 
ATOM     36  C   UNL     1      47.967  15.205  20.843  0.00  0.00    +0.061 C 
ENDROOT
BRANCH  16  17
ATOM     17  C   UNL     1      44.401  18.505  21.209  0.00  0.00    -0.188 A 
ATOM     18  C   UNL     1      43.380  17.682  21.737  0.00  0.00    -0.045 A 
ATOM     19  C   UNL     1      42.235  18.382  21.659  0.00  0.00    +0.172 A 
ATOM     20  O   UNL     1      42.507  19.581  21.115  0.00  0.00    -0.171 OA
ATOM     21  C   UNL     1      43.820  19.662  20.845  0.00  0.00    +0.208 A 
ENDBRANCH  16  17
BRANCH   4   3
ATOM      3  O   UNL     1      49.840  16.575  17.922  0.00  0.00    -0.318 OA
BRANCH   3   2
ATOM      1  C   UNL     1      51.764  17.209  16.511  0.00  0.00    +0.152 C 
ATOM      2  C   UNL     1      51.088  17.063  17.849  0.00  0.00    +0.458 C 
ATOM     37  O   UNL     1      51.670  17.385  18.859  0.00  0.00    -0.513 OA
ENDBRANCH   3   2
ENDBRANCH   4   3
TORSDOF 3
ENDMDL
MODEL 9
REMARK VINA RESULT:      -5.9      2.410      5.928
REMARK  Name = ZINC95486174
REMARK  11 active torsions:
REMARK  status: ('A' for Active; 'I' for Inactive)
REMARK    1  A    between atoms: C1_1  and  C2_2
REMARK    2  A    between atoms: C2_2  and  O2_4
REMARK    3  A    between atoms: O2_4  and  C3_5
REMARK    4  A    between atoms: C5_8  and  C30_40
REMARK    5  A    between atoms: C6_9  and  C29_39
REMARK    6  A    between atoms: C10_14  and  C11_15
REMARK    7  A    between atoms: C10_14  and  C12_16
REMARK    8  A    between atoms: C13_17  and  C28_38
REMARK    9  A    between atoms: C14_18  and  C27_37
REMARK   10  A    between atoms: C18_26  and  C23_32
REMARK   11  A    between atoms: C19_28  and  C22_31
REMARK                            x       y       z     vdW  Elec       q    Type
REMARK                         _______ _______ _______ _____ _____    ______ ____
ROOT
ATOM      4  C   UNL     1      47.151  16.202  18.561  0.00  0.00    +0.167 C 
ATOM      5  C   UNL     1      47.047  14.919  17.738  0.00  0.00    +0.039 C 
ATOM      6  C   UNL     1      48.071  13.876  18.176  0.00  0.00    -0.016 C 
ATOM      7  C   UNL     1      47.688  13.404  19.598  0.00  0.00    +0.026 C 
ATOM      8  C   UNL     1      49.478  14.451  18.123  0.00  0.00    -0.020 C 
ATOM      9  C   UNL     1      49.903  14.607  16.643  0.00  0.00    +0.023 C 
ATOM     10  C   UNL     1      49.631  15.796  18.821  0.00  0.00    -0.014 C 
ATOM     11  C   UNL     1      49.579  15.571  20.353  0.00  0.00    +0.031 C 
ATOM     12  C   UNL     1      51.018  16.398  18.619  0.00  0.00    +0.029 C 
ATOM     13  C   UNL     1      51.089  17.909  18.604  0.00  0.00    +0.049 C 
ATOM     14  C   UNL     1      50.073  18.643  19.461  0.00  0.00    -0.054 C 
ATOM     15  C   UNL     1      50.567  18.652  20.918  0.00  0.00    +0.053 C 
ATOM     16  C   UNL     1      50.003  20.108  19.030  0.00  0.00    +0.277 C 
ATOM     22  O   UNL     1      48.983  20.823  19.699  0.00  0.00    -0.340 OA
ATOM     23  C   UNL     1      47.722  20.383  19.643  0.00  0.00    +0.509 C 
ATOM     24  O   UNL     1      46.800  21.167  19.655  0.00  0.00    -0.431 OA
ATOM     25  C   UNL     1      47.460  18.901  19.561  0.00  0.00    +0.074 C 
ATOM     26  O   UNL     1      47.910  18.052  20.609  0.00  0.00    -0.269 OA
ATOM     27  C   UNL     1      48.694  18.000  19.419  0.00  0.00    +0.069 C 
ATOM     28  C   UNL     1      50.462  13.433  18.719  0.00  0.00    +0.043 C 
ATOM     29  C   UNL     1      50.513  12.191  17.833  0.00  0.00    +0.028 C 
ATOM     30  C   UNL     1      49.150  11.719  17.425  0.00  0.00    +0.370 C 
ATOM     31  O   UNL     1      49.014  10.532  17.138  0.00  0.00    -0.469 OA
ATOM     32  C   UNL     1      47.931  12.597  17.341  0.00  0.00    -0.089 C 
ATOM     33  C   UNL     1      47.533  12.841  15.890  0.00  0.00    +0.058 C 
ATOM     34  C   UNL     1      46.770  11.786  17.982  0.00  0.00    +0.043 C 
ATOM     35  C   UNL     1      48.548  16.802  18.467  0.00  0.00    +0.000 C 
ATOM     36  C   UNL     1      48.699  17.361  17.041  0.00  0.00    +0.061 C 
ENDROOT
BRANCH  16  17
ATOM     17  C   UNL     1      51.325  20.762  19.339  0.00  0.00    -0.188 A 
ATOM     18  C   UNL     1      51.641  21.521  20.488  0.00  0.00    -0.045 A 
ATOM     19  C   UNL     1      52.921  21.912  20.358  0.00  0.00    +0.172 A 
ATOM     20  O   UNL     1      53.395  21.431  19.196  0.00  0.00    -0.171 OA
ATOM     21  C   UNL     1      52.432  20.729  18.576  0.00  0.00    +0.208 A 
ENDBRANCH  16  17
BRANCH   4   3
ATOM      3  O   UNL     1      46.717  16.011  19.899  0.00  0.00    -0.318 OA
BRANCH   3   2
ATOM      1  C   UNL     1      44.741  15.210  21.143  0.00  0.00    +0.152 C 
ATOM      2  C   UNL     1      45.400  16.113  20.133  0.00  0.00    +0.458 C 
ATOM     37  O   UNL     1      44.741  16.931  19.533  0.00  0.00    -0.513 OA
ENDBRANCH   3   2
ENDBRANCH   4   3
TORSDOF 3
ENDMDL
