MODEL 1
REMARK VINA RESULT:      -5.5      0.000      0.000
REMARK  Name = ZINC30726889
REMARK  6 active torsions:
REMARK  status: ('A' for Active; 'I' for Inactive)
REMARK    1  A    between atoms: C1_1  and  O1_2
REMARK    2  A    between atoms: O1_2  and  C2_3
REMARK    3  A    between atoms: C7_8  and  O2_9
REMARK    4  A    between atoms: O2_9  and  C8_10
REMARK    5  A    between atoms: C11_13  and  O3_23
REMARK    6  A    between atoms: O3_23  and  C19_24
REMARK                            x       y       z     vdW  Elec       q    Type
REMARK                         _______ _______ _______ _____ _____    ______ ____
ROOT
ATOM      3  C   UNL     1      48.116  19.292  18.893  0.00  0.00    +0.107 A 
ATOM      4  C   UNL     1      48.358  20.141  19.957  0.00  0.00    -0.040 A 
ATOM      5  C   UNL     1      47.305  20.740  20.637  0.00  0.00    -0.065 A 
ATOM      6  C   UNL     1      46.010  20.491  20.243  0.00  0.00    -0.094 A 
ATOM      7  C   UNL     1      44.833  21.131  20.928  0.00  0.00    +0.200 C 
ATOM      8  C   UNL     1      44.048  20.099  21.719  0.00  0.00    +0.068 C 
ATOM      9  C   UNL     1      43.325  19.106  20.835  0.00  0.00    +0.187 C 
ATOM     12  C   UNL     1      42.672  19.680  19.626  0.00  0.00    -0.057 C 
ATOM     13  C   UNL     1      42.935  20.886  19.137  0.00  0.00    +0.049 C 
ATOM     14  N   UNL     1      45.219  22.281  21.736  0.00  0.00    -0.516 NA
ATOM     15  C   UNL     1      46.425  22.187  22.504  0.00  0.00    +0.232 C 
ATOM     16  C   UNL     1      45.208  23.400  20.765  0.00  0.00    +0.231 C 
ATOM     17  C   UNL     1      44.148  23.009  19.751  0.00  0.00    +0.005 C 
ATOM     18  C   UNL     1      43.922  21.710  19.855  0.00  0.00    -0.114 C 
ATOM     19  C   UNL     1      45.761  19.633  19.181  0.00  0.00    -0.023 A 
ATOM     20  C   UNL     1      47.632  21.637  21.791  0.00  0.00    +0.042 C 
ATOM     21  C   UNL     1      46.805  19.032  18.503  0.00  0.00    +0.098 A 
ENDROOT
BRANCH   3   2
ATOM      1  C   UNL     1      49.994  17.835  18.987  0.00  0.00    +0.237 C 
ATOM      2  O   UNL     1      49.152  18.710  18.232  0.00  0.00    -0.305 OA
ENDBRANCH   3   2
BRANCH   9  10
ATOM     10  O   UNL     1      42.323  18.456  21.620  0.00  0.00    -0.374 OA
ATOM     11  C   UNL     1      40.988  18.862  21.309  0.00  0.00    +0.200 C 
ENDBRANCH   9  10
BRANCH  21  22
ATOM     22  O   UNL     1      46.554  18.193  17.462  0.00  0.00    -0.304 OA
ATOM     23  C   UNL     1      46.155  16.860  17.787  0.00  0.00    +0.235 C 
ENDBRANCH  21  22
TORSDOF 3
ENDMDL
MODEL 2
REMARK VINA RESULT:      -5.5      3.379      7.240
REMARK  Name = ZINC30726889
REMARK  6 active torsions:
REMARK  status: ('A' for Active; 'I' for Inactive)
REMARK    1  A    between atoms: C1_1  and  O1_2
REMARK    2  A    between atoms: O1_2  and  C2_3
REMARK    3  A    between atoms: C7_8  and  O2_9
REMARK    4  A    between atoms: O2_9  and  C8_10
REMARK    5  A    between atoms: C11_13  and  O3_23
REMARK    6  A    between atoms: O3_23  and  C19_24
REMARK                            x       y       z     vdW  Elec       q    Type
REMARK                         _______ _______ _______ _____ _____    ______ ____
ROOT
ATOM      3  C   UNL     1      47.020  18.324  18.484  0.00  0.00    +0.107 A 
ATOM      4  C   UNL     1      47.751  17.301  17.910  0.00  0.00    -0.040 A 
ATOM      5  C   UNL     1      49.132  17.395  17.800  0.00  0.00    -0.065 A 
ATOM      6  C   UNL     1      49.778  18.520  18.260  0.00  0.00    -0.094 A 
ATOM      7  C   UNL     1      51.269  18.685  18.145  0.00  0.00    +0.200 C 
ATOM      8  C   UNL     1      51.924  18.605  19.513  0.00  0.00    +0.068 C 
ATOM      9  C   UNL     1      51.599  19.794  20.391  0.00  0.00    +0.187 C 
ATOM     12  C   UNL     1      51.605  21.117  19.708  0.00  0.00    -0.057 C 
ATOM     13  C   UNL     1      51.571  21.277  18.391  0.00  0.00    +0.049 C 
ATOM     14  N   UNL     1      51.858  17.757  17.187  0.00  0.00    -0.516 NA
ATOM     15  C   UNL     1      51.366  16.412  17.166  0.00  0.00    +0.232 C 
ATOM     16  C   UNL     1      51.722  18.470  15.894  0.00  0.00    +0.231 C 
ATOM     17  C   UNL     1      51.791  19.940  16.265  0.00  0.00    +0.005 C 
ATOM     18  C   UNL     1      51.546  20.062  17.558  0.00  0.00    -0.114 C 
ATOM     19  C   UNL     1      49.050  19.547  18.844  0.00  0.00    -0.023 A 
ATOM     20  C   UNL     1      49.870  16.246  17.183  0.00  0.00    +0.042 C 
ATOM     21  C   UNL     1      47.675  19.457  18.960  0.00  0.00    +0.098 A 
ENDROOT
BRANCH   3   2
ATOM      1  C   UNL     1      45.156  17.251  19.501  0.00  0.00    +0.237 C 
ATOM      2  O   UNL     1      45.668  18.224  18.587  0.00  0.00    -0.305 OA
ENDBRANCH   3   2
BRANCH   9  10
ATOM     10  O   UNL     1      52.549  19.835  21.458  0.00  0.00    -0.374 OA
ATOM     11  C   UNL     1      52.548  21.063  22.189  0.00  0.00    +0.200 C 
ENDBRANCH   9  10
BRANCH  21  22
ATOM     22  O   UNL     1      46.967  20.467  19.532  0.00  0.00    -0.304 OA
ATOM     23  C   UNL     1      47.534  21.078  20.693  0.00  0.00    +0.235 C 
ENDBRANCH  21  22
TORSDOF 3
ENDMDL
MODEL 3
REMARK VINA RESULT:      -5.2      2.600      4.986
REMARK  Name = ZINC30726889
REMARK  6 active torsions:
REMARK  status: ('A' for Active; 'I' for Inactive)
REMARK    1  A    between atoms: C1_1  and  O1_2
REMARK    2  A    between atoms: O1_2  and  C2_3
REMARK    3  A    between atoms: C7_8  and  O2_9
REMARK    4  A    between atoms: O2_9  and  C8_10
REMARK    5  A    between atoms: C11_13  and  O3_23
REMARK    6  A    between atoms: O3_23  and  C19_24
REMARK                            x       y       z     vdW  Elec       q    Type
REMARK                         _______ _______ _______ _____ _____    ______ ____
ROOT
ATOM      3  C   UNL     1      50.911  19.143  17.553  0.00  0.00    +0.107 A 
ATOM      4  C   UNL     1      50.157  18.032  17.222  0.00  0.00    -0.040 A 
ATOM      5  C   UNL     1      48.888  17.856  17.758  0.00  0.00    -0.065 A 
ATOM      6  C   UNL     1      48.379  18.790  18.631  0.00  0.00    -0.094 A 
ATOM      7  C   UNL     1      47.021  18.637  19.259  0.00  0.00    +0.200 C 
ATOM      8  C   UNL     1      46.053  19.665  18.698  0.00  0.00    +0.068 C 
ATOM      9  C   UNL     1      46.381  21.078  19.130  0.00  0.00    +0.187 C 
ATOM     12  C   UNL     1      46.794  21.234  20.552  0.00  0.00    -0.057 C 
ATOM     13  C   UNL     1      47.175  20.231  21.334  0.00  0.00    +0.049 C 
ATOM     14  N   UNL     1      46.512  17.275  19.156  0.00  0.00    -0.516 NA
ATOM     15  C   UNL     1      46.725  16.570  17.928  0.00  0.00    +0.232 C 
ATOM     16  C   UNL     1      47.090  16.604  20.345  0.00  0.00    +0.231 C 
ATOM     17  C   UNL     1      47.219  17.711  21.376  0.00  0.00    +0.005 C 
ATOM     18  C   UNL     1      47.164  18.877  20.755  0.00  0.00    -0.114 C 
ATOM     19  C   UNL     1      49.130  19.910  18.962  0.00  0.00    -0.023 A 
ATOM     20  C   UNL     1      48.113  16.640  17.347  0.00  0.00    +0.042 C 
ATOM     21  C   UNL     1      50.392  20.093  18.428  0.00  0.00    +0.098 A 
ENDROOT
BRANCH   3   2
ATOM      1  C   UNL     1      52.230  19.815  15.692  0.00  0.00    +0.237 C 
ATOM      2  O   UNL     1      52.154  19.308  17.026  0.00  0.00    -0.305 OA
ENDBRANCH   3   2
BRANCH   9  10
ATOM     10  O   UNL     1      45.228  21.892  18.906  0.00  0.00    -0.374 OA
ATOM     11  C   UNL     1      44.063  21.456  19.610  0.00  0.00    +0.200 C 
ENDBRANCH   9  10
BRANCH  21  22
ATOM     22  O   UNL     1      51.123  21.192  18.757  0.00  0.00    -0.304 OA
ATOM     23  C   UNL     1      51.821  21.157  20.002  0.00  0.00    +0.235 C 
ENDBRANCH  21  22
TORSDOF 3
ENDMDL
MODEL 4
REMARK VINA RESULT:      -5.1      3.054      6.690
REMARK  Name = ZINC30726889
REMARK  6 active torsions:
REMARK  status: ('A' for Active; 'I' for Inactive)
REMARK    1  A    between atoms: C1_1  and  O1_2
REMARK    2  A    between atoms: O1_2  and  C2_3
REMARK    3  A    between atoms: C7_8  and  O2_9
REMARK    4  A    between atoms: O2_9  and  C8_10
REMARK    5  A    between atoms: C11_13  and  O3_23
REMARK    6  A    between atoms: O3_23  and  C19_24
REMARK                            x       y       z     vdW  Elec       q    Type
REMARK                         _______ _______ _______ _____ _____    ______ ____
ROOT
ATOM      3  C   UNL     1      43.318  18.322  21.018  0.00  0.00    +0.107 A 
ATOM      4  C   UNL     1      43.503  17.229  21.844  0.00  0.00    -0.040 A 
ATOM      5  C   UNL     1      44.487  16.290  21.562  0.00  0.00    -0.065 A 
ATOM      6  C   UNL     1      45.278  16.444  20.447  0.00  0.00    -0.094 A 
ATOM      7  C   UNL     1      46.342  15.445  20.081  0.00  0.00    +0.200 C 
ATOM      8  C   UNL     1      47.726  16.039  20.282  0.00  0.00    +0.068 C 
ATOM      9  C   UNL     1      48.046  17.133  19.287  0.00  0.00    +0.187 C 
ATOM     12  C   UNL     1      47.610  16.876  17.887  0.00  0.00    -0.057 C 
ATOM     13  C   UNL     1      46.734  15.942  17.537  0.00  0.00    +0.049 C 
ATOM     14  N   UNL     1      46.172  14.174  20.775  0.00  0.00    -0.516 NA
ATOM     15  C   UNL     1      45.782  14.209  22.153  0.00  0.00    +0.232 C 
ATOM     16  C   UNL     1      45.234  13.431  19.901  0.00  0.00    +0.231 C 
ATOM     17  C   UNL     1      45.527  13.951  18.505  0.00  0.00    +0.005 C 
ATOM     18  C   UNL     1      46.176  15.098  18.608  0.00  0.00    -0.114 C 
ATOM     19  C   UNL     1      45.101  17.543  19.617  0.00  0.00    -0.023 A 
ATOM     20  C   UNL     1      44.651  15.137  22.505  0.00  0.00    +0.042 C 
ATOM     21  C   UNL     1      44.126  18.483  19.895  0.00  0.00    +0.098 A 
ENDROOT
BRANCH   3   2
ATOM      1  C   UNL     1      41.002  18.865  21.012  0.00  0.00    +0.237 C 
ATOM      2  O   UNL     1      42.352  19.237  21.300  0.00  0.00    -0.305 OA
ENDBRANCH   3   2
BRANCH   9  10
ATOM     10  O   UNL     1      49.460  17.338  19.287  0.00  0.00    -0.374 OA
ATOM     11  C   UNL     1      49.903  18.334  18.362  0.00  0.00    +0.200 C 
ENDBRANCH   9  10
BRANCH  21  22
ATOM     22  O   UNL     1      43.956  19.557  19.078  0.00  0.00    -0.304 OA
ATOM     23  C   UNL     1      45.125  20.309  18.748  0.00  0.00    +0.235 C 
ENDBRANCH  21  22
TORSDOF 3
ENDMDL
MODEL 5
REMARK VINA RESULT:      -5.0      2.322      4.295
REMARK  Name = ZINC30726889
REMARK  6 active torsions:
REMARK  status: ('A' for Active; 'I' for Inactive)
REMARK    1  A    between atoms: C1_1  and  O1_2
REMARK    2  A    between atoms: O1_2  and  C2_3
REMARK    3  A    between atoms: C7_8  and  O2_9
REMARK    4  A    between atoms: O2_9  and  C8_10
REMARK    5  A    between atoms: C11_13  and  O3_23
REMARK    6  A    between atoms: O3_23  and  C19_24
REMARK                            x       y       z     vdW  Elec       q    Type
REMARK                         _______ _______ _______ _____ _____    ______ ____
ROOT
ATOM      3  C   UNL     1      49.302  20.269  19.750  0.00  0.00    +0.107 A 
ATOM      4  C   UNL     1      49.135  19.269  18.810  0.00  0.00    -0.040 A 
ATOM      5  C   UNL     1      47.894  18.673  18.625  0.00  0.00    -0.065 A 
ATOM      6  C   UNL     1      46.823  19.077  19.389  0.00  0.00    -0.094 A 
ATOM      7  C   UNL     1      45.462  18.451  19.248  0.00  0.00    +0.200 C 
ATOM      8  C   UNL     1      44.485  19.430  18.620  0.00  0.00    +0.068 C 
ATOM      9  C   UNL     1      44.143  20.587  19.534  0.00  0.00    +0.187 C 
ATOM     12  C   UNL     1      43.932  20.234  20.965  0.00  0.00    -0.057 C 
ATOM     13  C   UNL     1      44.309  19.087  21.515  0.00  0.00    +0.049 C 
ATOM     14  N   UNL     1      45.509  17.176  18.543  0.00  0.00    -0.516 NA
ATOM     15  C   UNL     1      46.377  17.068  17.409  0.00  0.00    +0.232 C 
ATOM     16  C   UNL     1      45.799  16.201  19.620  0.00  0.00    +0.231 C 
ATOM     17  C   UNL     1      45.167  16.808  20.859  0.00  0.00    +0.005 C 
ATOM     18  C   UNL     1      44.960  18.096  20.641  0.00  0.00    -0.114 C 
ATOM     19  C   UNL     1      46.983  20.086  20.330  0.00  0.00    -0.023 A 
ATOM     20  C   UNL     1      47.773  17.607  17.580  0.00  0.00    +0.042 C 
ATOM     21  C   UNL     1      48.216  20.685  20.515  0.00  0.00    +0.098 A 
ENDROOT
BRANCH   3   2
ATOM      1  C   UNL     1      51.271  21.150  18.747  0.00  0.00    +0.237 C 
ATOM      2  O   UNL     1      50.521  20.846  19.925  0.00  0.00    -0.305 OA
ENDBRANCH   3   2
BRANCH   9  10
ATOM     10  O   UNL     1      42.953  21.207  19.043  0.00  0.00    -0.374 OA
ATOM     11  C   UNL     1      41.817  20.339  19.009  0.00  0.00    +0.200 C 
ENDBRANCH   9  10
BRANCH  21  22
ATOM     22  O   UNL     1      48.367  21.672  21.438  0.00  0.00    -0.304 OA
ATOM     23  C   UNL     1      47.173  22.273  21.944  0.00  0.00    +0.235 C 
ENDBRANCH  21  22
TORSDOF 3
ENDMDL
MODEL 6
REMARK VINA RESULT:      -5.0      2.340      5.457
REMARK  Name = ZINC30726889
REMARK  6 active torsions:
REMARK  status: ('A' for Active; 'I' for Inactive)
REMARK    1  A    between atoms: C1_1  and  O1_2
REMARK    2  A    between atoms: O1_2  and  C2_3
REMARK    3  A    between atoms: C7_8  and  O2_9
REMARK    4  A    between atoms: O2_9  and  C8_10
REMARK    5  A    between atoms: C11_13  and  O3_23
REMARK    6  A    between atoms: O3_23  and  C19_24
REMARK                            x       y       z     vdW  Elec       q    Type
REMARK                         _______ _______ _______ _____ _____    ______ ____
ROOT
ATOM      3  C   UNL     1      44.817  20.908  19.320  0.00  0.00    +0.107 A 
ATOM      4  C   UNL     1      46.153  21.250  19.220  0.00  0.00    -0.040 A 
ATOM      5  C   UNL     1      47.128  20.265  19.114  0.00  0.00    -0.065 A 
ATOM      6  C   UNL     1      46.761  18.939  19.116  0.00  0.00    -0.094 A 
ATOM      7  C   UNL     1      47.776  17.832  19.028  0.00  0.00    +0.200 C 
ATOM      8  C   UNL     1      47.686  17.129  17.685  0.00  0.00    +0.068 C 
ATOM      9  C   UNL     1      46.413  16.326  17.526  0.00  0.00    +0.187 C 
ATOM     12  C   UNL     1      45.984  15.559  18.728  0.00  0.00    -0.057 C 
ATOM     13  C   UNL     1      46.447  15.771  19.953  0.00  0.00    +0.049 C 
ATOM     14  N   UNL     1      49.126  18.292  19.330  0.00  0.00    -0.516 NA
ATOM     15  C   UNL     1      49.532  19.566  18.816  0.00  0.00    +0.232 C 
ATOM     16  C   UNL     1      49.201  18.185  20.806  0.00  0.00    +0.231 C 
ATOM     17  C   UNL     1      48.274  17.033  21.148  0.00  0.00    +0.005 C 
ATOM     18  C   UNL     1      47.466  16.821  20.123  0.00  0.00    -0.114 C 
ATOM     19  C   UNL     1      45.421  18.590  19.210  0.00  0.00    -0.023 A 
ATOM     20  C   UNL     1      48.557  20.700  18.991  0.00  0.00    +0.042 C 
ATOM     21  C   UNL     1      44.446  19.566  19.312  0.00  0.00    +0.098 A 
ENDROOT
BRANCH   3   2
ATOM      1  C   UNL     1      44.323  23.198  19.728  0.00  0.00    +0.237 C 
ATOM      2  O   UNL     1      43.869  21.877  19.425  0.00  0.00    -0.305 OA
ENDBRANCH   3   2
BRANCH   9  10
ATOM     10  O   UNL     1      46.597  15.405  16.448  0.00  0.00    -0.374 OA
ATOM     11  C   UNL     1      47.625  14.439  16.679  0.00  0.00    +0.200 C 
ENDBRANCH   9  10
BRANCH  21  22
ATOM     22  O   UNL     1      43.135  19.218  19.404  0.00  0.00    -0.304 OA
ATOM     23  C   UNL     1      42.649  18.861  20.700  0.00  0.00    +0.235 C 
ENDBRANCH  21  22
TORSDOF 3
ENDMDL
MODEL 7
REMARK VINA RESULT:      -4.9      2.289      5.323
REMARK  Name = ZINC30726889
REMARK  6 active torsions:
REMARK  status: ('A' for Active; 'I' for Inactive)
REMARK    1  A    between atoms: C1_1  and  O1_2
REMARK    2  A    between atoms: O1_2  and  C2_3
REMARK    3  A    between atoms: C7_8  and  O2_9
REMARK    4  A    between atoms: O2_9  and  C8_10
REMARK    5  A    between atoms: C11_13  and  O3_23
REMARK    6  A    between atoms: O3_23  and  C19_24
REMARK                            x       y       z     vdW  Elec       q    Type
REMARK                         _______ _______ _______ _____ _____    ______ ____
ROOT
ATOM      3  C   UNL     1      42.213  20.544  19.512  0.00  0.00    +0.107 A 
ATOM      4  C   UNL     1      43.390  21.142  19.101  0.00  0.00    -0.040 A 
ATOM      5  C   UNL     1      44.613  20.520  19.321  0.00  0.00    -0.065 A 
ATOM      6  C   UNL     1      44.653  19.302  19.960  0.00  0.00    -0.094 A 
ATOM      7  C   UNL     1      45.950  18.594  20.245  0.00  0.00    +0.200 C 
ATOM      8  C   UNL     1      46.085  17.354  19.379  0.00  0.00    +0.068 C 
ATOM      9  C   UNL     1      45.107  16.263  19.757  0.00  0.00    +0.187 C 
ATOM     12  C   UNL     1      44.910  16.057  21.219  0.00  0.00    -0.057 C 
ATOM     13  C   UNL     1      45.277  16.926  22.152  0.00  0.00    +0.049 C 
ATOM     14  N   UNL     1      47.101  19.482  20.136  0.00  0.00    -0.516 NA
ATOM     15  C   UNL     1      47.119  20.429  19.062  0.00  0.00    +0.232 C 
ATOM     16  C   UNL     1      47.189  20.095  21.483  0.00  0.00    +0.231 C 
ATOM     17  C   UNL     1      46.638  19.032  22.417  0.00  0.00    +0.005 C 
ATOM     18  C   UNL     1      45.940  18.163  21.705  0.00  0.00    -0.114 C 
ATOM     19  C   UNL     1      43.474  18.693  20.369  0.00  0.00    -0.023 A 
ATOM     20  C   UNL     1      45.851  21.210  18.836  0.00  0.00    +0.042 C 
ATOM     21  C   UNL     1      42.254  19.307  20.149  0.00  0.00    +0.098 A 
ENDROOT
BRANCH   3   2
ATOM      1  C   UNL     1      40.287  20.761  18.135  0.00  0.00    +0.237 C 
ATOM      2  O   UNL     1      41.021  21.160  19.294  0.00  0.00    -0.305 OA
ENDBRANCH   3   2
BRANCH   9  10
ATOM     10  O   UNL     1      45.566  15.035  19.188  0.00  0.00    -0.374 OA
ATOM     11  C   UNL     1      46.423  15.203  18.056  0.00  0.00    +0.200 C 
ENDBRANCH   9  10
BRANCH  21  22
ATOM     22  O   UNL     1      41.103  18.706  20.553  0.00  0.00    -0.304 OA
ATOM     23  C   UNL     1      40.562  19.122  21.808  0.00  0.00    +0.235 C 
ENDBRANCH  21  22
TORSDOF 3
ENDMDL
MODEL 8
REMARK VINA RESULT:      -4.9      3.051      6.008
REMARK  Name = ZINC30726889
REMARK  6 active torsions:
REMARK  status: ('A' for Active; 'I' for Inactive)
REMARK    1  A    between atoms: C1_1  and  O1_2
REMARK    2  A    between atoms: O1_2  and  C2_3
REMARK    3  A    between atoms: C7_8  and  O2_9
REMARK    4  A    between atoms: O2_9  and  C8_10
REMARK    5  A    between atoms: C11_13  and  O3_23
REMARK    6  A    between atoms: O3_23  and  C19_24
REMARK                            x       y       z     vdW  Elec       q    Type
REMARK                         _______ _______ _______ _____ _____    ______ ____
ROOT
ATOM      3  C   UNL     1      47.347  16.383  17.221  0.00  0.00    +0.107 A 
ATOM      4  C   UNL     1      46.426  17.365  17.536  0.00  0.00    -0.040 A 
ATOM      5  C   UNL     1      46.823  18.521  18.196  0.00  0.00    -0.065 A 
ATOM      6  C   UNL     1      48.144  18.686  18.547  0.00  0.00    -0.094 A 
ATOM      7  C   UNL     1      48.625  19.907  19.284  0.00  0.00    +0.200 C 
ATOM      8  C   UNL     1      49.485  20.773  18.380  0.00  0.00    +0.068 C 
ATOM      9  C   UNL     1      50.814  20.133  18.044  0.00  0.00    +0.187 C 
ATOM     12  C   UNL     1      51.495  19.436  19.170  0.00  0.00    -0.057 C 
ATOM     13  C   UNL     1      50.897  19.091  20.304  0.00  0.00    +0.049 C 
ATOM     14  N   UNL     1      47.532  20.650  19.898  0.00  0.00    -0.516 NA
ATOM     15  C   UNL     1      46.318  20.798  19.153  0.00  0.00    +0.232 C 
ATOM     16  C   UNL     1      47.358  19.980  21.209  0.00  0.00    +0.231 C 
ATOM     17  C   UNL     1      48.744  19.471  21.559  0.00  0.00    +0.005 C 
ATOM     18  C   UNL     1      49.475  19.443  20.458  0.00  0.00    -0.114 C 
ATOM     19  C   UNL     1      49.074  17.707  18.227  0.00  0.00    -0.023 A 
ATOM     20  C   UNL     1      45.781  19.555  18.494  0.00  0.00    +0.042 C 
ATOM     21  C   UNL     1      48.684  16.556  17.566  0.00  0.00    +0.098 A 
ENDROOT
BRANCH   3   2
ATOM      1  C   UNL     1      46.469  14.179  17.385  0.00  0.00    +0.237 C 
ATOM      2  O   UNL     1      46.950  15.254  16.575  0.00  0.00    -0.305 OA
ENDBRANCH   3   2
BRANCH   9  10
ATOM     10  O   UNL     1      51.689  21.151  17.552  0.00  0.00    -0.374 OA
ATOM     11  C   UNL     1      51.839  21.151  16.130  0.00  0.00    +0.200 C 
ENDBRANCH   9  10
BRANCH  21  22
ATOM     22  O   UNL     1      49.600  15.600  17.257  0.00  0.00    -0.304 OA
ATOM     23  C   UNL     1      50.970  16.006  17.212  0.00  0.00    +0.235 C 
ENDBRANCH  21  22
TORSDOF 3
ENDMDL
MODEL 9
REMARK VINA RESULT:      -4.8     22.627     24.176
REMARK  Name = ZINC30726889
REMARK  6 active torsions:
REMARK  status: ('A' for Active; 'I' for Inactive)
REMARK    1  A    between atoms: C1_1  and  O1_2
REMARK    2  A    between atoms: O1_2  and  C2_3
REMARK    3  A    between atoms: C7_8  and  O2_9
REMARK    4  A    between atoms: O2_9  and  C8_10
REMARK    5  A    between atoms: C11_13  and  O3_23
REMARK    6  A    between atoms: O3_23  and  C19_24
REMARK                            x       y       z     vdW  Elec       q    Type
REMARK                         _______ _______ _______ _____ _____    ______ ____
ROOT
ATOM      3  C   UNL     1      46.171  34.340   0.215  0.00  0.00    +0.107 A 
ATOM      4  C   UNL     1      45.434  34.234   1.381  0.00  0.00    -0.040 A 
ATOM      5  C   UNL     1      44.201  33.594   1.381  0.00  0.00    -0.065 A 
ATOM      6  C   UNL     1      43.705  33.067   0.211  0.00  0.00    -0.094 A 
ATOM      7  C   UNL     1      42.366  32.385   0.149  0.00  0.00    +0.200 C 
ATOM      8  C   UNL     1      42.536  30.892  -0.073  0.00  0.00    +0.068 C 
ATOM      9  C   UNL     1      43.060  30.558  -1.453  0.00  0.00    +0.187 C 
ATOM     12  C   UNL     1      42.478  31.353  -2.570  0.00  0.00    -0.057 C 
ATOM     13  C   UNL     1      41.800  32.482  -2.409  0.00  0.00    +0.049 C 
ATOM     14  N   UNL     1      41.535  32.688   1.307  0.00  0.00    -0.516 NA
ATOM     15  C   UNL     1      42.165  32.731   2.593  0.00  0.00    +0.232 C 
ATOM     16  C   UNL     1      40.861  33.951   0.923  0.00  0.00    +0.231 C 
ATOM     17  C   UNL     1      40.745  33.872  -0.588  0.00  0.00    +0.005 C 
ATOM     18  C   UNL     1      41.597  32.963  -1.031  0.00  0.00    -0.114 C 
ATOM     19  C   UNL     1      44.444  33.164  -0.961  0.00  0.00    -0.023 A 
ATOM     20  C   UNL     1      43.459  33.497   2.679  0.00  0.00    +0.042 C 
ATOM     21  C   UNL     1      45.673  33.797  -0.966  0.00  0.00    +0.098 A 
ENDROOT
BRANCH   3   2
ATOM      1  C   UNL     1      48.046  35.073   1.481  0.00  0.00    +0.237 C 
ATOM      2  O   UNL     1      47.376  34.969   0.223  0.00  0.00    -0.305 OA
ENDBRANCH   3   2
BRANCH   9  10
ATOM     10  O   UNL     1      42.805  29.175  -1.706  0.00  0.00    -0.374 OA
ATOM     11  C   UNL     1      43.944  28.331  -1.518  0.00  0.00    +0.200 C 
ENDBRANCH   9  10
BRANCH  21  22
ATOM     22  O   UNL     1      46.391  33.890  -2.117  0.00  0.00    -0.304 OA
ATOM     23  C   UNL     1      47.112  32.725  -2.526  0.00  0.00    +0.235 C 
ENDBRANCH  21  22
TORSDOF 3
ENDMDL
