MODEL 1
REMARK VINA RESULT:      -5.0      0.000      0.000
REMARK  Name = ZINC95486087
REMARK  20 active torsions:
REMARK  status: ('A' for Active; 'I' for Inactive)
REMARK    1  A    between atoms: C1_1  and  C2_2
REMARK    2  A    between atoms: C2_2  and  C3_4
REMARK    3  A    between atoms: C2_2  and  C15_20
REMARK    4  A    between atoms: C3_4  and  C4_5
REMARK    5  A    between atoms: C4_5  and  C5_6
REMARK    6  A    between atoms: C5_6  and  C6_7
REMARK    7  A    between atoms: C6_7  and  C7_9
REMARK    8  A    between atoms: C6_7  and  C8_10
REMARK    9  A    between atoms: C8_10  and  C9_11
REMARK   10  A    between atoms: C9_11  and  C10_12
REMARK   11  A    between atoms: C10_12  and  C11_13
REMARK   12  A    between atoms: C11_13  and  C12_14
REMARK   13  A    between atoms: C11_13  and  C13_15
REMARK   14  A    between atoms: C11_13  and  O3_19
REMARK   15  A    between atoms: C13_15  and  C14_16
REMARK   16  A    between atoms: C15_20  and  C16_21
REMARK   17  A    between atoms: C16_21  and  C17_22
REMARK   18  A    between atoms: C17_22  and  C18_23
REMARK   19  A    between atoms: C18_23  and  C19_24
REMARK   20  A    between atoms: C18_23  and  C20_25
REMARK                            x       y       z     vdW  Elec       q    Type
REMARK                         _______ _______ _______ _____ _____    ______ ____
ROOT
ATOM     12  C   UNL     1      48.052  19.901  19.653  0.00  0.00    -0.024 C 
ATOM     24  C   UNL     1      47.495  19.370  20.975  0.00  0.00    +0.012 C 
ENDROOT
BRANCH  12  11
ATOM     11  C   UNL     1      49.386  20.607  19.908  0.00  0.00    +0.003 C 
BRANCH  11  10
ATOM     10  C   UNL     1      50.016  21.006  18.573  0.00  0.00    +0.003 C 
BRANCH  10   9
ATOM      9  C   UNL     1      51.521  21.209  18.759  0.00  0.00    +0.004 C 
BRANCH   9   2
ATOM      1  C   UNL     1      51.499  21.076  16.264  0.00  0.00    +0.012 C 
ATOM      2  C   UNL     1      52.262  20.681  17.529  0.00  0.00    -0.024 C 
BRANCH   2   3
ATOM      3  C   UNL     1      52.363  19.156  17.609  0.00  0.00    +0.004 C 
BRANCH   3   4
ATOM      4  C   UNL     1      51.688  18.535  16.385  0.00  0.00    +0.003 C 
BRANCH   4   5
ATOM      5  C   UNL     1      51.000  17.230  16.788  0.00  0.00    +0.005 C 
BRANCH   5   6
ATOM      6  C   UNL     1      49.851  17.535  17.750  0.00  0.00    -0.031 C 
ATOM      7  C   UNL     1      49.968  16.640  18.986  0.00  0.00    +0.011 C 
ATOM      8  C   UNL     1      48.516  17.268  17.052  0.00  0.00    +0.012 C 
ENDBRANCH   5   6
ENDBRANCH   4   5
ENDBRANCH   3   4
ENDBRANCH   2   3
ENDBRANCH   9   2
ENDBRANCH  10   9
ENDBRANCH  11  10
ENDBRANCH  12  11
BRANCH  12  13
ATOM     13  C   UNL     1      47.059  20.893  19.045  0.00  0.00    -0.001 C 
BRANCH  13  14
ATOM     14  C   UNL     1      45.756  20.168  18.705  0.00  0.00    +0.016 C 
BRANCH  14  15
ATOM     15  C   UNL     1      44.566  21.028  19.134  0.00  0.00    -0.030 C 
BRANCH  15  16
ATOM     16  C   UNL     1      43.412  20.123  19.567  0.00  0.00    +0.156 C 
ATOM     23  C   UNL     1      43.918  18.686  19.716  0.00  0.00    +0.046 C 
BRANCH  16  17
ATOM     17  O   UNL     1      42.893  20.576  20.819  0.00  0.00    -0.538 OA
ATOM     18  H   UNL     1      43.501  20.460  21.562  0.00  0.00    +0.355 HD
ENDBRANCH  16  17
BRANCH  16  19
ATOM     19  C   UNL     1      42.304  20.166  18.511  0.00  0.00    -0.099 C 
BRANCH  19  20
ATOM     20  C   UNL     1      41.233  21.133  18.945  0.00  0.00    +0.493 C 
ATOM     21  O   UNL     1      40.239  20.722  19.518  0.00  0.00    -0.714 OA
ATOM     22  O   UNL     1      41.362  22.324  18.722  0.00  0.00    -0.673 OA
ENDBRANCH  19  20
ENDBRANCH  16  19
ENDBRANCH  15  16
ENDBRANCH  14  15
ENDBRANCH  13  14
ENDBRANCH  12  13
TORSDOF 15
ENDMDL
MODEL 2
REMARK VINA RESULT:      -4.8      1.001      1.510
REMARK  Name = ZINC95486087
REMARK  20 active torsions:
REMARK  status: ('A' for Active; 'I' for Inactive)
REMARK    1  A    between atoms: C1_1  and  C2_2
REMARK    2  A    between atoms: C2_2  and  C3_4
REMARK    3  A    between atoms: C2_2  and  C15_20
REMARK    4  A    between atoms: C3_4  and  C4_5
REMARK    5  A    between atoms: C4_5  and  C5_6
REMARK    6  A    between atoms: C5_6  and  C6_7
REMARK    7  A    between atoms: C6_7  and  C7_9
REMARK    8  A    between atoms: C6_7  and  C8_10
REMARK    9  A    between atoms: C8_10  and  C9_11
REMARK   10  A    between atoms: C9_11  and  C10_12
REMARK   11  A    between atoms: C10_12  and  C11_13
REMARK   12  A    between atoms: C11_13  and  C12_14
REMARK   13  A    between atoms: C11_13  and  C13_15
REMARK   14  A    between atoms: C11_13  and  O3_19
REMARK   15  A    between atoms: C13_15  and  C14_16
REMARK   16  A    between atoms: C15_20  and  C16_21
REMARK   17  A    between atoms: C16_21  and  C17_22
REMARK   18  A    between atoms: C17_22  and  C18_23
REMARK   19  A    between atoms: C18_23  and  C19_24
REMARK   20  A    between atoms: C18_23  and  C20_25
REMARK                            x       y       z     vdW  Elec       q    Type
REMARK                         _______ _______ _______ _____ _____    ______ ____
ROOT
ATOM     12  C   UNL     1      47.588  20.576  20.088  0.00  0.00    -0.024 C 
ATOM     24  C   UNL     1      47.044  21.602  21.085  0.00  0.00    +0.012 C 
ENDROOT
BRANCH  12  11
ATOM     11  C   UNL     1      49.091  20.792  19.902  0.00  0.00    +0.003 C 
BRANCH  11  10
ATOM     10  C   UNL     1      49.411  20.890  18.409  0.00  0.00    +0.003 C 
BRANCH  10   9
ATOM      9  C   UNL     1      50.883  21.262  18.226  0.00  0.00    +0.004 C 
BRANCH   9   2
ATOM      1  C   UNL     1      52.591  21.244  20.051  0.00  0.00    +0.012 C 
ATOM      2  C   UNL     1      51.750  20.370  19.118  0.00  0.00    -0.024 C 
BRANCH   2   3
ATOM      3  C   UNL     1      52.674  19.519  18.244  0.00  0.00    +0.004 C 
BRANCH   3   4
ATOM      4  C   UNL     1      51.998  18.181  17.939  0.00  0.00    +0.003 C 
BRANCH   4   5
ATOM      5  C   UNL     1      51.175  17.738  19.151  0.00  0.00    +0.005 C 
BRANCH   5   6
ATOM      6  C   UNL     1      49.956  16.945  18.677  0.00  0.00    -0.031 C 
ATOM      7  C   UNL     1      49.500  17.474  17.316  0.00  0.00    +0.011 C 
ATOM      8  C   UNL     1      48.821  17.099  19.691  0.00  0.00    +0.012 C 
ENDBRANCH   5   6
ENDBRANCH   4   5
ENDBRANCH   3   4
ENDBRANCH   2   3
ENDBRANCH   9   2
ENDBRANCH  10   9
ENDBRANCH  11  10
ENDBRANCH  12  11
BRANCH  12  13
ATOM     13  C   UNL     1      46.878  20.746  18.744  0.00  0.00    -0.001 C 
BRANCH  13  14
ATOM     14  C   UNL     1      45.417  21.133  18.984  0.00  0.00    +0.016 C 
BRANCH  14  15
ATOM     15  C   UNL     1      44.518  19.924  18.717  0.00  0.00    -0.030 C 
BRANCH  15  16
ATOM     16  C   UNL     1      43.181  20.115  19.434  0.00  0.00    +0.156 C 
ATOM     23  C   UNL     1      42.933  18.934  20.375  0.00  0.00    +0.046 C 
BRANCH  16  17
ATOM     17  O   UNL     1      43.213  21.327  20.189  0.00  0.00    -0.538 OA
ATOM     18  H   UNL     1      42.524  21.961  19.946  0.00  0.00    +0.355 HD
ENDBRANCH  16  17
BRANCH  16  19
ATOM     19  C   UNL     1      42.053  20.188  18.401  0.00  0.00    -0.099 C 
BRANCH  19  20
ATOM     20  C   UNL     1      41.068  21.254  18.806  0.00  0.00    +0.493 C 
ATOM     21  O   UNL     1      40.131  20.971  19.532  0.00  0.00    -0.714 OA
ATOM     22  O   UNL     1      41.210  22.397  18.408  0.00  0.00    -0.673 OA
ENDBRANCH  19  20
ENDBRANCH  16  19
ENDBRANCH  15  16
ENDBRANCH  14  15
ENDBRANCH  13  14
ENDBRANCH  12  13
TORSDOF 15
ENDMDL
MODEL 3
REMARK VINA RESULT:      -4.7      1.186      2.826
REMARK  Name = ZINC95486087
REMARK  20 active torsions:
REMARK  status: ('A' for Active; 'I' for Inactive)
REMARK    1  A    between atoms: C1_1  and  C2_2
REMARK    2  A    between atoms: C2_2  and  C3_4
REMARK    3  A    between atoms: C2_2  and  C15_20
REMARK    4  A    between atoms: C3_4  and  C4_5
REMARK    5  A    between atoms: C4_5  and  C5_6
REMARK    6  A    between atoms: C5_6  and  C6_7
REMARK    7  A    between atoms: C6_7  and  C7_9
REMARK    8  A    between atoms: C6_7  and  C8_10
REMARK    9  A    between atoms: C8_10  and  C9_11
REMARK   10  A    between atoms: C9_11  and  C10_12
REMARK   11  A    between atoms: C10_12  and  C11_13
REMARK   12  A    between atoms: C11_13  and  C12_14
REMARK   13  A    between atoms: C11_13  and  C13_15
REMARK   14  A    between atoms: C11_13  and  O3_19
REMARK   15  A    between atoms: C13_15  and  C14_16
REMARK   16  A    between atoms: C15_20  and  C16_21
REMARK   17  A    between atoms: C16_21  and  C17_22
REMARK   18  A    between atoms: C17_22  and  C18_23
REMARK   19  A    between atoms: C18_23  and  C19_24
REMARK   20  A    between atoms: C18_23  and  C20_25
REMARK                            x       y       z     vdW  Elec       q    Type
REMARK                         _______ _______ _______ _____ _____    ______ ____
ROOT
ATOM     12  C   UNL     1      48.136  20.017  20.128  0.00  0.00    -0.024 C 
ATOM     24  C   UNL     1      48.444  20.988  21.269  0.00  0.00    +0.012 C 
ENDROOT
BRANCH  12  11
ATOM     11  C   UNL     1      49.426  19.321  19.688  0.00  0.00    +0.003 C 
BRANCH  11  10
ATOM     10  C   UNL     1      49.450  17.895  20.241  0.00  0.00    +0.003 C 
BRANCH  10   9
ATOM      9  C   UNL     1      48.828  16.941  19.220  0.00  0.00    +0.004 C 
BRANCH   9   2
ATOM      1  C   UNL     1      47.834  17.335  16.962  0.00  0.00    +0.012 C 
ATOM      2  C   UNL     1      49.105  17.456  17.806  0.00  0.00    -0.024 C 
BRANCH   2   3
ATOM      3  C   UNL     1      50.222  16.626  17.170  0.00  0.00    +0.004 C 
BRANCH   3   4
ATOM      4  C   UNL     1      51.513  17.446  17.142  0.00  0.00    +0.003 C 
BRANCH   4   5
ATOM      5  C   UNL     1      51.321  18.671  16.246  0.00  0.00    +0.005 C 
BRANCH   5   6
ATOM      6  C   UNL     1      52.139  19.839  16.796  0.00  0.00    -0.031 C 
ATOM      7  C   UNL     1      52.700  19.467  18.170  0.00  0.00    +0.011 C 
ATOM      8  C   UNL     1      51.243  21.073  16.928  0.00  0.00    +0.012 C 
ENDBRANCH   5   6
ENDBRANCH   4   5
ENDBRANCH   3   4
ENDBRANCH   2   3
ENDBRANCH   9   2
ENDBRANCH  10   9
ENDBRANCH  11  10
ENDBRANCH  12  11
BRANCH  12  13
ATOM     13  C   UNL     1      47.546  20.790  18.947  0.00  0.00    -0.001 C 
BRANCH  13  14
ATOM     14  C   UNL     1      46.092  20.366  18.734  0.00  0.00    +0.016 C 
BRANCH  14  15
ATOM     15  C   UNL     1      45.167  21.552  19.014  0.00  0.00    -0.030 C 
BRANCH  15  16
ATOM     16  C   UNL     1      44.071  21.124  19.991  0.00  0.00    +0.156 C 
ATOM     23  C   UNL     1      44.660  21.006  21.399  0.00  0.00    +0.046 C 
BRANCH  16  17
ATOM     17  O   UNL     1      43.026  22.099  19.992  0.00  0.00    -0.538 OA
ATOM     18  H   UNL     1      42.188  21.776  20.351  0.00  0.00    +0.355 HD
ENDBRANCH  16  17
BRANCH  16  19
ATOM     19  C   UNL     1      43.504  19.769  19.562  0.00  0.00    -0.099 C 
BRANCH  19  20
ATOM     20  C   UNL     1      42.051  19.925  19.194  0.00  0.00    +0.493 C 
ATOM     21  O   UNL     1      41.187  19.737  20.033  0.00  0.00    -0.714 OA
ATOM     22  O   UNL     1      41.741  20.241  18.058  0.00  0.00    -0.673 OA
ENDBRANCH  19  20
ENDBRANCH  16  19
ENDBRANCH  15  16
ENDBRANCH  14  15
ENDBRANCH  13  14
ENDBRANCH  12  13
TORSDOF 15
ENDMDL
MODEL 4
REMARK VINA RESULT:      -4.5      1.550      2.583
REMARK  Name = ZINC95486087
REMARK  20 active torsions:
REMARK  status: ('A' for Active; 'I' for Inactive)
REMARK    1  A    between atoms: C1_1  and  C2_2
REMARK    2  A    between atoms: C2_2  and  C3_4
REMARK    3  A    between atoms: C2_2  and  C15_20
REMARK    4  A    between atoms: C3_4  and  C4_5
REMARK    5  A    between atoms: C4_5  and  C5_6
REMARK    6  A    between atoms: C5_6  and  C6_7
REMARK    7  A    between atoms: C6_7  and  C7_9
REMARK    8  A    between atoms: C6_7  and  C8_10
REMARK    9  A    between atoms: C8_10  and  C9_11
REMARK   10  A    between atoms: C9_11  and  C10_12
REMARK   11  A    between atoms: C10_12  and  C11_13
REMARK   12  A    between atoms: C11_13  and  C12_14
REMARK   13  A    between atoms: C11_13  and  C13_15
REMARK   14  A    between atoms: C11_13  and  O3_19
REMARK   15  A    between atoms: C13_15  and  C14_16
REMARK   16  A    between atoms: C15_20  and  C16_21
REMARK   17  A    between atoms: C16_21  and  C17_22
REMARK   18  A    between atoms: C17_22  and  C18_23
REMARK   19  A    between atoms: C18_23  and  C19_24
REMARK   20  A    between atoms: C18_23  and  C20_25
REMARK                            x       y       z     vdW  Elec       q    Type
REMARK                         _______ _______ _______ _____ _____    ______ ____
ROOT
ATOM     12  C   UNL     1      47.508  17.847  18.756  0.00  0.00    -0.024 C 
ATOM     24  C   UNL     1      47.667  17.285  17.342  0.00  0.00    +0.012 C 
ENDROOT
BRANCH  12  11
ATOM     11  C   UNL     1      48.859  17.816  19.473  0.00  0.00    +0.003 C 
BRANCH  11  10
ATOM     10  C   UNL     1      49.190  19.214  19.998  0.00  0.00    +0.003 C 
BRANCH  10   9
ATOM      9  C   UNL     1      49.284  20.191  18.825  0.00  0.00    +0.004 C 
BRANCH   9   2
ATOM      1  C   UNL     1      51.019  21.389  17.483  0.00  0.00    +0.012 C 
ATOM      2  C   UNL     1      50.617  20.939  18.890  0.00  0.00    -0.024 C 
BRANCH   2   3
ATOM      3  C   UNL     1      51.695  20.013  19.456  0.00  0.00    +0.004 C 
BRANCH   3   4
ATOM      4  C   UNL     1      52.561  19.479  18.314  0.00  0.00    +0.003 C 
BRANCH   4   5
ATOM      5  C   UNL     1      52.393  17.961  18.213  0.00  0.00    +0.005 C 
BRANCH   5   6
ATOM      6  C   UNL     1      51.425  17.628  17.077  0.00  0.00    -0.031 C 
ATOM      7  C   UNL     1      51.456  16.123  16.805  0.00  0.00    +0.011 C 
ATOM      8  C   UNL     1      51.842  18.383  15.813  0.00  0.00    +0.012 C 
ENDBRANCH   5   6
ENDBRANCH   4   5
ENDBRANCH   3   4
ENDBRANCH   2   3
ENDBRANCH   9   2
ENDBRANCH  10   9
ENDBRANCH  11  10
ENDBRANCH  12  11
BRANCH  12  13
ATOM     13  C   UNL     1      46.500  16.996  19.532  0.00  0.00    -0.001 C 
BRANCH  13  14
ATOM     14  C   UNL     1      45.156  17.725  19.593  0.00  0.00    +0.016 C 
BRANCH  14  15
ATOM     15  C   UNL     1      45.369  19.145  20.120  0.00  0.00    -0.030 C 
BRANCH  15  16
ATOM     16  C   UNL     1      44.742  20.148  19.150  0.00  0.00    +0.156 C 
ATOM     23  C   UNL     1      45.768  21.228  18.798  0.00  0.00    +0.046 C 
BRANCH  16  17
ATOM     17  O   UNL     1      44.337  19.470  17.958  0.00  0.00    -0.538 OA
ATOM     18  H   UNL     1      45.074  19.145  17.422  0.00  0.00    +0.355 HD
ENDBRANCH  16  17
BRANCH  16  19
ATOM     19  C   UNL     1      43.522  20.799  19.805  0.00  0.00    -0.099 C 
BRANCH  19  20
ATOM     20  C   UNL     1      42.264  20.204  19.228  0.00  0.00    +0.493 C 
ATOM     21  O   UNL     1      41.821  19.161  19.679  0.00  0.00    -0.714 OA
ATOM     22  O   UNL     1      41.689  20.766  18.312  0.00  0.00    -0.673 OA
ENDBRANCH  19  20
ENDBRANCH  16  19
ENDBRANCH  15  16
ENDBRANCH  14  15
ENDBRANCH  13  14
ENDBRANCH  12  13
TORSDOF 15
ENDMDL
MODEL 5
REMARK VINA RESULT:      -4.5      2.062      2.995
REMARK  Name = ZINC95486087
REMARK  20 active torsions:
REMARK  status: ('A' for Active; 'I' for Inactive)
REMARK    1  A    between atoms: C1_1  and  C2_2
REMARK    2  A    between atoms: C2_2  and  C3_4
REMARK    3  A    between atoms: C2_2  and  C15_20
REMARK    4  A    between atoms: C3_4  and  C4_5
REMARK    5  A    between atoms: C4_5  and  C5_6
REMARK    6  A    between atoms: C5_6  and  C6_7
REMARK    7  A    between atoms: C6_7  and  C7_9
REMARK    8  A    between atoms: C6_7  and  C8_10
REMARK    9  A    between atoms: C8_10  and  C9_11
REMARK   10  A    between atoms: C9_11  and  C10_12
REMARK   11  A    between atoms: C10_12  and  C11_13
REMARK   12  A    between atoms: C11_13  and  C12_14
REMARK   13  A    between atoms: C11_13  and  C13_15
REMARK   14  A    between atoms: C11_13  and  O3_19
REMARK   15  A    between atoms: C13_15  and  C14_16
REMARK   16  A    between atoms: C15_20  and  C16_21
REMARK   17  A    between atoms: C16_21  and  C17_22
REMARK   18  A    between atoms: C17_22  and  C18_23
REMARK   19  A    between atoms: C18_23  and  C19_24
REMARK   20  A    between atoms: C18_23  and  C20_25
REMARK                            x       y       z     vdW  Elec       q    Type
REMARK                         _______ _______ _______ _____ _____    ______ ____
ROOT
ATOM     12  C   UNL     1      49.652  20.446  20.872  0.00  0.00    -0.024 C 
ATOM     24  C   UNL     1      51.076  20.781  21.321  0.00  0.00    +0.012 C 
ENDROOT
BRANCH  12  11
ATOM     11  C   UNL     1      49.454  20.901  19.424  0.00  0.00    +0.003 C 
BRANCH  11  10
ATOM     10  C   UNL     1      50.817  21.173  18.784  0.00  0.00    +0.003 C 
BRANCH  10   9
ATOM      9  C   UNL     1      50.981  20.297  17.541  0.00  0.00    +0.004 C 
BRANCH   9   2
ATOM      1  C   UNL     1      52.400  18.413  18.368  0.00  0.00    +0.012 C 
ATOM      2  C   UNL     1      50.985  18.823  17.952  0.00  0.00    -0.024 C 
BRANCH   2   3
ATOM      3  C   UNL     1      50.531  17.962  16.771  0.00  0.00    +0.004 C 
BRANCH   3   4
ATOM      4  C   UNL     1      49.459  16.977  17.241  0.00  0.00    +0.003 C 
BRANCH   4   5
ATOM      5  C   UNL     1      48.782  17.522  18.500  0.00  0.00    +0.005 C 
BRANCH   5   6
ATOM      6  C   UNL     1      47.406  18.082  18.138  0.00  0.00    -0.031 C 
ATOM      7  C   UNL     1      46.615  18.361  19.418  0.00  0.00    +0.011 C 
ATOM      8  C   UNL     1      46.649  17.062  17.284  0.00  0.00    +0.012 C 
ENDBRANCH   5   6
ENDBRANCH   4   5
ENDBRANCH   3   4
ENDBRANCH   2   3
ENDBRANCH   9   2
ENDBRANCH  10   9
ENDBRANCH  11  10
ENDBRANCH  12  11
BRANCH  12  13
ATOM     13  C   UNL     1      48.650  21.169  21.774  0.00  0.00    -0.001 C 
BRANCH  13  14
ATOM     14  C   UNL     1      47.440  21.607  20.946  0.00  0.00    +0.016 C 
BRANCH  14  15
ATOM     15  C   UNL     1      46.576  22.562  21.771  0.00  0.00    -0.030 C 
BRANCH  15  16
ATOM     16  C   UNL     1      45.098  22.268  21.509  0.00  0.00    +0.156 C 
ATOM     23  C   UNL     1      44.697  20.984  22.239  0.00  0.00    +0.046 C 
BRANCH  16  17
ATOM     17  O   UNL     1      44.303  23.355  21.986  0.00  0.00    -0.538 OA
ATOM     18  H   UNL     1      44.583  23.699  22.845  0.00  0.00    +0.355 HD
ENDBRANCH  16  17
BRANCH  16  19
ATOM     19  C   UNL     1      44.871  22.091  20.006  0.00  0.00    -0.099 C 
BRANCH  19  20
ATOM     20  C   UNL     1      44.040  23.235  19.485  0.00  0.00    +0.493 C 
ATOM     21  O   UNL     1      42.829  23.123  19.407  0.00  0.00    -0.714 OA
ATOM     22  O   UNL     1      44.581  24.273  19.142  0.00  0.00    -0.673 OA
ENDBRANCH  19  20
ENDBRANCH  16  19
ENDBRANCH  15  16
ENDBRANCH  14  15
ENDBRANCH  13  14
ENDBRANCH  12  13
TORSDOF 15
ENDMDL
MODEL 6
REMARK VINA RESULT:      -4.5      1.652      2.992
REMARK  Name = ZINC95486087
REMARK  20 active torsions:
REMARK  status: ('A' for Active; 'I' for Inactive)
REMARK    1  A    between atoms: C1_1  and  C2_2
REMARK    2  A    between atoms: C2_2  and  C3_4
REMARK    3  A    between atoms: C2_2  and  C15_20
REMARK    4  A    between atoms: C3_4  and  C4_5
REMARK    5  A    between atoms: C4_5  and  C5_6
REMARK    6  A    between atoms: C5_6  and  C6_7
REMARK    7  A    between atoms: C6_7  and  C7_9
REMARK    8  A    between atoms: C6_7  and  C8_10
REMARK    9  A    between atoms: C8_10  and  C9_11
REMARK   10  A    between atoms: C9_11  and  C10_12
REMARK   11  A    between atoms: C10_12  and  C11_13
REMARK   12  A    between atoms: C11_13  and  C12_14
REMARK   13  A    between atoms: C11_13  and  C13_15
REMARK   14  A    between atoms: C11_13  and  O3_19
REMARK   15  A    between atoms: C13_15  and  C14_16
REMARK   16  A    between atoms: C15_20  and  C16_21
REMARK   17  A    between atoms: C16_21  and  C17_22
REMARK   18  A    between atoms: C17_22  and  C18_23
REMARK   19  A    between atoms: C18_23  and  C19_24
REMARK   20  A    between atoms: C18_23  and  C20_25
REMARK                            x       y       z     vdW  Elec       q    Type
REMARK                         _______ _______ _______ _____ _____    ______ ____
ROOT
ATOM     12  C   UNL     1      47.116  21.074  20.379  0.00  0.00    -0.024 C 
ATOM     24  C   UNL     1      46.898  20.628  18.932  0.00  0.00    +0.012 C 
ENDROOT
BRANCH  12  11
ATOM     11  C   UNL     1      47.153  19.846  21.291  0.00  0.00    +0.003 C 
BRANCH  11  10
ATOM     10  C   UNL     1      48.519  19.760  21.974  0.00  0.00    +0.003 C 
BRANCH  10   9
ATOM      9  C   UNL     1      49.332  21.015  21.651  0.00  0.00    +0.004 C 
BRANCH   9   2
ATOM      1  C   UNL     1      51.783  21.498  21.607  0.00  0.00    +0.012 C 
ATOM      2  C   UNL     1      50.675  20.609  21.039  0.00  0.00    -0.024 C 
BRANCH   2   3
ATOM      3  C   UNL     1      50.615  20.776  19.519  0.00  0.00    +0.004 C 
BRANCH   3   4
ATOM      4  C   UNL     1      52.001  21.150  18.992  0.00  0.00    +0.003 C 
BRANCH   4   5
ATOM      5  C   UNL     1      52.463  20.099  17.981  0.00  0.00    +0.005 C 
BRANCH   5   6
ATOM      6  C   UNL     1      51.464  20.029  16.825  0.00  0.00    -0.031 C 
ATOM      7  C   UNL     1      51.797  18.830  15.935  0.00  0.00    +0.011 C 
ATOM      8  C   UNL     1      51.549  21.315  16.000  0.00  0.00    +0.012 C 
ENDBRANCH   5   6
ENDBRANCH   4   5
ENDBRANCH   3   4
ENDBRANCH   2   3
ENDBRANCH   9   2
ENDBRANCH  10   9
ENDBRANCH  11  10
ENDBRANCH  12  11
BRANCH  12  13
ATOM     13  C   UNL     1      45.969  21.992  20.807  0.00  0.00    -0.001 C 
BRANCH  13  14
ATOM     14  C   UNL     1      44.698  21.610  20.045  0.00  0.00    +0.016 C 
BRANCH  14  15
ATOM     15  C   UNL     1      43.759  20.839  20.974  0.00  0.00    -0.030 C 
BRANCH  15  16
ATOM     16  C   UNL     1      42.995  19.788  20.168  0.00  0.00    +0.156 C 
ATOM     23  C   UNL     1      43.747  18.456  20.224  0.00  0.00    +0.046 C 
BRANCH  16  17
ATOM     17  O   UNL     1      41.687  19.620  20.721  0.00  0.00    -0.538 OA
ATOM     18  H   UNL     1      41.500  18.719  21.021  0.00  0.00    +0.355 HD
ENDBRANCH  16  17
BRANCH  16  19
ATOM     19  C   UNL     1      42.877  20.245  18.712  0.00  0.00    -0.099 C 
BRANCH  19  20
ATOM     20  C   UNL     1      41.454  20.650  18.425  0.00  0.00    +0.493 C 
ATOM     21  O   UNL     1      41.079  21.780  18.684  0.00  0.00    -0.714 OA
ATOM     22  O   UNL     1      40.680  19.846  17.935  0.00  0.00    -0.673 OA
ENDBRANCH  19  20
ENDBRANCH  16  19
ENDBRANCH  15  16
ENDBRANCH  14  15
ENDBRANCH  13  14
ENDBRANCH  12  13
TORSDOF 15
ENDMDL
MODEL 7
REMARK VINA RESULT:      -4.4      1.781      3.578
REMARK  Name = ZINC95486087
REMARK  20 active torsions:
REMARK  status: ('A' for Active; 'I' for Inactive)
REMARK    1  A    between atoms: C1_1  and  C2_2
REMARK    2  A    between atoms: C2_2  and  C3_4
REMARK    3  A    between atoms: C2_2  and  C15_20
REMARK    4  A    between atoms: C3_4  and  C4_5
REMARK    5  A    between atoms: C4_5  and  C5_6
REMARK    6  A    between atoms: C5_6  and  C6_7
REMARK    7  A    between atoms: C6_7  and  C7_9
REMARK    8  A    between atoms: C6_7  and  C8_10
REMARK    9  A    between atoms: C8_10  and  C9_11
REMARK   10  A    between atoms: C9_11  and  C10_12
REMARK   11  A    between atoms: C10_12  and  C11_13
REMARK   12  A    between atoms: C11_13  and  C12_14
REMARK   13  A    between atoms: C11_13  and  C13_15
REMARK   14  A    between atoms: C11_13  and  O3_19
REMARK   15  A    between atoms: C13_15  and  C14_16
REMARK   16  A    between atoms: C15_20  and  C16_21
REMARK   17  A    between atoms: C16_21  and  C17_22
REMARK   18  A    between atoms: C17_22  and  C18_23
REMARK   19  A    between atoms: C18_23  and  C19_24
REMARK   20  A    between atoms: C18_23  and  C20_25
REMARK                            x       y       z     vdW  Elec       q    Type
REMARK                         _______ _______ _______ _____ _____    ______ ____
ROOT
ATOM     12  C   UNL     1      47.923  18.403  18.713  0.00  0.00    -0.024 C 
ATOM     24  C   UNL     1      48.195  17.564  17.463  0.00  0.00    +0.012 C 
ENDROOT
BRANCH  12  11
ATOM     11  C   UNL     1      47.746  17.478  19.919  0.00  0.00    +0.003 C 
BRANCH  11  10
ATOM     10  C   UNL     1      49.035  17.460  20.743  0.00  0.00    +0.003 C 
BRANCH  10   9
ATOM      9  C   UNL     1      49.158  18.769  21.525  0.00  0.00    +0.004 C 
BRANCH   9   2
ATOM      1  C   UNL     1      51.291  19.632  22.500  0.00  0.00    +0.012 C 
ATOM      2  C   UNL     1      50.501  19.430  21.205  0.00  0.00    -0.024 C 
BRANCH   2   3
ATOM      3  C   UNL     1      50.256  20.786  20.540  0.00  0.00    +0.004 C 
BRANCH   3   4
ATOM      4  C   UNL     1      51.293  21.009  19.439  0.00  0.00    +0.003 C 
BRANCH   4   5
ATOM      5  C   UNL     1      50.621  20.877  18.070  0.00  0.00    +0.005 C 
BRANCH   5   6
ATOM      6  C   UNL     1      51.296  19.759  17.276  0.00  0.00    -0.031 C 
ATOM      7  C   UNL     1      52.490  19.219  18.066  0.00  0.00    +0.011 C 
ATOM      8  C   UNL     1      51.780  20.308  15.932  0.00  0.00    +0.012 C 
ENDBRANCH   5   6
ENDBRANCH   4   5
ENDBRANCH   3   4
ENDBRANCH   2   3
ENDBRANCH   9   2
ENDBRANCH  10   9
ENDBRANCH  11  10
ENDBRANCH  12  11
BRANCH  12  13
ATOM     13  C   UNL     1      46.649  19.224  18.509  0.00  0.00    -0.001 C 
BRANCH  13  14
ATOM     14  C   UNL     1      46.959  20.708  18.715  0.00  0.00    +0.016 C 
BRANCH  14  15
ATOM     15  C   UNL     1      46.539  21.126  20.125  0.00  0.00    -0.030 C 
BRANCH  15  16
ATOM     16  C   UNL     1      45.241  21.932  20.053  0.00  0.00    +0.156 C 
ATOM     23  C   UNL     1      45.330  23.131  20.999  0.00  0.00    +0.046 C 
BRANCH  16  17
ATOM     17  O   UNL     1      45.041  22.395  18.715  0.00  0.00    -0.538 OA
ATOM     18  H   UNL     1      45.812  22.284  18.142  0.00  0.00    +0.355 HD
ENDBRANCH  16  17
BRANCH  16  19
ATOM     19  C   UNL     1      44.064  21.044  20.466  0.00  0.00    -0.099 C 
BRANCH  19  20
ATOM     20  C   UNL     1      43.084  20.946  19.326  0.00  0.00    +0.493 C 
ATOM     21  O   UNL     1      42.222  21.797  19.189  0.00  0.00    -0.714 OA
ATOM     22  O   UNL     1      43.153  20.015  18.541  0.00  0.00    -0.673 OA
ENDBRANCH  19  20
ENDBRANCH  16  19
ENDBRANCH  15  16
ENDBRANCH  14  15
ENDBRANCH  13  14
ENDBRANCH  12  13
TORSDOF 15
ENDMDL
MODEL 8
REMARK VINA RESULT:      -4.4      3.430      6.303
REMARK  Name = ZINC95486087
REMARK  20 active torsions:
REMARK  status: ('A' for Active; 'I' for Inactive)
REMARK    1  A    between atoms: C1_1  and  C2_2
REMARK    2  A    between atoms: C2_2  and  C3_4
REMARK    3  A    between atoms: C2_2  and  C15_20
REMARK    4  A    between atoms: C3_4  and  C4_5
REMARK    5  A    between atoms: C4_5  and  C5_6
REMARK    6  A    between atoms: C5_6  and  C6_7
REMARK    7  A    between atoms: C6_7  and  C7_9
REMARK    8  A    between atoms: C6_7  and  C8_10
REMARK    9  A    between atoms: C8_10  and  C9_11
REMARK   10  A    between atoms: C9_11  and  C10_12
REMARK   11  A    between atoms: C10_12  and  C11_13
REMARK   12  A    between atoms: C11_13  and  C12_14
REMARK   13  A    between atoms: C11_13  and  C13_15
REMARK   14  A    between atoms: C11_13  and  O3_19
REMARK   15  A    between atoms: C13_15  and  C14_16
REMARK   16  A    between atoms: C15_20  and  C16_21
REMARK   17  A    between atoms: C16_21  and  C17_22
REMARK   18  A    between atoms: C17_22  and  C18_23
REMARK   19  A    between atoms: C18_23  and  C19_24
REMARK   20  A    between atoms: C18_23  and  C20_25
REMARK                            x       y       z     vdW  Elec       q    Type
REMARK                         _______ _______ _______ _____ _____    ______ ____
ROOT
ATOM     12  C   UNL     1      51.475  19.351  16.955  0.00  0.00    -0.024 C 
ATOM     24  C   UNL     1      51.851  19.920  15.585  0.00  0.00    +0.012 C 
ENDROOT
BRANCH  12  11
ATOM     11  C   UNL     1      52.336  20.010  18.034  0.00  0.00    +0.003 C 
BRANCH  11  10
ATOM     10  C   UNL     1      51.565  21.174  18.661  0.00  0.00    +0.003 C 
BRANCH  10   9
ATOM      9  C   UNL     1      50.073  20.836  18.699  0.00  0.00    +0.004 C 
BRANCH   9   2
ATOM      1  C   UNL     1      49.850  19.213  20.586  0.00  0.00    +0.012 C 
ATOM      2  C   UNL     1      49.626  20.663  20.152  0.00  0.00    -0.024 C 
BRANCH   2   3
ATOM      3  C   UNL     1      48.141  21.009  20.274  0.00  0.00    +0.004 C 
BRANCH   3   4
ATOM      4  C   UNL     1      47.324  20.067  19.389  0.00  0.00    +0.003 C 
BRANCH   4   5
ATOM      5  C   UNL     1      46.309  20.878  18.581  0.00  0.00    +0.005 C 
BRANCH   5   6
ATOM      6  C   UNL     1      44.900  20.347  18.851  0.00  0.00    -0.031 C 
ATOM      7  C   UNL     1      44.131  21.355  19.709  0.00  0.00    +0.011 C 
ATOM      8  C   UNL     1      44.991  19.012  19.593  0.00  0.00    +0.012 C 
ENDBRANCH   5   6
ENDBRANCH   4   5
ENDBRANCH   3   4
ENDBRANCH   2   3
ENDBRANCH   9   2
ENDBRANCH  10   9
ENDBRANCH  11  10
ENDBRANCH  12  11
BRANCH  12  13
ATOM     13  C   UNL     1      51.717  17.840  16.962  0.00  0.00    -0.001 C 
BRANCH  13  14
ATOM     14  C   UNL     1      50.549  17.139  17.659  0.00  0.00    +0.016 C 
BRANCH  14  15
ATOM     15  C   UNL     1      49.228  17.662  17.092  0.00  0.00    -0.030 C 
BRANCH  15  16
ATOM     16  C   UNL     1      48.117  16.649  17.371  0.00  0.00    +0.156 C 
ATOM     23  C   UNL     1      46.781  17.207  16.878  0.00  0.00    +0.046 C 
BRANCH  16  17
ATOM     17  O   UNL     1      48.404  15.426  16.688  0.00  0.00    -0.538 OA
ATOM     18  H   UNL     1      47.645  15.052  16.219  0.00  0.00    +0.355 HD
ENDBRANCH  16  17
BRANCH  16  19
ATOM     19  C   UNL     1      48.034  16.383  18.876  0.00  0.00    -0.099 C 
BRANCH  19  20
ATOM     20  C   UNL     1      47.945  14.899  19.121  0.00  0.00    +0.493 C 
ATOM     21  O   UNL     1      48.950  14.265  19.392  0.00  0.00    -0.714 OA
ATOM     22  O   UNL     1      46.867  14.333  19.048  0.00  0.00    -0.673 OA
ENDBRANCH  19  20
ENDBRANCH  16  19
ENDBRANCH  15  16
ENDBRANCH  14  15
ENDBRANCH  13  14
ENDBRANCH  12  13
TORSDOF 15
ENDMDL
MODEL 9
REMARK VINA RESULT:      -4.4      1.236      3.129
REMARK  Name = ZINC95486087
REMARK  20 active torsions:
REMARK  status: ('A' for Active; 'I' for Inactive)
REMARK    1  A    between atoms: C1_1  and  C2_2
REMARK    2  A    between atoms: C2_2  and  C3_4
REMARK    3  A    between atoms: C2_2  and  C15_20
REMARK    4  A    between atoms: C3_4  and  C4_5
REMARK    5  A    between atoms: C4_5  and  C5_6
REMARK    6  A    between atoms: C5_6  and  C6_7
REMARK    7  A    between atoms: C6_7  and  C7_9
REMARK    8  A    between atoms: C6_7  and  C8_10
REMARK    9  A    between atoms: C8_10  and  C9_11
REMARK   10  A    between atoms: C9_11  and  C10_12
REMARK   11  A    between atoms: C10_12  and  C11_13
REMARK   12  A    between atoms: C11_13  and  C12_14
REMARK   13  A    between atoms: C11_13  and  C13_15
REMARK   14  A    between atoms: C11_13  and  O3_19
REMARK   15  A    between atoms: C13_15  and  C14_16
REMARK   16  A    between atoms: C15_20  and  C16_21
REMARK   17  A    between atoms: C16_21  and  C17_22
REMARK   18  A    between atoms: C17_22  and  C18_23
REMARK   19  A    between atoms: C18_23  and  C19_24
REMARK   20  A    between atoms: C18_23  and  C20_25
REMARK                            x       y       z     vdW  Elec       q    Type
REMARK                         _______ _______ _______ _____ _____    ______ ____
ROOT
ATOM     12  C   UNL     1      47.302  19.249  20.282  0.00  0.00    -0.024 C 
ATOM     24  C   UNL     1      47.158  20.110  19.026  0.00  0.00    +0.012 C 
ENDROOT
BRANCH  12  11
ATOM     11  C   UNL     1      48.767  18.841  20.454  0.00  0.00    +0.003 C 
BRANCH  11  10
ATOM     10  C   UNL     1      48.885  17.318  20.363  0.00  0.00    +0.003 C 
BRANCH  10   9
ATOM      9  C   UNL     1      49.904  16.950  19.282  0.00  0.00    +0.004 C 
BRANCH   9   2
ATOM      1  C   UNL     1      48.600  16.262  17.264  0.00  0.00    +0.012 C 
ATOM      2  C   UNL     1      49.384  17.403  17.916  0.00  0.00    -0.024 C 
BRANCH   2   3
ATOM      3  C   UNL     1      50.565  17.786  17.022  0.00  0.00    +0.004 C 
BRANCH   3   4
ATOM      4  C   UNL     1      51.830  17.907  17.873  0.00  0.00    +0.003 C 
BRANCH   4   5
ATOM      5  C   UNL     1      52.317  19.358  17.860  0.00  0.00    +0.005 C 
BRANCH   5   6
ATOM      6  C   UNL     1      51.202  20.266  17.340  0.00  0.00    -0.031 C 
ATOM      7  C   UNL     1      51.725  21.095  16.165  0.00  0.00    +0.011 C 
ATOM      8  C   UNL     1      50.742  21.202  18.460  0.00  0.00    +0.012 C 
ENDBRANCH   5   6
ENDBRANCH   4   5
ENDBRANCH   3   4
ENDBRANCH   2   3
ENDBRANCH   9   2
ENDBRANCH  10   9
ENDBRANCH  11  10
ENDBRANCH  12  11
BRANCH  12  13
ATOM     13  C   UNL     1      46.436  17.996  20.143  0.00  0.00    -0.001 C 
BRANCH  13  14
ATOM     14  C   UNL     1      45.291  18.273  19.167  0.00  0.00    +0.016 C 
BRANCH  14  15
ATOM     15  C   UNL     1      43.974  18.366  19.939  0.00  0.00    -0.030 C 
BRANCH  15  16
ATOM     16  C   UNL     1      43.341  19.738  19.703  0.00  0.00    +0.156 C 
ATOM     23  C   UNL     1      43.889  20.736  20.725  0.00  0.00    +0.046 C 
BRANCH  16  17
ATOM     17  O   UNL     1      43.654  20.188  18.383  0.00  0.00    -0.538 OA
ATOM     18  H   UNL     1      44.601  20.196  18.186  0.00  0.00    +0.355 HD
ENDBRANCH  16  17
BRANCH  16  19
ATOM     19  C   UNL     1      41.822  19.634  19.859  0.00  0.00    -0.099 C 
BRANCH  19  20
ATOM     20  C   UNL     1      41.149  20.436  18.775  0.00  0.00    +0.493 C 
ATOM     21  O   UNL     1      41.094  21.650  18.861  0.00  0.00    -0.714 OA
ATOM     22  O   UNL     1      40.660  19.869  17.812  0.00  0.00    -0.673 OA
ENDBRANCH  19  20
ENDBRANCH  16  19
ENDBRANCH  15  16
ENDBRANCH  14  15
ENDBRANCH  13  14
ENDBRANCH  12  13
TORSDOF 15
ENDMDL
