MODEL 1
REMARK VINA RESULT:      -6.3      0.000      0.000
REMARK  Name = ZINC05842416
REMARK  5 active torsions:
REMARK  status: ('A' for Active; 'I' for Inactive)
REMARK    1  A    between atoms: C3_3  and  O6_21
REMARK    2  A    between atoms: C6_6  and  C7_7
REMARK    3  A    between atoms: C13_15  and  O5_20
REMARK    4  A    between atoms: C14_16  and  O4_19
REMARK    5  A    between atoms: C15_17  and  O3_18
REMARK                            x       y       z     vdW  Elec       q    Type
REMARK                         _______ _______ _______ _____ _____    ______ ____
ROOT
ATOM      9  C   UNL     1      44.351  18.553  20.629  0.00  0.00    +0.214 A 
ATOM     10  C   UNL     1      45.360  19.416  20.929  0.00  0.00    -0.158 A 
ATOM     11  C   UNL     1      45.220  20.789  20.621  0.00  0.00    +0.427 A 
ATOM     12  C   UNL     1      43.964  21.215  19.979  0.00  0.00    -0.271 A 
ATOM     13  C   UNL     1      42.983  20.243  19.713  0.00  0.00    +0.196 A 
ATOM     14  C   UNL     1      41.794  20.621  19.110  0.00  0.00    -0.041 A 
ATOM     15  C   UNL     1      41.576  21.947  18.775  0.00  0.00    +0.235 A 
ATOM     18  C   UNL     1      42.544  22.914  19.037  0.00  0.00    -0.067 A 
ATOM     21  C   UNL     1      43.741  22.553  19.634  0.00  0.00    +0.196 A 
ATOM     24  O   UNL     1      46.105  21.590  20.875  0.00  0.00    -0.460 OA
ATOM     25  O   UNL     1      43.211  18.953  20.045  0.00  0.00    -0.216 OA
ENDROOT
BRANCH   9   8
ATOM      1  C   UNL     1      45.094  16.254  20.032  0.00  0.00    +0.108 A 
ATOM      2  C   UNL     1      45.251  14.923  20.347  0.00  0.00    -0.026 A 
ATOM      3  C   UNL     1      44.826  14.443  21.580  0.00  0.00    +0.187 A 
ATOM      6  C   UNL     1      44.245  15.305  22.503  0.00  0.00    -0.084 A 
ATOM      7  C   UNL     1      44.089  16.640  22.198  0.00  0.00    +0.103 A 
ATOM      8  C   UNL     1      44.516  17.126  20.959  0.00  0.00    -0.121 A 
BRANCH   3   4
ATOM      4  O   UNL     1      44.977  13.128  21.884  0.00  0.00    -0.504 OA
ATOM      5  H   UNL     1      45.459  12.449  21.165  0.00  0.00    +0.440 HD
ENDBRANCH   3   4
ENDBRANCH   9   8
BRANCH  15  16
ATOM     16  O   UNL     1      40.406  22.309  18.185  0.00  0.00    -0.491 OA
ATOM     17  H   UNL     1      40.030  23.337  18.294  0.00  0.00    +0.451 HD
ENDBRANCH  15  16
BRANCH  18  19
ATOM     19  O   UNL     1      42.316  24.214  18.703  0.00  0.00    -0.504 OA
ATOM     20  H   UNL     1      41.313  24.647  18.829  0.00  0.00    +0.425 HD
ENDBRANCH  18  19
BRANCH  21  22
ATOM     22  O   UNL     1      44.691  23.492  19.886  0.00  0.00    -0.456 OA
ATOM     23  H   UNL     1      45.105  24.091  19.062  0.00  0.00    +0.417 HD
ENDBRANCH  21  22
TORSDOF 5
ENDMDL
MODEL 2
REMARK VINA RESULT:      -6.1      3.946      6.109
REMARK  Name = ZINC05842416
REMARK  5 active torsions:
REMARK  status: ('A' for Active; 'I' for Inactive)
REMARK    1  A    between atoms: C3_3  and  O6_21
REMARK    2  A    between atoms: C6_6  and  C7_7
REMARK    3  A    between atoms: C13_15  and  O5_20
REMARK    4  A    between atoms: C14_16  and  O4_19
REMARK    5  A    between atoms: C15_17  and  O3_18
REMARK                            x       y       z     vdW  Elec       q    Type
REMARK                         _______ _______ _______ _____ _____    ______ ____
ROOT
ATOM      9  C   UNL     1      48.169  20.386  19.551  0.00  0.00    +0.214 A 
ATOM     10  C   UNL     1      47.790  19.080  19.613  0.00  0.00    -0.158 A 
ATOM     11  C   UNL     1      46.416  18.754  19.704  0.00  0.00    +0.427 A 
ATOM     12  C   UNL     1      45.457  19.871  19.731  0.00  0.00    -0.271 A 
ATOM     13  C   UNL     1      45.952  21.185  19.663  0.00  0.00    +0.196 A 
ATOM     14  C   UNL     1      45.067  22.251  19.686  0.00  0.00    -0.041 A 
ATOM     15  C   UNL     1      43.704  22.020  19.775  0.00  0.00    +0.235 A 
ATOM     18  C   UNL     1      43.207  20.720  19.843  0.00  0.00    -0.067 A 
ATOM     21  C   UNL     1      44.079  19.642  19.827  0.00  0.00    +0.196 A 
ATOM     24  O   UNL     1      46.042  17.594  19.762  0.00  0.00    -0.460 OA
ATOM     25  O   UNL     1      47.284  21.394  19.576  0.00  0.00    -0.216 OA
ENDROOT
BRANCH   9   8
ATOM      1  C   UNL     1      50.379  20.816  20.614  0.00  0.00    +0.108 A 
ATOM      2  C   UNL     1      51.721  21.108  20.518  0.00  0.00    -0.026 A 
ATOM      3  C   UNL     1      52.305  21.302  19.272  0.00  0.00    +0.187 A 
ATOM      6  C   UNL     1      51.538  21.197  18.116  0.00  0.00    -0.084 A 
ATOM      7  C   UNL     1      50.196  20.900  18.203  0.00  0.00    +0.103 A 
ATOM      8  C   UNL     1      49.606  20.703  19.454  0.00  0.00    -0.121 A 
BRANCH   3   4
ATOM      4  O   UNL     1      53.627  21.596  19.182  0.00  0.00    -0.504 OA
ATOM      5  H   UNL     1      54.125  22.148  19.993  0.00  0.00    +0.440 HD
ENDBRANCH   3   4
ENDBRANCH   9   8
BRANCH  15  16
ATOM     16  O   UNL     1      42.843  23.071  19.797  0.00  0.00    -0.491 OA
ATOM     17  H   UNL     1      43.103  23.984  20.353  0.00  0.00    +0.451 HD
ENDBRANCH  15  16
BRANCH  18  19
ATOM     19  O   UNL     1      41.865  20.508  19.930  0.00  0.00    -0.504 OA
ATOM     20  H   UNL     1      41.406  19.663  19.396  0.00  0.00    +0.425 HD
ENDBRANCH  18  19
BRANCH  21  22
ATOM     22  O   UNL     1      43.599  18.373  19.899  0.00  0.00    -0.456 OA
ATOM     23  H   UNL     1      43.679  17.807  20.839  0.00  0.00    +0.417 HD
ENDBRANCH  21  22
TORSDOF 5
ENDMDL
MODEL 3
REMARK VINA RESULT:      -5.8      5.123      8.059
REMARK  Name = ZINC05842416
REMARK  5 active torsions:
REMARK  status: ('A' for Active; 'I' for Inactive)
REMARK    1  A    between atoms: C3_3  and  O6_21
REMARK    2  A    between atoms: C6_6  and  C7_7
REMARK    3  A    between atoms: C13_15  and  O5_20
REMARK    4  A    between atoms: C14_16  and  O4_19
REMARK    5  A    between atoms: C15_17  and  O3_18
REMARK                            x       y       z     vdW  Elec       q    Type
REMARK                         _______ _______ _______ _____ _____    ______ ____
ROOT
ATOM      9  C   UNL     1      48.280  20.450  19.130  0.00  0.00    +0.214 A 
ATOM     10  C   UNL     1      49.424  21.151  18.902  0.00  0.00    -0.158 A 
ATOM     11  C   UNL     1      50.524  20.512  18.284  0.00  0.00    +0.427 A 
ATOM     12  C   UNL     1      50.365  19.094  17.919  0.00  0.00    -0.271 A 
ATOM     13  C   UNL     1      49.141  18.461  18.199  0.00  0.00    +0.196 A 
ATOM     14  C   UNL     1      48.969  17.127  17.863  0.00  0.00    -0.041 A 
ATOM     15  C   UNL     1      49.997  16.426  17.255  0.00  0.00    +0.235 A 
ATOM     18  C   UNL     1      51.212  17.048  16.975  0.00  0.00    -0.067 A 
ATOM     21  C   UNL     1      51.403  18.380  17.309  0.00  0.00    +0.196 A 
ATOM     24  O   UNL     1      51.564  21.110  18.065  0.00  0.00    -0.460 OA
ATOM     25  O   UNL     1      48.147  19.158  18.792  0.00  0.00    -0.216 OA
ENDROOT
BRANCH   9   8
ATOM      1  C   UNL     1      47.300  21.716  21.037  0.00  0.00    +0.108 A 
ATOM      2  C   UNL     1      46.237  22.359  21.632  0.00  0.00    -0.026 A 
ATOM      3  C   UNL     1      45.010  22.424  20.984  0.00  0.00    +0.187 A 
ATOM      6  C   UNL     1      44.849  21.843  19.731  0.00  0.00    -0.084 A 
ATOM      7  C   UNL     1      45.908  21.202  19.126  0.00  0.00    +0.103 A 
ATOM      8  C   UNL     1      47.144  21.136  19.774  0.00  0.00    -0.121 A 
BRANCH   3   4
ATOM      4  O   UNL     1      43.963  23.054  21.577  0.00  0.00    -0.504 OA
ATOM      5  H   UNL     1      44.059  23.429  22.607  0.00  0.00    +0.440 HD
ENDBRANCH   3   4
ENDBRANCH   9   8
BRANCH  15  16
ATOM     16  O   UNL     1      49.820  15.119  16.929  0.00  0.00    -0.491 OA
ATOM     17  H   UNL     1      50.425  14.343  17.420  0.00  0.00    +0.451 HD
ENDBRANCH  15  16
BRANCH  18  19
ATOM     19  O   UNL     1      52.214  16.347  16.377  0.00  0.00    -0.504 OA
ATOM     20  H   UNL     1      52.365  15.285  16.623  0.00  0.00    +0.425 HD
ENDBRANCH  18  19
BRANCH  21  22
ATOM     22  O   UNL     1      52.588  18.988  17.043  0.00  0.00    -0.456 OA
ATOM     23  H   UNL     1      52.885  19.183  16.002  0.00  0.00    +0.417 HD
ENDBRANCH  21  22
TORSDOF 5
ENDMDL
MODEL 4
REMARK VINA RESULT:      -5.8      3.681      5.828
REMARK  Name = ZINC05842416
REMARK  5 active torsions:
REMARK  status: ('A' for Active; 'I' for Inactive)
REMARK    1  A    between atoms: C3_3  and  O6_21
REMARK    2  A    between atoms: C6_6  and  C7_7
REMARK    3  A    between atoms: C13_15  and  O5_20
REMARK    4  A    between atoms: C14_16  and  O4_19
REMARK    5  A    between atoms: C15_17  and  O3_18
REMARK                            x       y       z     vdW  Elec       q    Type
REMARK                         _______ _______ _______ _____ _____    ______ ____
ROOT
ATOM      9  C   UNL     1      47.260  19.694  19.326  0.00  0.00    +0.214 A 
ATOM     10  C   UNL     1      46.487  20.767  19.005  0.00  0.00    -0.158 A 
ATOM     11  C   UNL     1      45.137  20.806  19.428  0.00  0.00    +0.427 A 
ATOM     12  C   UNL     1      44.638  19.660  20.205  0.00  0.00    -0.271 A 
ATOM     13  C   UNL     1      45.520  18.601  20.484  0.00  0.00    +0.196 A 
ATOM     14  C   UNL     1      45.071  17.512  21.215  0.00  0.00    -0.041 A 
ATOM     15  C   UNL     1      43.763  17.471  21.667  0.00  0.00    +0.235 A 
ATOM     18  C   UNL     1      42.884  18.517  21.394  0.00  0.00    -0.067 A 
ATOM     21  C   UNL     1      43.314  19.611  20.660  0.00  0.00    +0.196 A 
ATOM     24  O   UNL     1      44.415  21.752  19.156  0.00  0.00    -0.460 OA
ATOM     25  O   UNL     1      46.793  18.656  20.036  0.00  0.00    -0.216 OA
ENDROOT
BRANCH   9   8
ATOM      1  C   UNL     1      49.423  20.848  18.889  0.00  0.00    +0.108 A 
ATOM      2  C   UNL     1      50.735  20.822  18.473  0.00  0.00    -0.026 A 
ATOM      3  C   UNL     1      51.304  19.633  18.032  0.00  0.00    +0.187 A 
ATOM      6  C   UNL     1      50.551  18.463  18.012  0.00  0.00    -0.084 A 
ATOM      7  C   UNL     1      49.240  18.480  18.432  0.00  0.00    +0.103 A 
ATOM      8  C   UNL     1      48.665  19.673  18.877  0.00  0.00    -0.121 A 
BRANCH   3   4
ATOM      4  O   UNL     1      52.596  19.613  17.617  0.00  0.00    -0.504 OA
ATOM      5  H   UNL     1      53.275  18.822  17.969  0.00  0.00    +0.440 HD
ENDBRANCH   3   4
ENDBRANCH   9   8
BRANCH  15  16
ATOM     16  O   UNL     1      43.331  16.400  22.383  0.00  0.00    -0.491 OA
ATOM     17  H   UNL     1      43.910  16.048  23.250  0.00  0.00    +0.451 HD
ENDBRANCH  15  16
BRANCH  18  19
ATOM     19  O   UNL     1      41.601  18.464  21.845  0.00  0.00    -0.504 OA
ATOM     20  H   UNL     1      41.344  18.888  22.827  0.00  0.00    +0.425 HD
ENDBRANCH  18  19
BRANCH  21  22
ATOM     22  O   UNL     1      42.459  20.631  20.386  0.00  0.00    -0.456 OA
ATOM     23  H   UNL     1      41.382  20.511  20.575  0.00  0.00    +0.417 HD
ENDBRANCH  21  22
TORSDOF 5
ENDMDL
MODEL 5
REMARK VINA RESULT:      -5.8      4.672      7.619
REMARK  Name = ZINC05842416
REMARK  5 active torsions:
REMARK  status: ('A' for Active; 'I' for Inactive)
REMARK    1  A    between atoms: C3_3  and  O6_21
REMARK    2  A    between atoms: C6_6  and  C7_7
REMARK    3  A    between atoms: C13_15  and  O5_20
REMARK    4  A    between atoms: C14_16  and  O4_19
REMARK    5  A    between atoms: C15_17  and  O3_18
REMARK                            x       y       z     vdW  Elec       q    Type
REMARK                         _______ _______ _______ _____ _____    ______ ____
ROOT
ATOM      9  C   UNL     1      46.873  19.800  18.733  0.00  0.00    +0.214 A 
ATOM     10  C   UNL     1      46.980  18.488  18.389  0.00  0.00    -0.158 A 
ATOM     11  C   UNL     1      48.261  17.918  18.197  0.00  0.00    +0.427 A 
ATOM     12  C   UNL     1      49.427  18.797  18.381  0.00  0.00    -0.271 A 
ATOM     13  C   UNL     1      49.207  20.140  18.737  0.00  0.00    +0.196 A 
ATOM     14  C   UNL     1      50.291  20.985  18.917  0.00  0.00    -0.041 A 
ATOM     15  C   UNL     1      51.580  20.507  18.747  0.00  0.00    +0.235 A 
ATOM     18  C   UNL     1      51.804  19.178  18.395  0.00  0.00    -0.067 A 
ATOM     21  C   UNL     1      50.732  18.320  18.206  0.00  0.00    +0.196 A 
ATOM     24  O   UNL     1      48.393  16.745  17.887  0.00  0.00    -0.460 OA
ATOM     25  O   UNL     1      47.944  20.591  18.899  0.00  0.00    -0.216 OA
ENDROOT
BRANCH   9   8
ATOM      1  C   UNL     1      44.393  19.626  18.609  0.00  0.00    +0.108 A 
ATOM      2  C   UNL     1      43.140  20.165  18.800  0.00  0.00    -0.026 A 
ATOM      3  C   UNL     1      43.004  21.454  19.301  0.00  0.00    +0.187 A 
ATOM      6  C   UNL     1      44.132  22.204  19.616  0.00  0.00    -0.084 A 
ATOM      7  C   UNL     1      45.389  21.670  19.433  0.00  0.00    +0.103 A 
ATOM      8  C   UNL     1      45.529  20.374  18.931  0.00  0.00    -0.121 A 
BRANCH   3   4
ATOM      4  O   UNL     1      41.767  21.983  19.482  0.00  0.00    -0.504 OA
ATOM      5  H   UNL     1      40.875  21.347  19.375  0.00  0.00    +0.440 HD
ENDBRANCH   3   4
ENDBRANCH   9   8
BRANCH  15  16
ATOM     16  O   UNL     1      52.637  21.343  18.926  0.00  0.00    -0.491 OA
ATOM     17  H   UNL     1      53.331  21.538  18.094  0.00  0.00    +0.451 HD
ENDBRANCH  15  16
BRANCH  18  19
ATOM     19  O   UNL     1      53.076  18.722  18.231  0.00  0.00    -0.504 OA
ATOM     20  H   UNL     1      53.336  18.118  17.350  0.00  0.00    +0.425 HD
ENDBRANCH  18  19
BRANCH  21  22
ATOM     22  O   UNL     1      50.946  17.025  17.856  0.00  0.00    -0.456 OA
ATOM     23  H   UNL     1      50.872  16.721  16.801  0.00  0.00    +0.417 HD
ENDBRANCH  21  22
TORSDOF 5
ENDMDL
MODEL 6
REMARK VINA RESULT:      -5.6      5.319      8.309
REMARK  Name = ZINC05842416
REMARK  5 active torsions:
REMARK  status: ('A' for Active; 'I' for Inactive)
REMARK    1  A    between atoms: C3_3  and  O6_21
REMARK    2  A    between atoms: C6_6  and  C7_7
REMARK    3  A    between atoms: C13_15  and  O5_20
REMARK    4  A    between atoms: C14_16  and  O4_19
REMARK    5  A    between atoms: C15_17  and  O3_18
REMARK                            x       y       z     vdW  Elec       q    Type
REMARK                         _______ _______ _______ _____ _____    ______ ____
ROOT
ATOM      9  C   UNL     1      49.045  17.883  18.047  0.00  0.00    +0.214 A 
ATOM     10  C   UNL     1      48.560  18.111  19.298  0.00  0.00    -0.158 A 
ATOM     11  C   UNL     1      47.586  17.240  19.839  0.00  0.00    +0.427 A 
ATOM     12  C   UNL     1      47.142  16.115  18.999  0.00  0.00    -0.271 A 
ATOM     13  C   UNL     1      47.707  15.969  17.719  0.00  0.00    +0.196 A 
ATOM     14  C   UNL     1      47.304  14.917  16.911  0.00  0.00    -0.041 A 
ATOM     15  C   UNL     1      46.353  14.018  17.364  0.00  0.00    +0.235 A 
ATOM     18  C   UNL     1      45.790  14.157  18.631  0.00  0.00    -0.067 A 
ATOM     21  C   UNL     1      46.177  15.207  19.450  0.00  0.00    +0.196 A 
ATOM     24  O   UNL     1      47.129  17.415  20.957  0.00  0.00    -0.460 OA
ATOM     25  O   UNL     1      48.633  16.854  17.291  0.00  0.00    -0.216 OA
ENDROOT
BRANCH   9   8
ATOM      1  C   UNL     1      50.854  18.409  16.420  0.00  0.00    +0.108 A 
ATOM      2  C   UNL     1      51.799  19.273  15.912  0.00  0.00    -0.026 A 
ATOM      3  C   UNL     1      51.972  20.530  16.480  0.00  0.00    +0.187 A 
ATOM      6  C   UNL     1      51.189  20.923  17.560  0.00  0.00    -0.084 A 
ATOM      7  C   UNL     1      50.238  20.067  18.071  0.00  0.00    +0.103 A 
ATOM      8  C   UNL     1      50.061  18.803  17.502  0.00  0.00    -0.121 A 
BRANCH   3   4
ATOM      4  O   UNL     1      52.908  21.376  15.979  0.00  0.00    -0.504 OA
ATOM      5  H   UNL     1      53.015  21.497  14.891  0.00  0.00    +0.440 HD
ENDBRANCH   3   4
ENDBRANCH   9   8
BRANCH  15  16
ATOM     16  O   UNL     1      45.964  12.989  16.566  0.00  0.00    -0.491 OA
ATOM     17  H   UNL     1      45.377  12.159  16.985  0.00  0.00    +0.451 HD
ENDBRANCH  15  16
BRANCH  18  19
ATOM     19  O   UNL     1      44.857  13.266  19.064  0.00  0.00    -0.504 OA
ATOM     20  H   UNL     1      43.806  13.573  19.161  0.00  0.00    +0.425 HD
ENDBRANCH  18  19
BRANCH  21  22
ATOM     22  O   UNL     1      45.627  15.350  20.684  0.00  0.00    -0.456 OA
ATOM     23  H   UNL     1      44.771  14.726  20.981  0.00  0.00    +0.417 HD
ENDBRANCH  21  22
TORSDOF 5
ENDMDL
MODEL 7
REMARK VINA RESULT:      -5.5      2.671      7.464
REMARK  Name = ZINC05842416
REMARK  5 active torsions:
REMARK  status: ('A' for Active; 'I' for Inactive)
REMARK    1  A    between atoms: C3_3  and  O6_21
REMARK    2  A    between atoms: C6_6  and  C7_7
REMARK    3  A    between atoms: C13_15  and  O5_20
REMARK    4  A    between atoms: C14_16  and  O4_19
REMARK    5  A    between atoms: C15_17  and  O3_18
REMARK                            x       y       z     vdW  Elec       q    Type
REMARK                         _______ _______ _______ _____ _____    ______ ____
ROOT
ATOM      9  C   UNL     1      45.017  18.521  19.262  0.00  0.00    +0.214 A 
ATOM     10  C   UNL     1      44.657  17.728  20.308  0.00  0.00    -0.158 A 
ATOM     11  C   UNL     1      44.949  16.345  20.268  0.00  0.00    +0.427 A 
ATOM     12  C   UNL     1      45.637  15.832  19.072  0.00  0.00    -0.271 A 
ATOM     13  C   UNL     1      45.966  16.736  18.047  0.00  0.00    +0.196 A 
ATOM     14  C   UNL     1      46.614  16.276  16.911  0.00  0.00    -0.041 A 
ATOM     15  C   UNL     1      46.936  14.934  16.792  0.00  0.00    +0.235 A 
ATOM     18  C   UNL     1      46.614  14.033  17.805  0.00  0.00    -0.067 A 
ATOM     21  C   UNL     1      45.960  14.475  18.944  0.00  0.00    +0.196 A 
ATOM     24  O   UNL     1      44.640  15.605  21.188  0.00  0.00    -0.460 OA
ATOM     25  O   UNL     1      45.645  18.042  18.177  0.00  0.00    -0.216 OA
ENDROOT
BRANCH   9   8
ATOM      1  C   UNL     1      43.388  20.386  19.521  0.00  0.00    +0.108 A 
ATOM      2  C   UNL     1      43.103  21.732  19.582  0.00  0.00    -0.026 A 
ATOM      3  C   UNL     1      44.120  22.668  19.439  0.00  0.00    +0.187 A 
ATOM      6  C   UNL     1      45.431  22.250  19.237  0.00  0.00    -0.084 A 
ATOM      7  C   UNL     1      45.726  20.905  19.179  0.00  0.00    +0.103 A 
ATOM      8  C   UNL     1      44.706  19.961  19.324  0.00  0.00    -0.121 A 
BRANCH   3   4
ATOM      4  O   UNL     1      43.834  23.993  19.494  0.00  0.00    -0.504 OA
ATOM      5  H   UNL     1      43.758  24.579  18.566  0.00  0.00    +0.440 HD
ENDBRANCH   3   4
ENDBRANCH   9   8
BRANCH  15  16
ATOM     16  O   UNL     1      47.573  14.490  15.676  0.00  0.00    -0.491 OA
ATOM     17  H   UNL     1      48.103  15.202  15.026  0.00  0.00    +0.451 HD
ENDBRANCH  15  16
BRANCH  18  19
ATOM     19  O   UNL     1      46.936  12.717  17.674  0.00  0.00    -0.504 OA
ATOM     20  H   UNL     1      47.320  12.337  16.716  0.00  0.00    +0.425 HD
ENDBRANCH  18  19
BRANCH  21  22
ATOM     22  O   UNL     1      45.638  13.600  19.932  0.00  0.00    -0.456 OA
ATOM     23  H   UNL     1      45.061  13.942  20.804  0.00  0.00    +0.417 HD
ENDBRANCH  21  22
TORSDOF 5
ENDMDL
MODEL 8
REMARK VINA RESULT:      -5.5      3.701      5.601
REMARK  Name = ZINC05842416
REMARK  5 active torsions:
REMARK  status: ('A' for Active; 'I' for Inactive)
REMARK    1  A    between atoms: C3_3  and  O6_21
REMARK    2  A    between atoms: C6_6  and  C7_7
REMARK    3  A    between atoms: C13_15  and  O5_20
REMARK    4  A    between atoms: C14_16  and  O4_19
REMARK    5  A    between atoms: C15_17  and  O3_18
REMARK                            x       y       z     vdW  Elec       q    Type
REMARK                         _______ _______ _______ _____ _____    ______ ____
ROOT
ATOM      9  C   UNL     1      47.433  19.227  19.388  0.00  0.00    +0.214 A 
ATOM     10  C   UNL     1      47.221  18.131  20.166  0.00  0.00    -0.158 A 
ATOM     11  C   UNL     1      45.929  17.883  20.685  0.00  0.00    +0.427 A 
ATOM     12  C   UNL     1      44.867  18.846  20.348  0.00  0.00    -0.271 A 
ATOM     13  C   UNL     1      45.192  19.947  19.536  0.00  0.00    +0.196 A 
ATOM     14  C   UNL     1      44.208  20.866  19.206  0.00  0.00    -0.041 A 
ATOM     15  C   UNL     1      42.915  20.697  19.674  0.00  0.00    +0.235 A 
ATOM     18  C   UNL     1      42.588  19.609  20.479  0.00  0.00    -0.067 A 
ATOM     21  C   UNL     1      43.560  18.683  20.823  0.00  0.00    +0.196 A 
ATOM     24  O   UNL     1      45.703  16.910  21.387  0.00  0.00    -0.460 OA
ATOM     25  O   UNL     1      46.457  20.098  19.087  0.00  0.00    -0.216 OA
ENDROOT
BRANCH   9   8
ATOM      1  C   UNL     1      49.341  20.751  18.899  0.00  0.00    +0.108 A 
ATOM      2  C   UNL     1      50.607  20.968  18.404  0.00  0.00    -0.026 A 
ATOM      3  C   UNL     1      51.331  19.918  17.852  0.00  0.00    +0.187 A 
ATOM      6  C   UNL     1      50.782  18.642  17.801  0.00  0.00    -0.084 A 
ATOM      7  C   UNL     1      49.517  18.414  18.298  0.00  0.00    +0.103 A 
ATOM      8  C   UNL     1      48.787  19.467  18.855  0.00  0.00    -0.121 A 
BRANCH   3   4
ATOM      4  O   UNL     1      52.577  20.139  17.361  0.00  0.00    -0.504 OA
ATOM      5  H   UNL     1      53.458  19.773  17.909  0.00  0.00    +0.440 HD
ENDBRANCH   3   4
ENDBRANCH   9   8
BRANCH  15  16
ATOM     16  O   UNL     1      41.956  21.603  19.345  0.00  0.00    -0.491 OA
ATOM     17  H   UNL     1      42.072  22.657  19.638  0.00  0.00    +0.451 HD
ENDBRANCH  15  16
BRANCH  18  19
ATOM     19  O   UNL     1      41.313  19.455  20.932  0.00  0.00    -0.504 OA
ATOM     20  H   UNL     1      40.748  18.544  20.686  0.00  0.00    +0.425 HD
ENDBRANCH  18  19
BRANCH  21  22
ATOM     22  O   UNL     1      43.247  17.623  21.613  0.00  0.00    -0.456 OA
ATOM     23  H   UNL     1      42.653  17.774  22.527  0.00  0.00    +0.417 HD
ENDBRANCH  21  22
TORSDOF 5
ENDMDL
MODEL 9
REMARK VINA RESULT:      -5.5      4.524      7.971
REMARK  Name = ZINC05842416
REMARK  5 active torsions:
REMARK  status: ('A' for Active; 'I' for Inactive)
REMARK    1  A    between atoms: C3_3  and  O6_21
REMARK    2  A    between atoms: C6_6  and  C7_7
REMARK    3  A    between atoms: C13_15  and  O5_20
REMARK    4  A    between atoms: C14_16  and  O4_19
REMARK    5  A    between atoms: C15_17  and  O3_18
REMARK                            x       y       z     vdW  Elec       q    Type
REMARK                         _______ _______ _______ _____ _____    ______ ____
ROOT
ATOM      9  C   UNL     1      46.484  19.040  18.377  0.00  0.00    +0.214 A 
ATOM     10  C   UNL     1      45.984  17.962  17.714  0.00  0.00    -0.158 A 
ATOM     11  C   UNL     1      46.861  16.936  17.290  0.00  0.00    +0.427 A 
ATOM     12  C   UNL     1      48.292  17.098  17.596  0.00  0.00    -0.271 A 
ATOM     13  C   UNL     1      48.705  18.251  18.287  0.00  0.00    +0.196 A 
ATOM     14  C   UNL     1      50.047  18.424  18.586  0.00  0.00    -0.041 A 
ATOM     15  C   UNL     1      50.972  17.466  18.206  0.00  0.00    +0.235 A 
ATOM     18  C   UNL     1      50.569  16.322  17.521  0.00  0.00    -0.067 A 
ATOM     21  C   UNL     1      49.232  16.135  17.209  0.00  0.00    +0.196 A 
ATOM     24  O   UNL     1      46.447  15.956  16.692  0.00  0.00    -0.460 OA
ATOM     25  O   UNL     1      47.790  19.177  18.651  0.00  0.00    -0.216 OA
ENDROOT
BRANCH   9   8
ATOM      1  C   UNL     1      44.182  19.838  18.890  0.00  0.00    +0.108 A 
ATOM      2  C   UNL     1      43.318  20.828  19.301  0.00  0.00    -0.026 A 
ATOM      3  C   UNL     1      43.805  22.088  19.628  0.00  0.00    +0.187 A 
ATOM      6  C   UNL     1      45.168  22.353  19.545  0.00  0.00    -0.084 A 
ATOM      7  C   UNL     1      46.040  21.367  19.140  0.00  0.00    +0.103 A 
ATOM      8  C   UNL     1      45.553  20.099  18.812  0.00  0.00    -0.121 A 
BRANCH   3   4
ATOM      4  O   UNL     1      42.949  23.063  20.027  0.00  0.00    -0.504 OA
ATOM      5  H   UNL     1      42.708  23.181  21.094  0.00  0.00    +0.440 HD
ENDBRANCH   3   4
ENDBRANCH   9   8
BRANCH  15  16
ATOM     16  O   UNL     1      52.286  17.643  18.504  0.00  0.00    -0.491 OA
ATOM     17  H   UNL     1      52.593  17.848  19.540  0.00  0.00    +0.451 HD
ENDBRANCH  15  16
BRANCH  18  19
ATOM     19  O   UNL     1      51.489  15.388  17.154  0.00  0.00    -0.504 OA
ATOM     20  H   UNL     1      51.255  14.317  17.248  0.00  0.00    +0.425 HD
ENDBRANCH  18  19
BRANCH  21  22
ATOM     22  O   UNL     1      48.835  15.023  16.536  0.00  0.00    -0.456 OA
ATOM     23  H   UNL     1      48.504  14.133  17.091  0.00  0.00    +0.417 HD
ENDBRANCH  21  22
TORSDOF 5
ENDMDL
