MODEL 1
REMARK VINA RESULT:      -6.9      0.000      0.000
REMARK  Name = ZINC95486206
REMARK  5 active torsions:
REMARK  status: ('A' for Active; 'I' for Inactive)
REMARK    1  A    between atoms: C1_1  and  C2_2
REMARK    2  A    between atoms: C4_5  and  O3_26
REMARK    3  A    between atoms: C7_8  and  C11_13
REMARK    4  A    between atoms: C14_16  and  O2_24
REMARK    5  A    between atoms: O2_24  and  C21_25
REMARK                            x       y       z     vdW  Elec       q    Type
REMARK                         _______ _______ _______ _____ _____    ______ ____
ROOT
ATOM      1  C   UNL     1      45.185  23.612  20.596  0.00  0.00    +0.102 C 
ATOM      2  C   UNL     1      45.200  22.097  20.382  0.00  0.00    +0.230 C 
ATOM      3  C   UNL     1      46.589  21.573  20.639  0.00  0.00    -0.155 A 
ATOM      4  C   UNL     1      47.305  22.088  21.718  0.00  0.00    +0.141 A 
ATOM      7  C   UNL     1      48.584  21.634  21.994  0.00  0.00    +0.017 A 
ATOM      8  C   UNL     1      49.159  20.664  21.197  0.00  0.00    +0.078 A 
ATOM      9  C   UNL     1      48.447  20.147  20.118  0.00  0.00    -0.023 A 
ATOM     23  C   UNL     1      47.157  20.609  19.841  0.00  0.00    -0.063 A 
ATOM     24  C   UNL     1      46.422  20.031  18.659  0.00  0.00    +0.123 C 
ATOM     25  C   UNL     1      44.932  20.354  18.768  0.00  0.00    +0.272 C 
ATOM     26  N   UNL     1      44.783  21.798  19.010  0.00  0.00    -0.505 N 
ATOM     27  H   UNL     1      45.361  22.310  18.361  0.00  0.00    +0.429 HD
ATOM     28  H   UNL     1      43.817  22.063  18.885  0.00  0.00    +0.434 HD
ENDROOT
BRANCH   9  10
ATOM     10  C   UNL     1      49.062  19.104  19.260  0.00  0.00    -0.130 A 
ATOM     11  C   UNL     1      48.762  17.758  19.480  0.00  0.00    +0.102 A 
ATOM     12  C   UNL     1      49.325  16.779  18.691  0.00  0.00    -0.085 A 
ATOM     13  C   UNL     1      50.200  17.127  17.671  0.00  0.00    +0.200 A 
ATOM     16  C   UNL     1      50.510  18.477  17.446  0.00  0.00    -0.201 A 
ATOM     17  C   UNL     1      51.447  18.841  16.371  0.00  0.00    +0.393 C 
ATOM     18  O   UNL     1      52.116  17.999  15.810  0.00  0.00    -0.427 OA
ATOM     19  C   UNL     1      51.534  20.304  15.980  0.00  0.00    +0.037 C 
ATOM     20  C   UNL     1      51.550  21.120  17.279  0.00  0.00    +0.041 C 
ATOM     21  C   UNL     1      50.224  20.929  18.012  0.00  0.00    +0.086 C 
ATOM     22  C   UNL     1      49.932  19.471  18.237  0.00  0.00    +0.028 A 
BRANCH  13  14
ATOM     14  O   UNL     1      50.754  16.164  16.894  0.00  0.00    -0.283 OA
ATOM     15  C   UNL     1      50.122  14.882  16.899  0.00  0.00    +0.251 C 
ENDBRANCH  13  14
ENDBRANCH   9  10
BRANCH   4   5
ATOM      5  O   UNL     1      46.743  23.043  22.505  0.00  0.00    -0.490 OA
ATOM      6  H   UNL     1      47.049  23.026  23.422  0.00  0.00    +0.400 HD
ENDBRANCH   4   5
TORSDOF 3
ENDMDL
MODEL 2
REMARK VINA RESULT:      -6.8      3.563      5.077
REMARK  Name = ZINC95486206
REMARK  5 active torsions:
REMARK  status: ('A' for Active; 'I' for Inactive)
REMARK    1  A    between atoms: C1_1  and  C2_2
REMARK    2  A    between atoms: C4_5  and  O3_26
REMARK    3  A    between atoms: C7_8  and  C11_13
REMARK    4  A    between atoms: C14_16  and  O2_24
REMARK    5  A    between atoms: O2_24  and  C21_25
REMARK                            x       y       z     vdW  Elec       q    Type
REMARK                         _______ _______ _______ _____ _____    ______ ____
ROOT
ATOM      1  C   UNL     1      43.068  24.155  19.074  0.00  0.00    +0.102 C 
ATOM      2  C   UNL     1      42.786  22.718  19.521  0.00  0.00    +0.230 C 
ATOM      3  C   UNL     1      44.092  21.998  19.730  0.00  0.00    -0.155 A 
ATOM      4  C   UNL     1      45.137  22.682  20.349  0.00  0.00    +0.141 A 
ATOM      7  C   UNL     1      46.356  22.059  20.564  0.00  0.00    +0.017 A 
ATOM      8  C   UNL     1      46.541  20.751  20.164  0.00  0.00    +0.078 A 
ATOM      9  C   UNL     1      45.500  20.064  19.545  0.00  0.00    -0.023 A 
ATOM     23  C   UNL     1      44.273  20.696  19.328  0.00  0.00    -0.063 A 
ATOM     24  C   UNL     1      43.173  19.923  18.647  0.00  0.00    +0.123 C 
ATOM     25  C   UNL     1      41.834  20.627  18.866  0.00  0.00    +0.272 C 
ATOM     26  N   UNL     1      41.984  22.043  18.498  0.00  0.00    -0.505 N 
ATOM     27  H   UNL     1      42.447  22.112  17.605  0.00  0.00    +0.429 HD
ATOM     28  H   UNL     1      41.074  22.475  18.443  0.00  0.00    +0.434 HD
ENDROOT
BRANCH   9  10
ATOM     10  C   UNL     1      45.696  18.657  19.115  0.00  0.00    -0.130 A 
ATOM     11  C   UNL     1      46.243  18.384  17.860  0.00  0.00    +0.102 A 
ATOM     12  C   UNL     1      46.431  17.082  17.447  0.00  0.00    -0.085 A 
ATOM     13  C   UNL     1      46.072  16.032  18.281  0.00  0.00    +0.200 A 
ATOM     16  C   UNL     1      45.518  16.298  19.543  0.00  0.00    -0.201 A 
ATOM     17  C   UNL     1      45.128  15.181  20.419  0.00  0.00    +0.393 C 
ATOM     18  O   UNL     1      45.081  14.043  20.002  0.00  0.00    -0.427 OA
ATOM     19  C   UNL     1      44.805  15.503  21.866  0.00  0.00    +0.037 C 
ATOM     20  C   UNL     1      43.945  16.773  21.866  0.00  0.00    +0.041 C 
ATOM     21  C   UNL     1      44.766  17.939  21.319  0.00  0.00    +0.086 C 
ATOM     22  C   UNL     1      45.338  17.616  19.966  0.00  0.00    +0.028 A 
BRANCH  13  14
ATOM     14  O   UNL     1      46.257  14.751  17.876  0.00  0.00    -0.283 OA
ATOM     15  C   UNL     1      46.890  14.555  16.611  0.00  0.00    +0.251 C 
ENDBRANCH  13  14
ENDBRANCH   9  10
BRANCH   4   5
ATOM      5  O   UNL     1      44.960  23.970  20.744  0.00  0.00    -0.490 OA
ATOM      6  H   UNL     1      44.259  24.435  20.267  0.00  0.00    +0.400 HD
ENDBRANCH   4   5
TORSDOF 3
ENDMDL
MODEL 3
REMARK VINA RESULT:      -6.6      3.376      4.626
REMARK  Name = ZINC95486206
REMARK  5 active torsions:
REMARK  status: ('A' for Active; 'I' for Inactive)
REMARK    1  A    between atoms: C1_1  and  C2_2
REMARK    2  A    between atoms: C4_5  and  O3_26
REMARK    3  A    between atoms: C7_8  and  C11_13
REMARK    4  A    between atoms: C14_16  and  O2_24
REMARK    5  A    between atoms: O2_24  and  C21_25
REMARK                            x       y       z     vdW  Elec       q    Type
REMARK                         _______ _______ _______ _____ _____    ______ ____
ROOT
ATOM      1  C   UNL     1      43.337  24.150  18.752  0.00  0.00    +0.102 C 
ATOM      2  C   UNL     1      42.806  22.921  19.496  0.00  0.00    +0.230 C 
ATOM      3  C   UNL     1      43.968  22.103  19.995  0.00  0.00    -0.155 A 
ATOM      4  C   UNL     1      45.068  22.769  20.533  0.00  0.00    +0.141 A 
ATOM      7  C   UNL     1      46.158  22.056  21.006  0.00  0.00    +0.017 A 
ATOM      8  C   UNL     1      46.160  20.677  20.947  0.00  0.00    +0.078 A 
ATOM      9  C   UNL     1      45.063  20.008  20.409  0.00  0.00    -0.023 A 
ATOM     23  C   UNL     1      43.966  20.730  19.931  0.00  0.00    -0.063 A 
ATOM     24  C   UNL     1      42.801  19.971  19.348  0.00  0.00    +0.123 C 
ATOM     25  C   UNL     1      41.579  20.884  19.264  0.00  0.00    +0.272 C 
ATOM     26  N   UNL     1      41.971  22.131  18.588  0.00  0.00    -0.505 N 
ATOM     27  H   UNL     1      42.493  21.912  17.753  0.00  0.00    +0.429 HD
ATOM     28  H   UNL     1      41.145  22.657  18.344  0.00  0.00    +0.434 HD
ENDROOT
BRANCH   9  10
ATOM     10  C   UNL     1      45.061  18.526  20.345  0.00  0.00    -0.130 A 
ATOM     11  C   UNL     1      44.499  17.786  21.386  0.00  0.00    +0.102 A 
ATOM     12  C   UNL     1      44.490  16.409  21.340  0.00  0.00    -0.085 A 
ATOM     13  C   UNL     1      45.047  15.747  20.253  0.00  0.00    +0.200 A 
ATOM     16  C   UNL     1      45.618  16.484  19.204  0.00  0.00    -0.201 A 
ATOM     17  C   UNL     1      46.216  15.779  18.059  0.00  0.00    +0.393 C 
ATOM     18  O   UNL     1      46.414  14.583  18.092  0.00  0.00    -0.427 OA
ATOM     19  C   UNL     1      46.561  16.599  16.830  0.00  0.00    +0.037 C 
ATOM     20  C   UNL     1      47.216  17.896  17.321  0.00  0.00    +0.041 C 
ATOM     21  C   UNL     1      46.201  18.701  18.129  0.00  0.00    +0.086 C 
ATOM     22  C   UNL     1      45.617  17.879  19.245  0.00  0.00    +0.028 A 
BRANCH  13  14
ATOM     14  O   UNL     1      45.038  14.392  20.206  0.00  0.00    -0.283 OA
ATOM     15  C   UNL     1      45.408  13.699  21.399  0.00  0.00    +0.251 C 
ENDBRANCH  13  14
ENDBRANCH   9  10
BRANCH   4   5
ATOM      5  O   UNL     1      45.071  24.126  20.594  0.00  0.00    -0.490 OA
ATOM      6  H   UNL     1      44.487  24.550  19.951  0.00  0.00    +0.400 HD
ENDBRANCH   4   5
TORSDOF 3
ENDMDL
MODEL 4
REMARK VINA RESULT:      -6.3      4.511      7.836
REMARK  Name = ZINC95486206
REMARK  5 active torsions:
REMARK  status: ('A' for Active; 'I' for Inactive)
REMARK    1  A    between atoms: C1_1  and  C2_2
REMARK    2  A    between atoms: C4_5  and  O3_26
REMARK    3  A    between atoms: C7_8  and  C11_13
REMARK    4  A    between atoms: C14_16  and  O2_24
REMARK    5  A    between atoms: O2_24  and  C21_25
REMARK                            x       y       z     vdW  Elec       q    Type
REMARK                         _______ _______ _______ _____ _____    ______ ____
ROOT
ATOM      1  C   UNL     1      45.084  13.312  19.457  0.00  0.00    +0.102 C 
ATOM      2  C   UNL     1      45.965  14.561  19.532  0.00  0.00    +0.230 C 
ATOM      3  C   UNL     1      45.323  15.567  20.451  0.00  0.00    -0.155 A 
ATOM      4  C   UNL     1      44.735  15.110  21.629  0.00  0.00    +0.141 A 
ATOM      7  C   UNL     1      44.135  16.000  22.505  0.00  0.00    +0.017 A 
ATOM      8  C   UNL     1      44.117  17.349  22.215  0.00  0.00    +0.078 A 
ATOM      9  C   UNL     1      44.703  17.810  21.039  0.00  0.00    -0.023 A 
ATOM     23  C   UNL     1      45.306  16.909  20.156  0.00  0.00    -0.063 A 
ATOM     24  C   UNL     1      45.923  17.444  18.889  0.00  0.00    +0.123 C 
ATOM     25  C   UNL     1      46.855  16.395  18.283  0.00  0.00    +0.272 C 
ATOM     26  N   UNL     1      46.125  15.121  18.187  0.00  0.00    -0.505 N 
ATOM     27  H   UNL     1      45.217  15.282  17.778  0.00  0.00    +0.429 HD
ATOM     28  H   UNL     1      46.646  14.476  17.613  0.00  0.00    +0.434 HD
ENDROOT
BRANCH   9  10
ATOM     10  C   UNL     1      44.687  19.259  20.724  0.00  0.00    -0.130 A 
ATOM     11  C   UNL     1      45.792  20.052  21.041  0.00  0.00    +0.102 A 
ATOM     12  C   UNL     1      45.791  21.400  20.754  0.00  0.00    -0.085 A 
ATOM     13  C   UNL     1      44.684  21.979  20.149  0.00  0.00    +0.200 A 
ATOM     16  C   UNL     1      43.568  21.190  19.830  0.00  0.00    -0.201 A 
ATOM     17  C   UNL     1      42.392  21.811  19.199  0.00  0.00    +0.393 C 
ATOM     18  O   UNL     1      42.278  23.017  19.133  0.00  0.00    -0.427 OA
ATOM     19  C   UNL     1      41.337  20.889  18.618  0.00  0.00    +0.037 C 
ATOM     20  C   UNL     1      41.118  19.757  19.631  0.00  0.00    +0.041 C 
ATOM     21  C   UNL     1      42.402  18.943  19.765  0.00  0.00    +0.086 C 
ATOM     22  C   UNL     1      43.572  19.823  20.110  0.00  0.00    +0.028 A 
BRANCH  13  14
ATOM     14  O   UNL     1      44.682  23.305  19.866  0.00  0.00    -0.283 OA
ATOM     15  C   UNL     1      45.558  24.134  20.632  0.00  0.00    +0.251 C 
ENDBRANCH  13  14
ENDBRANCH   9  10
BRANCH   4   5
ATOM      5  O   UNL     1      44.750  13.783  21.920  0.00  0.00    -0.490 OA
ATOM      6  H   UNL     1      44.961  13.585  22.842  0.00  0.00    +0.400 HD
ENDBRANCH   4   5
TORSDOF 3
ENDMDL
MODEL 5
REMARK VINA RESULT:      -6.2      3.046      4.230
REMARK  Name = ZINC95486206
REMARK  5 active torsions:
REMARK  status: ('A' for Active; 'I' for Inactive)
REMARK    1  A    between atoms: C1_1  and  C2_2
REMARK    2  A    between atoms: C4_5  and  O3_26
REMARK    3  A    between atoms: C7_8  and  C11_13
REMARK    4  A    between atoms: C14_16  and  O2_24
REMARK    5  A    between atoms: O2_24  and  C21_25
REMARK                            x       y       z     vdW  Elec       q    Type
REMARK                         _______ _______ _______ _____ _____    ______ ____
ROOT
ATOM      1  C   UNL     1      40.901  18.191  21.594  0.00  0.00    +0.102 C 
ATOM      2  C   UNL     1      42.407  18.316  21.841  0.00  0.00    +0.230 C 
ATOM      3  C   UNL     1      43.076  18.821  20.590  0.00  0.00    -0.155 A 
ATOM      4  C   UNL     1      42.447  19.829  19.861  0.00  0.00    +0.141 A 
ATOM      7  C   UNL     1      43.027  20.327  18.705  0.00  0.00    +0.017 A 
ATOM      8  C   UNL     1      44.236  19.824  18.268  0.00  0.00    +0.078 A 
ATOM      9  C   UNL     1      44.866  18.816  18.992  0.00  0.00    -0.023 A 
ATOM     23  C   UNL     1      44.278  18.315  20.157  0.00  0.00    -0.063 A 
ATOM     24  C   UNL     1      44.987  17.219  20.910  0.00  0.00    +0.123 C 
ATOM     25  C   UNL     1      44.409  17.102  22.320  0.00  0.00    +0.272 C 
ATOM     26  N   UNL     1      42.944  17.006  22.219  0.00  0.00    -0.505 N 
ATOM     27  H   UNL     1      42.698  16.324  21.518  0.00  0.00    +0.429 HD
ATOM     28  H   UNL     1      42.562  16.729  23.111  0.00  0.00    +0.434 HD
ENDROOT
BRANCH   9  10
ATOM     10  C   UNL     1      46.166  18.273  18.526  0.00  0.00    -0.130 A 
ATOM     11  C   UNL     1      46.207  17.052  17.850  0.00  0.00    +0.102 A 
ATOM     12  C   UNL     1      47.407  16.536  17.411  0.00  0.00    -0.085 A 
ATOM     13  C   UNL     1      48.587  17.230  17.642  0.00  0.00    +0.200 A 
ATOM     16  C   UNL     1      48.555  18.457  18.324  0.00  0.00    -0.201 A 
ATOM     17  C   UNL     1      49.810  19.184  18.578  0.00  0.00    +0.393 C 
ATOM     18  O   UNL     1      50.888  18.657  18.397  0.00  0.00    -0.427 OA
ATOM     19  C   UNL     1      49.706  20.619  19.057  0.00  0.00    +0.037 C 
ATOM     20  C   UNL     1      48.601  20.662  20.121  0.00  0.00    +0.041 C 
ATOM     21  C   UNL     1      47.264  20.306  19.476  0.00  0.00    +0.086 C 
ATOM     22  C   UNL     1      47.339  18.985  18.760  0.00  0.00    +0.028 A 
BRANCH  13  14
ATOM     14  O   UNL     1      49.768  16.724  17.210  0.00  0.00    -0.283 OA
ATOM     15  C   UNL     1      49.880  15.301  17.147  0.00  0.00    +0.251 C 
ENDBRANCH  13  14
ENDBRANCH   9  10
BRANCH   4   5
ATOM      5  O   UNL     1      41.258  20.328  20.287  0.00  0.00    -0.490 OA
ATOM      6  H   UNL     1      40.932  21.073  19.764  0.00  0.00    +0.400 HD
ENDBRANCH   4   5
TORSDOF 3
ENDMDL
MODEL 6
REMARK VINA RESULT:      -6.1      3.630      5.617
REMARK  Name = ZINC95486206
REMARK  5 active torsions:
REMARK  status: ('A' for Active; 'I' for Inactive)
REMARK    1  A    between atoms: C1_1  and  C2_2
REMARK    2  A    between atoms: C4_5  and  O3_26
REMARK    3  A    between atoms: C7_8  and  C11_13
REMARK    4  A    between atoms: C14_16  and  O2_24
REMARK    5  A    between atoms: O2_24  and  C21_25
REMARK                            x       y       z     vdW  Elec       q    Type
REMARK                         _______ _______ _______ _____ _____    ______ ____
ROOT
ATOM      1  C   UNL     1      45.009  23.442  21.745  0.00  0.00    +0.102 C 
ATOM      2  C   UNL     1      45.843  22.618  20.761  0.00  0.00    +0.230 C 
ATOM      3  C   UNL     1      44.980  21.538  20.162  0.00  0.00    -0.155 A 
ATOM      4  C   UNL     1      43.671  21.855  19.805  0.00  0.00    +0.141 A 
ATOM      7  C   UNL     1      42.842  20.895  19.249  0.00  0.00    +0.017 A 
ATOM      8  C   UNL     1      43.311  19.613  19.045  0.00  0.00    +0.078 A 
ATOM      9  C   UNL     1      44.618  19.291  19.402  0.00  0.00    -0.023 A 
ATOM     23  C   UNL     1      45.451  20.262  19.964  0.00  0.00    -0.063 A 
ATOM     24  C   UNL     1      46.857  19.874  20.345  0.00  0.00    +0.123 C 
ATOM     25  C   UNL     1      47.702  21.131  20.553  0.00  0.00    +0.272 C 
ATOM     26  N   UNL     1      46.984  22.032  21.468  0.00  0.00    -0.505 N 
ATOM     27  H   UNL     1      46.656  21.510  22.267  0.00  0.00    +0.429 HD
ATOM     28  H   UNL     1      47.605  22.766  21.775  0.00  0.00    +0.434 HD
ENDROOT
BRANCH   9  10
ATOM     10  C   UNL     1      45.126  17.914  19.183  0.00  0.00    -0.130 A 
ATOM     11  C   UNL     1      45.759  17.590  17.982  0.00  0.00    +0.102 A 
ATOM     12  C   UNL     1      46.235  16.315  17.765  0.00  0.00    -0.085 A 
ATOM     13  C   UNL     1      46.084  15.342  18.744  0.00  0.00    +0.200 A 
ATOM     16  C   UNL     1      45.445  15.659  19.953  0.00  0.00    -0.201 A 
ATOM     17  C   UNL     1      45.277  14.621  20.983  0.00  0.00    +0.393 C 
ATOM     18  O   UNL     1      45.489  13.453  20.738  0.00  0.00    -0.427 OA
ATOM     19  C   UNL     1      44.844  15.069  22.367  0.00  0.00    +0.037 C 
ATOM     20  C   UNL     1      43.732  16.109  22.180  0.00  0.00    +0.041 C 
ATOM     21  C   UNL     1      44.301  17.334  21.468  0.00  0.00    +0.086 C 
ATOM     22  C   UNL     1      44.972  16.953  20.178  0.00  0.00    +0.028 A 
BRANCH  13  14
ATOM     14  O   UNL     1      46.553  14.088  18.532  0.00  0.00    -0.283 OA
ATOM     15  C   UNL     1      46.580  13.624  17.181  0.00  0.00    +0.251 C 
ENDBRANCH  13  14
ENDBRANCH   9  10
BRANCH   4   5
ATOM      5  O   UNL     1      43.204  23.116  20.003  0.00  0.00    -0.490 OA
ATOM      6  H   UNL     1      42.280  23.154  20.283  0.00  0.00    +0.400 HD
ENDBRANCH   4   5
TORSDOF 3
ENDMDL
MODEL 7
REMARK VINA RESULT:      -6.1      3.145      6.974
REMARK  Name = ZINC95486206
REMARK  5 active torsions:
REMARK  status: ('A' for Active; 'I' for Inactive)
REMARK    1  A    between atoms: C1_1  and  C2_2
REMARK    2  A    between atoms: C4_5  and  O3_26
REMARK    3  A    between atoms: C7_8  and  C11_13
REMARK    4  A    between atoms: C14_16  and  O2_24
REMARK    5  A    between atoms: O2_24  and  C21_25
REMARK                            x       y       z     vdW  Elec       q    Type
REMARK                         _______ _______ _______ _____ _____    ______ ____
ROOT
ATOM      1  C   UNL     1      51.782  20.219  17.674  0.00  0.00    +0.102 C 
ATOM      2  C   UNL     1      50.904  19.828  18.865  0.00  0.00    +0.230 C 
ATOM      3  C   UNL     1      49.742  19.004  18.376  0.00  0.00    -0.155 A 
ATOM      4  C   UNL     1      49.975  18.044  17.392  0.00  0.00    +0.141 A 
ATOM      7  C   UNL     1      48.937  17.261  16.914  0.00  0.00    +0.017 A 
ATOM      8  C   UNL     1      47.661  17.428  17.412  0.00  0.00    +0.078 A 
ATOM      9  C   UNL     1      47.423  18.387  18.394  0.00  0.00    -0.023 A 
ATOM     23  C   UNL     1      48.473  19.176  18.873  0.00  0.00    -0.063 A 
ATOM     24  C   UNL     1      48.175  20.208  19.931  0.00  0.00    +0.123 C 
ATOM     25  C   UNL     1      49.476  20.664  20.590  0.00  0.00    +0.272 C 
ATOM     26  N   UNL     1      50.429  21.042  19.534  0.00  0.00    -0.505 N 
ATOM     27  H   UNL     1      49.969  21.640  18.864  0.00  0.00    +0.429 HD
ATOM     28  H   UNL     1      51.211  21.530  19.944  0.00  0.00    +0.434 HD
ENDROOT
BRANCH   9  10
ATOM     10  C   UNL     1      46.053  18.568  18.933  0.00  0.00    -0.130 A 
ATOM     11  C   UNL     1      45.223  19.558  18.402  0.00  0.00    +0.102 A 
ATOM     12  C   UNL     1      43.948  19.738  18.892  0.00  0.00    -0.085 A 
ATOM     13  C   UNL     1      43.481  18.935  19.924  0.00  0.00    +0.200 A 
ATOM     16  C   UNL     1      44.310  17.940  20.466  0.00  0.00    -0.201 A 
ATOM     17  C   UNL     1      43.815  17.098  21.567  0.00  0.00    +0.393 C 
ATOM     18  O   UNL     1      42.791  17.373  22.156  0.00  0.00    -0.427 OA
ATOM     19  C   UNL     1      44.623  15.866  21.927  0.00  0.00    +0.037 C 
ATOM     20  C   UNL     1      46.102  16.276  21.920  0.00  0.00    +0.041 C 
ATOM     21  C   UNL     1      46.507  16.681  20.505  0.00  0.00    +0.086 C 
ATOM     22  C   UNL     1      45.598  17.750  19.962  0.00  0.00    +0.028 A 
BRANCH  13  14
ATOM     14  O   UNL     1      42.226  19.111  20.406  0.00  0.00    -0.283 OA
ATOM     15  C   UNL     1      41.308  19.828  19.579  0.00  0.00    +0.251 C 
ENDBRANCH  13  14
ENDBRANCH   9  10
BRANCH   4   5
ATOM      5  O   UNL     1      51.230  17.876  16.899  0.00  0.00    -0.490 OA
ATOM      6  H   UNL     1      51.274  17.854  15.933  0.00  0.00    +0.400 HD
ENDBRANCH   4   5
TORSDOF 3
ENDMDL
MODEL 8
REMARK VINA RESULT:      -6.0      3.402      4.968
REMARK  Name = ZINC95486206
REMARK  5 active torsions:
REMARK  status: ('A' for Active; 'I' for Inactive)
REMARK    1  A    between atoms: C1_1  and  C2_2
REMARK    2  A    between atoms: C4_5  and  O3_26
REMARK    3  A    between atoms: C7_8  and  C11_13
REMARK    4  A    between atoms: C14_16  and  O2_24
REMARK    5  A    between atoms: O2_24  and  C21_25
REMARK                            x       y       z     vdW  Elec       q    Type
REMARK                         _______ _______ _______ _____ _____    ______ ____
ROOT
ATOM      1  C   UNL     1      45.083  23.642  21.382  0.00  0.00    +0.102 C 
ATOM      2  C   UNL     1      45.840  22.555  20.615  0.00  0.00    +0.230 C 
ATOM      3  C   UNL     1      44.888  21.441  20.262  0.00  0.00    -0.155 A 
ATOM      4  C   UNL     1      43.606  21.775  19.830  0.00  0.00    +0.141 A 
ATOM      7  C   UNL     1      42.698  20.783  19.493  0.00  0.00    +0.017 A 
ATOM      8  C   UNL     1      43.062  19.455  19.584  0.00  0.00    +0.078 A 
ATOM      9  C   UNL     1      44.342  19.118  20.017  0.00  0.00    -0.023 A 
ATOM     23  C   UNL     1      45.254  20.120  20.358  0.00  0.00    -0.063 A 
ATOM     24  C   UNL     1      46.628  19.716  20.830  0.00  0.00    +0.123 C 
ATOM     25  C   UNL     1      47.572  20.915  20.761  0.00  0.00    +0.272 C 
ATOM     26  N   UNL     1      46.936  22.052  21.446  0.00  0.00    -0.505 N 
ATOM     27  H   UNL     1      46.574  21.749  22.337  0.00  0.00    +0.429 HD
ATOM     28  H   UNL     1      47.616  22.784  21.587  0.00  0.00    +0.434 HD
ENDROOT
BRANCH   9  10
ATOM     10  C   UNL     1      44.736  17.691  20.116  0.00  0.00    -0.130 A 
ATOM     11  C   UNL     1      44.383  16.949  21.245  0.00  0.00    +0.102 A 
ATOM     12  C   UNL     1      44.742  15.623  21.350  0.00  0.00    -0.085 A 
ATOM     13  C   UNL     1      45.463  15.016  20.330  0.00  0.00    +0.200 A 
ATOM     16  C   UNL     1      45.825  15.756  19.194  0.00  0.00    -0.201 A 
ATOM     17  C   UNL     1      46.600  15.112  18.120  0.00  0.00    +0.393 C 
ATOM     18  O   UNL     1      47.109  14.023  18.280  0.00  0.00    -0.427 OA
ATOM     19  C   UNL     1      46.723  15.852  16.802  0.00  0.00    +0.037 C 
ATOM     20  C   UNL     1      47.005  17.323  17.133  0.00  0.00    +0.041 C 
ATOM     21  C   UNL     1      45.805  17.914  17.869  0.00  0.00    +0.086 C 
ATOM     22  C   UNL     1      45.452  17.096  19.081  0.00  0.00    +0.028 A 
BRANCH  13  14
ATOM     14  O   UNL     1      45.816  13.711  20.432  0.00  0.00    -0.283 OA
ATOM     15  C   UNL     1      46.364  13.283  21.680  0.00  0.00    +0.251 C 
ENDBRANCH  13  14
ENDBRANCH   9  10
BRANCH   4   5
ATOM      5  O   UNL     1      43.244  23.081  19.738  0.00  0.00    -0.490 OA
ATOM      6  H   UNL     1      43.484  23.498  18.900  0.00  0.00    +0.400 HD
ENDBRANCH   4   5
TORSDOF 3
ENDMDL
MODEL 9
REMARK VINA RESULT:      -5.8      1.901      3.501
REMARK  Name = ZINC95486206
REMARK  5 active torsions:
REMARK  status: ('A' for Active; 'I' for Inactive)
REMARK    1  A    between atoms: C1_1  and  C2_2
REMARK    2  A    between atoms: C4_5  and  O3_26
REMARK    3  A    between atoms: C7_8  and  C11_13
REMARK    4  A    between atoms: C14_16  and  O2_24
REMARK    5  A    between atoms: O2_24  and  C21_25
REMARK                            x       y       z     vdW  Elec       q    Type
REMARK                         _______ _______ _______ _____ _____    ______ ____
ROOT
ATOM      1  C   UNL     1      42.775  22.853  19.507  0.00  0.00    +0.102 C 
ATOM      2  C   UNL     1      43.429  21.488  19.735  0.00  0.00    +0.230 C 
ATOM      3  C   UNL     1      44.818  21.688  20.282  0.00  0.00    -0.155 A 
ATOM      4  C   UNL     1      45.018  22.677  21.243  0.00  0.00    +0.141 A 
ATOM      7  C   UNL     1      46.278  22.894  21.777  0.00  0.00    +0.017 A 
ATOM      8  C   UNL     1      47.346  22.128  21.357  0.00  0.00    +0.078 A 
ATOM      9  C   UNL     1      47.151  21.139  20.396  0.00  0.00    -0.023 A 
ATOM     23  C   UNL     1      45.879  20.924  19.859  0.00  0.00    -0.063 A 
ATOM     24  C   UNL     1      45.709  19.850  18.815  0.00  0.00    +0.123 C 
ATOM     25  C   UNL     1      44.227  19.507  18.662  0.00  0.00    +0.272 C 
ATOM     26  N   UNL     1      43.476  20.757  18.466  0.00  0.00    -0.505 N 
ATOM     27  H   UNL     1      43.935  21.321  17.767  0.00  0.00    +0.429 HD
ATOM     28  H   UNL     1      42.537  20.542  18.165  0.00  0.00    +0.434 HD
ENDROOT
BRANCH   9  10
ATOM     10  C   UNL     1      48.298  20.314  19.943  0.00  0.00    -0.130 A 
ATOM     11  C   UNL     1      49.130  20.780  18.923  0.00  0.00    +0.102 A 
ATOM     12  C   UNL     1      50.198  20.024  18.492  0.00  0.00    -0.085 A 
ATOM     13  C   UNL     1      50.451  18.787  19.071  0.00  0.00    +0.200 A 
ATOM     16  C   UNL     1      49.617  18.309  20.094  0.00  0.00    -0.201 A 
ATOM     17  C   UNL     1      49.882  16.993  20.696  0.00  0.00    +0.393 C 
ATOM     18  O   UNL     1      50.673  16.221  20.196  0.00  0.00    -0.427 OA
ATOM     19  C   UNL     1      49.143  16.643  21.974  0.00  0.00    +0.037 C 
ATOM     20  C   UNL     1      47.686  17.090  21.791  0.00  0.00    +0.041 C 
ATOM     21  C   UNL     1      47.639  18.609  21.646  0.00  0.00    +0.086 C 
ATOM     22  C   UNL     1      48.541  19.079  20.538  0.00  0.00    +0.028 A 
BRANCH  13  14
ATOM     14  O   UNL     1      51.503  18.043  18.648  0.00  0.00    -0.283 OA
ATOM     15  C   UNL     1      52.742  18.724  18.449  0.00  0.00    +0.251 C 
ENDBRANCH  13  14
ENDBRANCH   9  10
BRANCH   4   5
ATOM      5  O   UNL     1      43.969  23.434  21.660  0.00  0.00    -0.490 OA
ATOM      6  H   UNL     1      43.104  23.065  21.437  0.00  0.00    +0.400 HD
ENDBRANCH   4   5
TORSDOF 3
ENDMDL
