MODEL 1
REMARK VINA RESULT:      -6.2      0.000      0.000
REMARK  Name = ZINC00119983
REMARK  6 active torsions:
REMARK  status: ('A' for Active; 'I' for Inactive)
REMARK    1  A    between atoms: C3_3  and  O6_23
REMARK    2  A    between atoms: C4_4  and  O5_22
REMARK    3  A    between atoms: C6_6  and  C7_7
REMARK    4  A    between atoms: C8_9  and  O4_21
REMARK    5  A    between atoms: C11_13  and  O3_20
REMARK    6  A    between atoms: C13_15  and  O2_19
REMARK                            x       y       z     vdW  Elec       q    Type
REMARK                         _______ _______ _______ _____ _____    ______ ____
ROOT
ATOM     11  C   UNL     1      43.252  18.742  20.107  0.00  0.00    +0.237 C 
ATOM     12  C   UNL     1      43.486  18.601  21.616  0.00  0.00    +0.155 C 
ATOM     15  C   UNL     1      43.591  17.110  21.948  0.00  0.00    +0.077 C 
ATOM     16  C   UNL     1      44.540  16.441  20.987  0.00  0.00    -0.194 A 
ATOM     17  C   UNL     1      45.069  15.201  21.326  0.00  0.00    +0.161 A 
ATOM     20  C   UNL     1      45.942  14.555  20.465  0.00  0.00    -0.059 A 
ATOM     21  C   UNL     1      46.289  15.148  19.260  0.00  0.00    +0.159 A 
ATOM     24  C   UNL     1      45.764  16.384  18.923  0.00  0.00    -0.038 A 
ATOM     25  C   UNL     1      44.889  17.035  19.787  0.00  0.00    +0.162 A 
ATOM     26  O   UNL     1      44.405  18.251  19.422  0.00  0.00    -0.295 OA
ENDROOT
BRANCH  11  10
ATOM      1  C   UNL     1      44.029  21.119  20.023  0.00  0.00    +0.046 A 
ATOM      2  C   UNL     1      43.835  22.453  19.708  0.00  0.00    +0.004 A 
ATOM      3  C   UNL     1      42.646  22.861  19.126  0.00  0.00    +0.088 A 
ATOM      6  C   UNL     1      41.648  21.929  18.862  0.00  0.00    +0.080 A 
ATOM      9  C   UNL     1      41.847  20.595  19.180  0.00  0.00    +0.038 A 
ATOM     10  C   UNL     1      43.037  20.193  19.761  0.00  0.00    -0.072 A 
BRANCH   3   4
ATOM      4  O   UNL     1      42.455  24.171  18.816  0.00  0.00    -0.488 OA
ATOM      5  H   UNL     1      41.860  24.636  19.420  0.00  0.00    +0.389 HD
ENDBRANCH   3   4
BRANCH   6   7
ATOM      7  O   UNL     1      40.478  22.325  18.292  0.00  0.00    -0.485 OA
ATOM      8  H   UNL     1      40.569  23.074  17.686  0.00  0.00    +0.388 HD
ENDBRANCH   6   7
ENDBRANCH  11  10
BRANCH  12  13
ATOM     13  O   UNL     1      42.391  19.179  22.330  0.00  0.00    -0.549 OA
ATOM     14  H   UNL     1      42.580  20.052  22.701  0.00  0.00    +0.387 HD
ENDBRANCH  12  13
BRANCH  17  18
ATOM     18  O   UNL     1      44.729  14.619  22.505  0.00  0.00    -0.491 OA
ATOM     19  H   UNL     1      45.058  15.088  23.285  0.00  0.00    +0.396 HD
ENDBRANCH  17  18
BRANCH  21  22
ATOM     22  O   UNL     1      47.144  14.518  18.413  0.00  0.00    -0.491 OA
ATOM     23  H   UNL     1      47.379  15.038  17.632  0.00  0.00    +0.397 HD
ENDBRANCH  21  22
TORSDOF 6
ENDMDL
MODEL 2
REMARK VINA RESULT:      -6.2      1.250      7.019
REMARK  Name = ZINC00119983
REMARK  6 active torsions:
REMARK  status: ('A' for Active; 'I' for Inactive)
REMARK    1  A    between atoms: C3_3  and  O6_23
REMARK    2  A    between atoms: C4_4  and  O5_22
REMARK    3  A    between atoms: C6_6  and  C7_7
REMARK    4  A    between atoms: C8_9  and  O4_21
REMARK    5  A    between atoms: C11_13  and  O3_20
REMARK    6  A    between atoms: C13_15  and  O2_19
REMARK                            x       y       z     vdW  Elec       q    Type
REMARK                         _______ _______ _______ _____ _____    ______ ____
ROOT
ATOM     11  C   UNL     1      44.083  18.687  19.960  0.00  0.00    +0.237 C 
ATOM     12  C   UNL     1      44.642  19.817  20.832  0.00  0.00    +0.155 C 
ATOM     15  C   UNL     1      44.489  21.134  20.066  0.00  0.00    +0.077 C 
ATOM     16  C   UNL     1      43.088  21.245  19.521  0.00  0.00    -0.194 A 
ATOM     17  C   UNL     1      42.621  22.495  19.130  0.00  0.00    +0.161 A 
ATOM     20  C   UNL     1      41.339  22.634  18.623  0.00  0.00    -0.059 A 
ATOM     21  C   UNL     1      40.519  21.521  18.504  0.00  0.00    +0.159 A 
ATOM     24  C   UNL     1      40.983  20.277  18.895  0.00  0.00    -0.038 A 
ATOM     25  C   UNL     1      42.269  20.136  19.408  0.00  0.00    +0.162 A 
ATOM     26  O   UNL     1      42.681  18.899  19.789  0.00  0.00    -0.295 OA
ENDROOT
BRANCH  11  10
ATOM      1  C   UNL     1      43.756  17.113  21.878  0.00  0.00    +0.046 A 
ATOM      2  C   UNL     1      43.968  15.898  22.505  0.00  0.00    +0.004 A 
ATOM      3  C   UNL     1      44.741  14.927  21.889  0.00  0.00    +0.088 A 
ATOM      6  C   UNL     1      45.304  15.177  20.642  0.00  0.00    +0.080 A 
ATOM      9  C   UNL     1      45.088  16.395  20.020  0.00  0.00    +0.038 A 
ATOM     10  C   UNL     1      44.316  17.361  20.639  0.00  0.00    -0.072 A 
BRANCH   3   4
ATOM      4  O   UNL     1      44.950  13.732  22.505  0.00  0.00    -0.488 OA
ATOM      5  H   UNL     1      45.046  13.795  23.465  0.00  0.00    +0.389 HD
ENDBRANCH   3   4
BRANCH   6   7
ATOM      7  O   UNL     1      46.064  14.226  20.034  0.00  0.00    -0.485 OA
ATOM      8  H   UNL     1      46.676  14.576  19.372  0.00  0.00    +0.388 HD
ENDBRANCH   6   7
ENDBRANCH  11  10
BRANCH  12  13
ATOM     13  O   UNL     1      46.024  19.577  21.105  0.00  0.00    -0.549 OA
ATOM     14  H   UNL     1      46.388  18.807  20.648  0.00  0.00    +0.387 HD
ENDBRANCH  12  13
BRANCH  17  18
ATOM     18  O   UNL     1      43.424  23.585  19.245  0.00  0.00    -0.491 OA
ATOM     19  H   UNL     1      44.331  23.439  18.944  0.00  0.00    +0.396 HD
ENDBRANCH  17  18
BRANCH  21  22
ATOM     22  O   UNL     1      39.262  21.652  18.005  0.00  0.00    -0.491 OA
ATOM     23  H   UNL     1      39.110  21.160  17.186  0.00  0.00    +0.397 HD
ENDBRANCH  21  22
TORSDOF 6
ENDMDL
MODEL 3
REMARK VINA RESULT:      -6.1      5.048      5.976
REMARK  Name = ZINC00119983
REMARK  6 active torsions:
REMARK  status: ('A' for Active; 'I' for Inactive)
REMARK    1  A    between atoms: C3_3  and  O6_23
REMARK    2  A    between atoms: C4_4  and  O5_22
REMARK    3  A    between atoms: C6_6  and  C7_7
REMARK    4  A    between atoms: C8_9  and  O4_21
REMARK    5  A    between atoms: C11_13  and  O3_20
REMARK    6  A    between atoms: C13_15  and  O2_19
REMARK                            x       y       z     vdW  Elec       q    Type
REMARK                         _______ _______ _______ _____ _____    ______ ____
ROOT
ATOM     11  C   UNL     1      47.875  20.208  19.422  0.00  0.00    +0.237 C 
ATOM     12  C   UNL     1      48.580  19.277  20.415  0.00  0.00    +0.155 C 
ATOM     15  C   UNL     1      49.517  18.356  19.628  0.00  0.00    +0.077 C 
ATOM     16  C   UNL     1      50.342  19.173  18.667  0.00  0.00    -0.194 A 
ATOM     17  C   UNL     1      51.498  18.612  18.136  0.00  0.00    +0.161 A 
ATOM     20  C   UNL     1      52.280  19.333  17.247  0.00  0.00    -0.059 A 
ATOM     21  C   UNL     1      51.906  20.619  16.885  0.00  0.00    +0.159 A 
ATOM     24  C   UNL     1      50.756  21.178  17.415  0.00  0.00    -0.038 A 
ATOM     25  C   UNL     1      49.972  20.457  18.310  0.00  0.00    +0.162 A 
ATOM     26  O   UNL     1      48.857  21.048  18.813  0.00  0.00    -0.295 OA
ENDROOT
BRANCH  11  10
ATOM      1  C   UNL     1      47.273  21.881  21.182  0.00  0.00    +0.046 A 
ATOM      2  C   UNL     1      46.349  22.661  21.855  0.00  0.00    +0.004 A 
ATOM      3  C   UNL     1      45.012  22.615  21.495  0.00  0.00    +0.088 A 
ATOM      6  C   UNL     1      44.601  21.785  20.457  0.00  0.00    +0.080 A 
ATOM      9  C   UNL     1      45.531  21.007  19.787  0.00  0.00    +0.038 A 
ATOM     10  C   UNL     1      46.864  21.056  20.151  0.00  0.00    -0.072 A 
BRANCH   3   4
ATOM      4  O   UNL     1      44.103  23.382  22.156  0.00  0.00    -0.488 OA
ATOM      5  H   UNL     1      43.724  22.956  22.937  0.00  0.00    +0.389 HD
ENDBRANCH   3   4
BRANCH   6   7
ATOM      7  O   UNL     1      43.290  21.737  20.100  0.00  0.00    -0.485 OA
ATOM      8  H   UNL     1      43.108  21.162  19.345  0.00  0.00    +0.388 HD
ENDBRANCH   6   7
ENDBRANCH  11  10
BRANCH  12  13
ATOM     13  O   UNL     1      47.611  18.494  21.115  0.00  0.00    -0.549 OA
ATOM     14  H   UNL     1      47.921  17.613  21.364  0.00  0.00    +0.387 HD
ENDBRANCH  12  13
BRANCH  17  18
ATOM     18  O   UNL     1      51.864  17.352  18.489  0.00  0.00    -0.491 OA
ATOM     19  H   UNL     1      51.126  16.730  18.548  0.00  0.00    +0.396 HD
ENDBRANCH  17  18
BRANCH  21  22
ATOM     22  O   UNL     1      52.669  21.329  16.012  0.00  0.00    -0.491 OA
ATOM     23  H   UNL     1      53.581  21.014  15.941  0.00  0.00    +0.397 HD
ENDBRANCH  21  22
TORSDOF 6
ENDMDL
MODEL 4
REMARK VINA RESULT:      -6.1      2.613      3.048
REMARK  Name = ZINC00119983
REMARK  6 active torsions:
REMARK  status: ('A' for Active; 'I' for Inactive)
REMARK    1  A    between atoms: C3_3  and  O6_23
REMARK    2  A    between atoms: C4_4  and  O5_22
REMARK    3  A    between atoms: C6_6  and  C7_7
REMARK    4  A    between atoms: C8_9  and  O4_21
REMARK    5  A    between atoms: C11_13  and  O3_20
REMARK    6  A    between atoms: C13_15  and  O2_19
REMARK                            x       y       z     vdW  Elec       q    Type
REMARK                         _______ _______ _______ _____ _____    ______ ____
ROOT
ATOM     11  C   UNL     1      43.839  19.378  19.909  0.00  0.00    +0.237 C 
ATOM     12  C   UNL     1      44.706  20.285  20.791  0.00  0.00    +0.155 C 
ATOM     15  C   UNL     1      45.960  19.506  21.194  0.00  0.00    +0.077 C 
ATOM     16  C   UNL     1      46.569  18.858  19.977  0.00  0.00    -0.194 A 
ATOM     17  C   UNL     1      47.890  18.429  20.039  0.00  0.00    +0.161 A 
ATOM     20  C   UNL     1      48.482  17.827  18.940  0.00  0.00    -0.059 A 
ATOM     21  C   UNL     1      47.752  17.650  17.774  0.00  0.00    +0.159 A 
ATOM     24  C   UNL     1      46.437  18.079  17.711  0.00  0.00    -0.038 A 
ATOM     25  C   UNL     1      45.843  18.687  18.812  0.00  0.00    +0.162 A 
ATOM     26  O   UNL     1      44.554  19.102  18.704  0.00  0.00    -0.295 OA
ENDROOT
BRANCH  11  10
ATOM      1  C   UNL     1      41.339  19.482  19.907  0.00  0.00    +0.046 A 
ATOM      2  C   UNL     1      40.147  20.118  19.608  0.00  0.00    +0.004 A 
ATOM      3  C   UNL     1      40.161  21.354  18.982  0.00  0.00    +0.088 A 
ATOM      6  C   UNL     1      41.374  21.952  18.655  0.00  0.00    +0.080 A 
ATOM      9  C   UNL     1      42.564  21.309  18.957  0.00  0.00    +0.038 A 
ATOM     10  C   UNL     1      42.544  20.076  19.582  0.00  0.00    -0.072 A 
BRANCH   3   4
ATOM      4  O   UNL     1      38.990  21.981  18.687  0.00  0.00    -0.488 OA
ATOM      5  H   UNL     1      38.542  22.358  19.457  0.00  0.00    +0.389 HD
ENDBRANCH   3   4
BRANCH   6   7
ATOM      7  O   UNL     1      41.393  23.165  18.040  0.00  0.00    -0.485 OA
ATOM      8  H   UNL     1      42.255  23.602  18.058  0.00  0.00    +0.388 HD
ENDBRANCH   6   7
ENDBRANCH  11  10
BRANCH  12  13
ATOM     13  O   UNL     1      43.975  20.662  21.960  0.00  0.00    -0.549 OA
ATOM     14  H   UNL     1      44.338  21.432  22.419  0.00  0.00    +0.387 HD
ENDBRANCH  12  13
BRANCH  17  18
ATOM     18  O   UNL     1      48.605  18.600  21.182  0.00  0.00    -0.491 OA
ATOM     19  H   UNL     1      49.446  18.122  21.196  0.00  0.00    +0.396 HD
ENDBRANCH  17  18
BRANCH  21  22
ATOM     22  O   UNL     1      48.328  17.059  16.694  0.00  0.00    -0.491 OA
ATOM     23  H   UNL     1      48.895  17.649  16.178  0.00  0.00    +0.397 HD
ENDBRANCH  21  22
TORSDOF 6
ENDMDL
MODEL 5
REMARK VINA RESULT:      -5.9      2.161      6.186
REMARK  Name = ZINC00119983
REMARK  6 active torsions:
REMARK  status: ('A' for Active; 'I' for Inactive)
REMARK    1  A    between atoms: C3_3  and  O6_23
REMARK    2  A    between atoms: C4_4  and  O5_22
REMARK    3  A    between atoms: C6_6  and  C7_7
REMARK    4  A    between atoms: C8_9  and  O4_21
REMARK    5  A    between atoms: C11_13  and  O3_20
REMARK    6  A    between atoms: C13_15  and  O2_19
REMARK                            x       y       z     vdW  Elec       q    Type
REMARK                         _______ _______ _______ _____ _____    ______ ____
ROOT
ATOM     11  C   UNL     1      44.928  19.047  19.651  0.00  0.00    +0.237 C 
ATOM     12  C   UNL     1      44.229  17.868  20.339  0.00  0.00    +0.155 C 
ATOM     15  C   UNL     1      43.054  18.416  21.153  0.00  0.00    +0.077 C 
ATOM     16  C   UNL     1      42.244  19.362  20.304  0.00  0.00    -0.194 A 
ATOM     17  C   UNL     1      40.949  19.674  20.702  0.00  0.00    +0.161 A 
ATOM     20  C   UNL     1      40.176  20.542  19.947  0.00  0.00    -0.059 A 
ATOM     21  C   UNL     1      40.698  21.102  18.790  0.00  0.00    +0.159 A 
ATOM     24  C   UNL     1      41.987  20.790  18.392  0.00  0.00    -0.038 A 
ATOM     25  C   UNL     1      42.763  19.916  19.147  0.00  0.00    +0.162 A 
ATOM     26  O   UNL     1      44.018  19.629  18.716  0.00  0.00    -0.295 OA
ENDROOT
BRANCH  11  10
ATOM      1  C   UNL     1      47.408  18.982  19.326  0.00  0.00    +0.046 A 
ATOM      2  C   UNL     1      48.537  18.535  18.663  0.00  0.00    +0.004 A 
ATOM      3  C   UNL     1      48.413  17.657  17.598  0.00  0.00    +0.088 A 
ATOM      6  C   UNL     1      47.152  17.229  17.197  0.00  0.00    +0.080 A 
ATOM      9  C   UNL     1      46.025  17.680  17.865  0.00  0.00    +0.038 A 
ATOM     10  C   UNL     1      46.155  18.556  18.927  0.00  0.00    -0.072 A 
BRANCH   3   4
ATOM      4  O   UNL     1      49.522  17.217  16.946  0.00  0.00    -0.488 OA
ATOM      5  H   UNL     1      50.354  17.462  17.374  0.00  0.00    +0.389 HD
ENDBRANCH   3   4
BRANCH   6   7
ATOM      7  O   UNL     1      47.024  16.367  16.152  0.00  0.00    -0.485 OA
ATOM      8  H   UNL     1      47.691  16.485  15.461  0.00  0.00    +0.388 HD
ENDBRANCH   6   7
ENDBRANCH  11  10
BRANCH  12  13
ATOM     13  O   UNL     1      45.148  17.202  21.207  0.00  0.00    -0.549 OA
ATOM     14  H   UNL     1      44.979  16.255  21.307  0.00  0.00    +0.387 HD
ENDBRANCH  12  13
BRANCH  17  18
ATOM     18  O   UNL     1      40.438  19.127  21.835  0.00  0.00    -0.491 OA
ATOM     19  H   UNL     1      39.655  19.584  22.175  0.00  0.00    +0.396 HD
ENDBRANCH  17  18
BRANCH  21  22
ATOM     22  O   UNL     1      39.945  21.955  18.047  0.00  0.00    -0.491 OA
ATOM     23  H   UNL     1      40.148  22.889  18.194  0.00  0.00    +0.397 HD
ENDBRANCH  21  22
TORSDOF 6
ENDMDL
MODEL 6
REMARK VINA RESULT:      -5.7      1.629      2.123
REMARK  Name = ZINC00119983
REMARK  6 active torsions:
REMARK  status: ('A' for Active; 'I' for Inactive)
REMARK    1  A    between atoms: C3_3  and  O6_23
REMARK    2  A    between atoms: C4_4  and  O5_22
REMARK    3  A    between atoms: C6_6  and  C7_7
REMARK    4  A    between atoms: C8_9  and  O4_21
REMARK    5  A    between atoms: C11_13  and  O3_20
REMARK    6  A    between atoms: C13_15  and  O2_19
REMARK                            x       y       z     vdW  Elec       q    Type
REMARK                         _______ _______ _______ _____ _____    ______ ____
ROOT
ATOM     11  C   UNL     1      44.633  19.122  19.761  0.00  0.00    +0.237 C 
ATOM     12  C   UNL     1      44.887  18.376  21.076  0.00  0.00    +0.155 C 
ATOM     15  C   UNL     1      44.628  16.886  20.840  0.00  0.00    +0.077 C 
ATOM     16  C   UNL     1      45.338  16.439  19.588  0.00  0.00    -0.194 A 
ATOM     17  C   UNL     1      45.553  15.080  19.391  0.00  0.00    +0.161 A 
ATOM     20  C   UNL     1      46.200  14.632  18.250  0.00  0.00    -0.059 A 
ATOM     21  C   UNL     1      46.634  15.545  17.300  0.00  0.00    +0.159 A 
ATOM     24  C   UNL     1      46.422  16.899  17.497  0.00  0.00    -0.038 A 
ATOM     25  C   UNL     1      45.775  17.350  18.643  0.00  0.00    +0.162 A 
ATOM     26  O   UNL     1      45.597  18.687  18.801  0.00  0.00    -0.295 OA
ENDROOT
BRANCH  11  10
ATOM      1  C   UNL     1      45.874  21.100  20.661  0.00  0.00    +0.046 A 
ATOM      2  C   UNL     1      46.008  22.461  20.869  0.00  0.00    +0.004 A 
ATOM      3  C   UNL     1      45.039  23.332  20.398  0.00  0.00    +0.088 A 
ATOM      6  C   UNL     1      43.932  22.835  19.717  0.00  0.00    +0.080 A 
ATOM      9  C   UNL     1      43.804  21.471  19.512  0.00  0.00    +0.038 A 
ATOM     10  C   UNL     1      44.775  20.607  19.985  0.00  0.00    -0.072 A 
BRANCH   3   4
ATOM      4  O   UNL     1      45.170  24.671  20.602  0.00  0.00    -0.488 OA
ATOM      5  H   UNL     1      44.372  25.179  20.401  0.00  0.00    +0.389 HD
ENDBRANCH   3   4
BRANCH   6   7
ATOM      7  O   UNL     1      42.978  23.686  19.254  0.00  0.00    -0.485 OA
ATOM      8  H   UNL     1      43.331  24.458  18.789  0.00  0.00    +0.388 HD
ENDBRANCH   6   7
ENDBRANCH  11  10
BRANCH  12  13
ATOM     13  O   UNL     1      44.003  18.865  22.087  0.00  0.00    -0.549 OA
ATOM     14  H   UNL     1      44.087  19.813  22.259  0.00  0.00    +0.387 HD
ENDBRANCH  12  13
BRANCH  17  18
ATOM     18  O   UNL     1      45.127  14.185  20.321  0.00  0.00    -0.491 OA
ATOM     19  H   UNL     1      45.154  13.265  20.023  0.00  0.00    +0.396 HD
ENDBRANCH  17  18
BRANCH  21  22
ATOM     22  O   UNL     1      47.267  15.111  16.179  0.00  0.00    -0.491 OA
ATOM     23  H   UNL     1      48.077  14.611  16.354  0.00  0.00    +0.397 HD
ENDBRANCH  21  22
TORSDOF 6
ENDMDL
MODEL 7
REMARK VINA RESULT:      -5.6      2.063      7.146
REMARK  Name = ZINC00119983
REMARK  6 active torsions:
REMARK  status: ('A' for Active; 'I' for Inactive)
REMARK    1  A    between atoms: C3_3  and  O6_23
REMARK    2  A    between atoms: C4_4  and  O5_22
REMARK    3  A    between atoms: C6_6  and  C7_7
REMARK    4  A    between atoms: C8_9  and  O4_21
REMARK    5  A    between atoms: C11_13  and  O3_20
REMARK    6  A    between atoms: C13_15  and  O2_19
REMARK                            x       y       z     vdW  Elec       q    Type
REMARK                         _______ _______ _______ _____ _____    ______ ____
ROOT
ATOM     11  C   UNL     1      45.520  18.782  18.417  0.00  0.00    +0.237 C 
ATOM     12  C   UNL     1      46.239  19.415  19.614  0.00  0.00    +0.155 C 
ATOM     15  C   UNL     1      46.017  20.929  19.562  0.00  0.00    +0.077 C 
ATOM     16  C   UNL     1      44.554  21.220  19.339  0.00  0.00    -0.194 A 
ATOM     17  C   UNL     1      44.075  22.492  19.631  0.00  0.00    +0.161 A 
ATOM     20  C   UNL     1      42.738  22.796  19.437  0.00  0.00    -0.059 A 
ATOM     21  C   UNL     1      41.873  21.828  18.947  0.00  0.00    +0.159 A 
ATOM     24  C   UNL     1      42.350  20.561  18.658  0.00  0.00    -0.038 A 
ATOM     25  C   UNL     1      43.692  20.252  18.856  0.00  0.00    +0.162 A 
ATOM     26  O   UNL     1      44.116  18.994  18.569  0.00  0.00    -0.295 OA
ENDROOT
BRANCH  11  10
ATOM      1  C   UNL     1      45.413  16.495  19.426  0.00  0.00    +0.046 A 
ATOM      2  C   UNL     1      45.676  15.137  19.394  0.00  0.00    +0.004 A 
ATOM      3  C   UNL     1      46.334  14.585  18.308  0.00  0.00    +0.088 A 
ATOM      6  C   UNL     1      46.731  15.398  17.251  0.00  0.00    +0.080 A 
ATOM      9  C   UNL     1      46.465  16.757  17.289  0.00  0.00    +0.038 A 
ATOM     10  C   UNL     1      45.808  17.303  18.377  0.00  0.00    -0.072 A 
BRANCH   3   4
ATOM      4  O   UNL     1      46.593  13.249  18.275  0.00  0.00    -0.488 OA
ATOM      5  H   UNL     1      46.555  12.863  17.389  0.00  0.00    +0.389 HD
ENDBRANCH   3   4
BRANCH   6   7
ATOM      7  O   UNL     1      47.378  14.860  16.182  0.00  0.00    -0.485 OA
ATOM      8  H   UNL     1      47.387  13.893  16.173  0.00  0.00    +0.388 HD
ENDBRANCH   6   7
ENDBRANCH  11  10
BRANCH  12  13
ATOM     13  O   UNL     1      47.638  19.130  19.543  0.00  0.00    -0.549 OA
ATOM     14  H   UNL     1      47.875  18.495  18.854  0.00  0.00    +0.387 HD
ENDBRANCH  12  13
BRANCH  17  18
ATOM     18  O   UNL     1      44.921  23.441  20.110  0.00  0.00    -0.491 OA
ATOM     19  H   UNL     1      45.759  23.500  19.630  0.00  0.00    +0.396 HD
ENDBRANCH  17  18
BRANCH  21  22
ATOM     22  O   UNL     1      40.561  22.122  18.753  0.00  0.00    -0.491 OA
ATOM     23  H   UNL     1      39.954  21.566  19.261  0.00  0.00    +0.397 HD
ENDBRANCH  21  22
TORSDOF 6
ENDMDL
MODEL 8
REMARK VINA RESULT:      -5.4      4.929      6.206
REMARK  Name = ZINC00119983
REMARK  6 active torsions:
REMARK  status: ('A' for Active; 'I' for Inactive)
REMARK    1  A    between atoms: C3_3  and  O6_23
REMARK    2  A    between atoms: C4_4  and  O5_22
REMARK    3  A    between atoms: C6_6  and  C7_7
REMARK    4  A    between atoms: C8_9  and  O4_21
REMARK    5  A    between atoms: C11_13  and  O3_20
REMARK    6  A    between atoms: C13_15  and  O2_19
REMARK                            x       y       z     vdW  Elec       q    Type
REMARK                         _______ _______ _______ _____ _____    ______ ____
ROOT
ATOM     11  C   UNL     1      47.753  19.532  18.633  0.00  0.00    +0.237 C 
ATOM     12  C   UNL     1      48.150  18.051  18.612  0.00  0.00    +0.155 C 
ATOM     15  C   UNL     1      49.414  17.906  17.760  0.00  0.00    +0.077 C 
ATOM     16  C   UNL     1      50.430  18.938  18.178  0.00  0.00    -0.194 A 
ATOM     17  C   UNL     1      51.759  18.753  17.813  0.00  0.00    +0.161 A 
ATOM     20  C   UNL     1      52.719  19.682  18.178  0.00  0.00    -0.059 A 
ATOM     21  C   UNL     1      52.353  20.803  18.910  0.00  0.00    +0.159 A 
ATOM     24  C   UNL     1      51.030  20.986  19.275  0.00  0.00    -0.038 A 
ATOM     25  C   UNL     1      50.065  20.052  18.912  0.00  0.00    +0.162 A 
ATOM     26  O   UNL     1      48.781  20.266  19.300  0.00  0.00    -0.295 OA
ENDROOT
BRANCH  11  10
ATOM      1  C   UNL     1      46.351  19.291  20.693  0.00  0.00    +0.046 A 
ATOM      2  C   UNL     1      45.158  19.439  21.377  0.00  0.00    +0.004 A 
ATOM      3  C   UNL     1      44.061  19.997  20.742  0.00  0.00    +0.088 A 
ATOM      6  C   UNL     1      44.161  20.406  19.416  0.00  0.00    +0.080 A 
ATOM      9  C   UNL     1      45.358  20.254  18.736  0.00  0.00    +0.038 A 
ATOM     10  C   UNL     1      46.451  19.697  19.375  0.00  0.00    -0.072 A 
BRANCH   3   4
ATOM      4  O   UNL     1      42.887  20.144  21.414  0.00  0.00    -0.488 OA
ATOM      5  H   UNL     1      42.970  20.621  22.251  0.00  0.00    +0.389 HD
ENDBRANCH   3   4
BRANCH   6   7
ATOM      7  O   UNL     1      43.086  20.953  18.788  0.00  0.00    -0.485 OA
ATOM      8  H   UNL     1      42.859  20.527  17.950  0.00  0.00    +0.388 HD
ENDBRANCH   6   7
ENDBRANCH  11  10
BRANCH  12  13
ATOM     13  O   UNL     1      47.093  17.276  18.043  0.00  0.00    -0.549 OA
ATOM     14  H   UNL     1      46.724  16.614  18.643  0.00  0.00    +0.387 HD
ENDBRANCH  12  13
BRANCH  17  18
ATOM     18  O   UNL     1      52.118  17.656  17.096  0.00  0.00    -0.491 OA
ATOM     19  H   UNL     1      51.521  16.902  17.204  0.00  0.00    +0.396 HD
ENDBRANCH  17  18
BRANCH  21  22
ATOM     22  O   UNL     1      53.292  21.717  19.268  0.00  0.00    -0.491 OA
ATOM     23  H   UNL     1      54.072  21.725  18.697  0.00  0.00    +0.397 HD
ENDBRANCH  21  22
TORSDOF 6
ENDMDL
MODEL 9
REMARK VINA RESULT:      -5.4      4.389      5.079
REMARK  Name = ZINC00119983
REMARK  6 active torsions:
REMARK  status: ('A' for Active; 'I' for Inactive)
REMARK    1  A    between atoms: C3_3  and  O6_23
REMARK    2  A    between atoms: C4_4  and  O5_22
REMARK    3  A    between atoms: C6_6  and  C7_7
REMARK    4  A    between atoms: C8_9  and  O4_21
REMARK    5  A    between atoms: C11_13  and  O3_20
REMARK    6  A    between atoms: C13_15  and  O2_19
REMARK                            x       y       z     vdW  Elec       q    Type
REMARK                         _______ _______ _______ _____ _____    ______ ____
ROOT
ATOM     11  C   UNL     1      46.780  19.583  19.408  0.00  0.00    +0.237 C 
ATOM     12  C   UNL     1      47.101  19.109  20.831  0.00  0.00    +0.155 C 
ATOM     15  C   UNL     1      48.444  18.375  20.800  0.00  0.00    +0.077 C 
ATOM     16  C   UNL     1      49.457  19.200  20.050  0.00  0.00    -0.194 A 
ATOM     17  C   UNL     1      50.807  18.915  20.221  0.00  0.00    +0.161 A 
ATOM     20  C   UNL     1      51.767  19.652  19.545  0.00  0.00    -0.059 A 
ATOM     21  C   UNL     1      51.379  20.676  18.694  0.00  0.00    +0.159 A 
ATOM     24  C   UNL     1      50.035  20.961  18.526  0.00  0.00    -0.038 A 
ATOM     25  C   UNL     1      49.070  20.225  19.206  0.00  0.00    +0.162 A 
ATOM     26  O   UNL     1      47.763  20.544  19.019  0.00  0.00    -0.295 OA
ENDROOT
BRANCH  11  10
ATOM      1  C   UNL     1      44.384  19.609  18.687  0.00  0.00    +0.046 A 
ATOM      2  C   UNL     1      43.127  20.188  18.659  0.00  0.00    +0.004 A 
ATOM      3  C   UNL     1      42.899  21.379  19.328  0.00  0.00    +0.088 A 
ATOM      6  C   UNL     1      43.935  21.991  20.027  0.00  0.00    +0.080 A 
ATOM      9  C   UNL     1      45.190  21.406  20.051  0.00  0.00    +0.038 A 
ATOM     10  C   UNL     1      45.412  20.217  19.381  0.00  0.00    -0.072 A 
BRANCH   3   4
ATOM      4  O   UNL     1      41.664  21.949  19.301  0.00  0.00    -0.488 OA
ATOM      5  H   UNL     1      41.466  22.494  20.075  0.00  0.00    +0.389 HD
ENDBRANCH   3   4
BRANCH   6   7
ATOM      7  O   UNL     1      43.715  23.161  20.685  0.00  0.00    -0.485 OA
ATOM      8  H   UNL     1      43.212  23.063  21.505  0.00  0.00    +0.388 HD
ENDBRANCH   6   7
ENDBRANCH  11  10
BRANCH  12  13
ATOM     13  O   UNL     1      46.076  18.223  21.287  0.00  0.00    -0.549 OA
ATOM     14  H   UNL     1      45.251  18.666  21.527  0.00  0.00    +0.387 HD
ENDBRANCH  12  13
BRANCH  17  18
ATOM     18  O   UNL     1      51.188  17.911  21.053  0.00  0.00    -0.491 OA
ATOM     19  H   UNL     1      51.988  17.447  20.769  0.00  0.00    +0.396 HD
ENDBRANCH  17  18
BRANCH  21  22
ATOM     22  O   UNL     1      52.317  21.400  18.028  0.00  0.00    -0.491 OA
ATOM     23  H   UNL     1      52.737  22.087  18.564  0.00  0.00    +0.397 HD
ENDBRANCH  21  22
TORSDOF 6
ENDMDL
