MODEL 1
REMARK VINA RESULT:      -5.5      0.000      0.000
REMARK  Name = ZINC95486202
REMARK  6 active torsions:
REMARK  status: ('A' for Active; 'I' for Inactive)
REMARK    1  A    between atoms: C1_1  and  C2_2
REMARK    2  A    between atoms: C6_7  and  C12_18
REMARK    3  A    between atoms: C6_7  and  C13_19
REMARK    4  A    between atoms: C9_11  and  C10_15
REMARK    5  A    between atoms: C10_15  and  C11_16
REMARK    6  A    between atoms: C11_16  and  O4_17
REMARK                            x       y       z     vdW  Elec       q    Type
REMARK                         _______ _______ _______ _____ _____    ______ ____
ROOT
ATOM      1  C   UNL     1      44.685  18.407  19.992  0.00  0.00    +0.053 C 
ATOM      2  C   UNL     1      44.064  19.396  20.977  0.00  0.00    +0.106 C 
ATOM      3  C   UNL     1      44.895  19.402  22.223  0.00  0.00    +0.082 C 
ATOM      4  C   UNL     1      45.926  20.237  22.342  0.00  0.00    -0.060 C 
ATOM      5  C   UNL     1      46.272  21.163  21.262  0.00  0.00    +0.388 C 
ATOM      6  C   UNL     1      45.281  21.494  20.171  0.00  0.00    -0.087 C 
ATOM      7  C   UNL     1      45.885  21.155  18.802  0.00  0.00    +0.064 C 
ATOM      8  C   UNL     1      45.029  23.019  20.201  0.00  0.00    +0.062 C 
ATOM      9  O   UNL     1      47.380  21.681  21.246  0.00  0.00    -0.446 OA
ATOM     10  O   UNL     1      42.738  18.925  21.282  0.00  0.00    -0.187 OA
ATOM     11  O   UNL     1      41.847  18.946  20.107  0.00  0.00    -0.189 OA
ATOM     12  C   UNL     1      41.702  20.234  19.501  0.00  0.00    +0.130 C 
ATOM     17  C   UNL     1      43.095  20.769  19.127  0.00  0.00    +0.036 C 
ATOM     18  C   UNL     1      43.956  20.792  20.388  0.00  0.00    -0.009 C 
ENDROOT
BRANCH  12  13
ATOM     13  C   UNL     1      40.845  20.122  18.242  0.00  0.00    +0.070 C 
BRANCH  13  14
ATOM     14  C   UNL     1      39.698  21.133  18.316  0.00  0.00    +0.176 C 
BRANCH  14  15
ATOM     15  O   UNL     1      40.199  22.443  18.048  0.00  0.00    -0.575 OA
ATOM     16  H   UNL     1      41.127  22.462  17.779  0.00  0.00    +0.384 HD
ENDBRANCH  14  15
ENDBRANCH  13  14
ENDBRANCH  12  13
TORSDOF 3
ENDMDL
MODEL 2
REMARK VINA RESULT:      -5.1      1.817      2.683
REMARK  Name = ZINC95486202
REMARK  6 active torsions:
REMARK  status: ('A' for Active; 'I' for Inactive)
REMARK    1  A    between atoms: C1_1  and  C2_2
REMARK    2  A    between atoms: C6_7  and  C12_18
REMARK    3  A    between atoms: C6_7  and  C13_19
REMARK    4  A    between atoms: C9_11  and  C10_15
REMARK    5  A    between atoms: C10_15  and  C11_16
REMARK    6  A    between atoms: C11_16  and  O4_17
REMARK                            x       y       z     vdW  Elec       q    Type
REMARK                         _______ _______ _______ _____ _____    ______ ____
ROOT
ATOM      1  C   UNL     1      44.341  20.778  21.541  0.00  0.00    +0.053 C 
ATOM      2  C   UNL     1      44.772  21.263  20.157  0.00  0.00    +0.106 C 
ATOM      3  C   UNL     1      46.142  21.855  20.273  0.00  0.00    +0.082 C 
ATOM      4  C   UNL     1      47.222  21.091  20.122  0.00  0.00    -0.060 C 
ATOM      5  C   UNL     1      47.096  19.659  19.844  0.00  0.00    +0.388 C 
ATOM      6  C   UNL     1      45.800  19.075  19.331  0.00  0.00    -0.087 C 
ATOM      7  C   UNL     1      45.317  17.972  20.282  0.00  0.00    +0.064 C 
ATOM      8  C   UNL     1      46.083  18.413  17.962  0.00  0.00    +0.062 C 
ATOM      9  O   UNL     1      48.058  18.923  20.023  0.00  0.00    -0.446 OA
ATOM     10  O   UNL     1      43.838  22.280  19.748  0.00  0.00    -0.187 OA
ATOM     11  O   UNL     1      42.474  21.752  19.560  0.00  0.00    -0.189 OA
ATOM     12  C   UNL     1      42.379  20.691  18.605  0.00  0.00    +0.130 C 
ATOM     17  C   UNL     1      43.339  19.562  19.017  0.00  0.00    +0.036 C 
ATOM     18  C   UNL     1      44.746  20.144  19.131  0.00  0.00    -0.009 C 
ENDROOT
BRANCH  12  13
ATOM     13  C   UNL     1      40.950  20.154  18.564  0.00  0.00    +0.070 C 
BRANCH  13  14
ATOM     14  C   UNL     1      39.971  21.290  18.870  0.00  0.00    +0.176 C 
BRANCH  14  15
ATOM     15  O   UNL     1      40.241  22.397  18.009  0.00  0.00    -0.575 OA
ATOM     16  H   UNL     1      40.315  23.244  18.469  0.00  0.00    +0.384 HD
ENDBRANCH  14  15
ENDBRANCH  13  14
ENDBRANCH  12  13
TORSDOF 3
ENDMDL
MODEL 3
REMARK VINA RESULT:      -5.0      6.037      7.320
REMARK  Name = ZINC95486202
REMARK  6 active torsions:
REMARK  status: ('A' for Active; 'I' for Inactive)
REMARK    1  A    between atoms: C1_1  and  C2_2
REMARK    2  A    between atoms: C6_7  and  C12_18
REMARK    3  A    between atoms: C6_7  and  C13_19
REMARK    4  A    between atoms: C9_11  and  C10_15
REMARK    5  A    between atoms: C10_15  and  C11_16
REMARK    6  A    between atoms: C11_16  and  O4_17
REMARK                            x       y       z     vdW  Elec       q    Type
REMARK                         _______ _______ _______ _____ _____    ______ ____
ROOT
ATOM      1  C   UNL     1      49.578  18.120  19.995  0.00  0.00    +0.053 C 
ATOM      2  C   UNL     1      49.093  18.745  18.687  0.00  0.00    +0.106 C 
ATOM      3  C   UNL     1      49.135  20.234  18.835  0.00  0.00    +0.082 C 
ATOM      4  C   UNL     1      50.237  20.912  18.519  0.00  0.00    -0.060 C 
ATOM      5  C   UNL     1      51.429  20.221  18.025  0.00  0.00    +0.388 C 
ATOM      6  C   UNL     1      51.346  18.813  17.483  0.00  0.00    -0.087 C 
ATOM      7  C   UNL     1      52.295  17.899  18.269  0.00  0.00    +0.064 C 
ATOM      8  C   UNL     1      51.835  18.835  16.016  0.00  0.00    +0.062 C 
ATOM      9  O   UNL     1      52.509  20.795  18.044  0.00  0.00    -0.446 OA
ATOM     10  O   UNL     1      47.733  18.316  18.484  0.00  0.00    -0.187 OA
ATOM     11  O   UNL     1      47.625  16.860  18.275  0.00  0.00    -0.189 OA
ATOM     12  C   UNL     1      48.387  16.365  17.170  0.00  0.00    +0.130 C 
ATOM     17  C   UNL     1      49.858  16.772  17.357  0.00  0.00    +0.036 C 
ATOM     18  C   UNL     1      49.924  18.291  17.500  0.00  0.00    -0.009 C 
ENDROOT
BRANCH  12  13
ATOM     13  C   UNL     1      48.283  14.843  17.107  0.00  0.00    +0.070 C 
BRANCH  13  14
ATOM     14  C   UNL     1      46.973  14.450  16.420  0.00  0.00    +0.176 C 
BRANCH  14  15
ATOM     15  O   UNL     1      46.468  15.564  15.683  0.00  0.00    -0.575 OA
ATOM     16  H   UNL     1      46.311  15.379  14.748  0.00  0.00    +0.384 HD
ENDBRANCH  14  15
ENDBRANCH  13  14
ENDBRANCH  12  13
TORSDOF 3
ENDMDL
MODEL 4
REMARK VINA RESULT:      -4.8     21.222     23.037
REMARK  Name = ZINC95486202
REMARK  6 active torsions:
REMARK  status: ('A' for Active; 'I' for Inactive)
REMARK    1  A    between atoms: C1_1  and  C2_2
REMARK    2  A    between atoms: C6_7  and  C12_18
REMARK    3  A    between atoms: C6_7  and  C13_19
REMARK    4  A    between atoms: C9_11  and  C10_15
REMARK    5  A    between atoms: C10_15  and  C11_16
REMARK    6  A    between atoms: C11_16  and  O4_17
REMARK                            x       y       z     vdW  Elec       q    Type
REMARK                         _______ _______ _______ _____ _____    ______ ____
ROOT
ATOM      1  C   UNL     1      53.628  32.681   5.995  0.00  0.00    +0.053 C 
ATOM      2  C   UNL     1      54.370  33.936   5.538  0.00  0.00    +0.106 C 
ATOM      3  C   UNL     1      55.734  33.927   6.157  0.00  0.00    +0.082 C 
ATOM      4  C   UNL     1      56.753  33.338   5.534  0.00  0.00    -0.060 C 
ATOM      5  C   UNL     1      56.566  32.688   4.236  0.00  0.00    +0.388 C 
ATOM      6  C   UNL     1      55.356  32.986   3.381  0.00  0.00    -0.087 C 
ATOM      7  C   UNL     1      54.598  31.686   3.083  0.00  0.00    +0.064 C 
ATOM      8  C   UNL     1      55.854  33.551   2.030  0.00  0.00    +0.062 C 
ATOM      9  O   UNL     1      57.405  31.893   3.834  0.00  0.00    -0.446 OA
ATOM     10  O   UNL     1      53.628  35.073   6.018  0.00  0.00    -0.187 OA
ATOM     11  O   UNL     1      52.291  35.176   5.405  0.00  0.00    -0.189 OA
ATOM     12  C   UNL     1      52.303  35.259   3.977  0.00  0.00    +0.130 C 
ATOM     17  C   UNL     1      53.061  34.046   3.412  0.00  0.00    +0.036 C 
ATOM     18  C   UNL     1      54.459  34.023   4.025  0.00  0.00    -0.009 C 
ENDROOT
BRANCH  12  13
ATOM     13  C   UNL     1      50.872  35.260   3.444  0.00  0.00    +0.070 C 
BRANCH  13  14
ATOM     14  C   UNL     1      50.244  33.882   3.670  0.00  0.00    +0.176 C 
BRANCH  14  15
ATOM     15  O   UNL     1      49.972  33.705   5.061  0.00  0.00    -0.575 OA
ATOM     16  H   UNL     1      49.134  33.259   5.244  0.00  0.00    +0.384 HD
ENDBRANCH  14  15
ENDBRANCH  13  14
ENDBRANCH  12  13
TORSDOF 3
ENDMDL
MODEL 5
REMARK VINA RESULT:      -4.7      2.358      4.140
REMARK  Name = ZINC95486202
REMARK  6 active torsions:
REMARK  status: ('A' for Active; 'I' for Inactive)
REMARK    1  A    between atoms: C1_1  and  C2_2
REMARK    2  A    between atoms: C6_7  and  C12_18
REMARK    3  A    between atoms: C6_7  and  C13_19
REMARK    4  A    between atoms: C9_11  and  C10_15
REMARK    5  A    between atoms: C10_15  and  C11_16
REMARK    6  A    between atoms: C11_16  and  O4_17
REMARK                            x       y       z     vdW  Elec       q    Type
REMARK                         _______ _______ _______ _____ _____    ______ ____
ROOT
ATOM      1  C   UNL     1      43.163  19.035  20.221  0.00  0.00    +0.053 C 
ATOM      2  C   UNL     1      44.284  18.680  21.196  0.00  0.00    +0.106 C 
ATOM      3  C   UNL     1      44.110  17.253  21.613  0.00  0.00    +0.082 C 
ATOM      4  C   UNL     1      44.677  16.271  20.915  0.00  0.00    -0.060 C 
ATOM      5  C   UNL     1      45.479  16.562  19.725  0.00  0.00    +0.388 C 
ATOM      6  C   UNL     1      46.022  17.950  19.471  0.00  0.00    -0.087 C 
ATOM      7  C   UNL     1      45.531  18.456  18.108  0.00  0.00    +0.064 C 
ATOM      8  C   UNL     1      47.564  17.854  19.401  0.00  0.00    +0.062 C 
ATOM      9  O   UNL     1      45.720  15.667  18.927  0.00  0.00    -0.446 OA
ATOM     10  O   UNL     1      44.146  19.540  22.343  0.00  0.00    -0.187 OA
ATOM     11  O   UNL     1      44.362  20.961  22.013  0.00  0.00    -0.189 OA
ATOM     12  C   UNL     1      45.639  21.243  21.433  0.00  0.00    +0.130 C 
ATOM     17  C   UNL     1      45.823  20.368  20.182  0.00  0.00    +0.036 C 
ATOM     18  C   UNL     1      45.658  18.905  20.588  0.00  0.00    -0.009 C 
ENDROOT
BRANCH  12  13
ATOM     13  C   UNL     1      45.718  22.716  21.040  0.00  0.00    +0.070 C 
BRANCH  13  14
ATOM     14  C   UNL     1      44.703  23.003  19.930  0.00  0.00    +0.176 C 
BRANCH  14  15
ATOM     15  O   UNL     1      43.410  23.195  20.505  0.00  0.00    -0.575 OA
ATOM     16  H   UNL     1      42.720  22.642  20.116  0.00  0.00    +0.384 HD
ENDBRANCH  14  15
ENDBRANCH  13  14
ENDBRANCH  12  13
TORSDOF 3
ENDMDL
MODEL 6
REMARK VINA RESULT:      -4.7      3.837      6.667
REMARK  Name = ZINC95486202
REMARK  6 active torsions:
REMARK  status: ('A' for Active; 'I' for Inactive)
REMARK    1  A    between atoms: C1_1  and  C2_2
REMARK    2  A    between atoms: C6_7  and  C12_18
REMARK    3  A    between atoms: C6_7  and  C13_19
REMARK    4  A    between atoms: C9_11  and  C10_15
REMARK    5  A    between atoms: C10_15  and  C11_16
REMARK    6  A    between atoms: C11_16  and  O4_17
REMARK                            x       y       z     vdW  Elec       q    Type
REMARK                         _______ _______ _______ _____ _____    ______ ____
ROOT
ATOM      1  C   UNL     1      49.150  19.282  21.571  0.00  0.00    +0.053 C 
ATOM      2  C   UNL     1      48.552  18.750  20.269  0.00  0.00    +0.106 C 
ATOM      3  C   UNL     1      47.479  17.764  20.614  0.00  0.00    +0.082 C 
ATOM      4  C   UNL     1      46.223  18.168  20.793  0.00  0.00    -0.060 C 
ATOM      5  C   UNL     1      45.862  19.581  20.660  0.00  0.00    +0.388 C 
ATOM      6  C   UNL     1      46.771  20.554  19.945  0.00  0.00    -0.087 C 
ATOM      7  C   UNL     1      47.136  21.709  20.887  0.00  0.00    +0.064 C 
ATOM      8  C   UNL     1      45.987  21.156  18.757  0.00  0.00    +0.062 C 
ATOM      9  O   UNL     1      44.805  19.979  21.129  0.00  0.00    -0.446 OA
ATOM     10  O   UNL     1      49.608  18.085  19.551  0.00  0.00    -0.187 OA
ATOM     11  O   UNL     1      50.675  19.012  19.130  0.00  0.00    -0.189 OA
ATOM     12  C   UNL     1      50.227  20.091  18.306  0.00  0.00    +0.130 C 
ATOM     17  C   UNL     1      49.115  20.855  19.045  0.00  0.00    +0.036 C 
ATOM     18  C   UNL     1      48.005  19.867  19.397  0.00  0.00    -0.009 C 
ENDROOT
BRANCH  12  13
ATOM     13  C   UNL     1      51.388  21.039  18.014  0.00  0.00    +0.070 C 
BRANCH  13  14
ATOM     14  C   UNL     1      51.954  20.738  16.624  0.00  0.00    +0.176 C 
BRANCH  14  15
ATOM     15  O   UNL     1      51.829  21.896  15.797  0.00  0.00    -0.575 OA
ATOM     16  H   UNL     1      50.962  22.321  15.845  0.00  0.00    +0.384 HD
ENDBRANCH  14  15
ENDBRANCH  13  14
ENDBRANCH  12  13
TORSDOF 3
ENDMDL
MODEL 7
REMARK VINA RESULT:      -4.6      7.202      8.943
REMARK  Name = ZINC95486202
REMARK  6 active torsions:
REMARK  status: ('A' for Active; 'I' for Inactive)
REMARK    1  A    between atoms: C1_1  and  C2_2
REMARK    2  A    between atoms: C6_7  and  C12_18
REMARK    3  A    between atoms: C6_7  and  C13_19
REMARK    4  A    between atoms: C9_11  and  C10_15
REMARK    5  A    between atoms: C10_15  and  C11_16
REMARK    6  A    between atoms: C11_16  and  O4_17
REMARK                            x       y       z     vdW  Elec       q    Type
REMARK                         _______ _______ _______ _____ _____    ______ ____
ROOT
ATOM      1  C   UNL     1      49.784  17.699  17.215  0.00  0.00    +0.053 C 
ATOM      2  C   UNL     1      51.306  17.807  17.296  0.00  0.00    +0.106 C 
ATOM      3  C   UNL     1      51.820  18.227  15.954  0.00  0.00    +0.082 C 
ATOM      4  C   UNL     1      51.943  19.519  15.652  0.00  0.00    -0.060 C 
ATOM      5  C   UNL     1      51.579  20.554  16.621  0.00  0.00    +0.388 C 
ATOM      6  C   UNL     1      51.437  20.232  18.091  0.00  0.00    -0.087 C 
ATOM      7  C   UNL     1      50.031  20.616  18.571  0.00  0.00    +0.064 C 
ATOM      8  C   UNL     1      52.446  21.105  18.871  0.00  0.00    +0.062 C 
ATOM      9  O   UNL     1      51.393  21.700  16.236  0.00  0.00    -0.446 OA
ATOM     10  O   UNL     1      51.814  16.499  17.622  0.00  0.00    -0.187 OA
ATOM     11  O   UNL     1      51.391  16.046  18.959  0.00  0.00    -0.189 OA
ATOM     12  C   UNL     1      51.775  16.918  20.026  0.00  0.00    +0.130 C 
ATOM     17  C   UNL     1      51.228  18.327  19.740  0.00  0.00    +0.036 C 
ATOM     18  C   UNL     1      51.749  18.778  18.377  0.00  0.00    -0.009 C 
ENDROOT
BRANCH  12  13
ATOM     13  C   UNL     1      51.203  16.408  21.346  0.00  0.00    +0.070 C 
BRANCH  13  14
ATOM     14  C   UNL     1      50.307  15.196  21.080  0.00  0.00    +0.176 C 
BRANCH  14  15
ATOM     15  O   UNL     1      49.044  15.638  20.579  0.00  0.00    -0.575 OA
ATOM     16  H   UNL     1      48.534  14.948  20.135  0.00  0.00    +0.384 HD
ENDBRANCH  14  15
ENDBRANCH  13  14
ENDBRANCH  12  13
TORSDOF 3
ENDMDL
MODEL 8
REMARK VINA RESULT:      -4.5     10.164     12.105
REMARK  Name = ZINC95486202
REMARK  6 active torsions:
REMARK  status: ('A' for Active; 'I' for Inactive)
REMARK    1  A    between atoms: C1_1  and  C2_2
REMARK    2  A    between atoms: C6_7  and  C12_18
REMARK    3  A    between atoms: C6_7  and  C13_19
REMARK    4  A    between atoms: C9_11  and  C10_15
REMARK    5  A    between atoms: C10_15  and  C11_16
REMARK    6  A    between atoms: C11_16  and  O4_17
REMARK                            x       y       z     vdW  Elec       q    Type
REMARK                         _______ _______ _______ _____ _____    ______ ____
ROOT
ATOM      1  C   UNL     1      50.553  13.996  16.186  0.00  0.00    +0.053 C 
ATOM      2  C   UNL     1      50.716  12.517  15.838  0.00  0.00    +0.106 C 
ATOM      3  C   UNL     1      51.080  11.777  17.088  0.00  0.00    +0.082 C 
ATOM      4  C   UNL     1      50.130  11.282  17.880  0.00  0.00    -0.060 C 
ATOM      5  C   UNL     1      48.714  11.449  17.549  0.00  0.00    +0.388 C 
ATOM      6  C   UNL     1      48.278  11.819  16.150  0.00  0.00    -0.087 C 
ATOM      7  C   UNL     1      47.451  13.111  16.190  0.00  0.00    +0.064 C 
ATOM      8  C   UNL     1      47.355  10.695  15.624  0.00  0.00    +0.062 C 
ATOM      9  O   UNL     1      47.869  11.280  18.417  0.00  0.00    -0.446 OA
ATOM     10  O   UNL     1      51.791  12.415  14.885  0.00  0.00    -0.187 OA
ATOM     11  O   UNL     1      51.476  13.076  13.605  0.00  0.00    -0.189 OA
ATOM     12  C   UNL     1      50.300  12.580  12.960  0.00  0.00    +0.130 C 
ATOM     17  C   UNL     1      49.112  12.696  13.930  0.00  0.00    +0.036 C 
ATOM     18  C   UNL     1      49.460  11.940  15.210  0.00  0.00    -0.009 C 
ENDROOT
BRANCH  12  13
ATOM     13  C   UNL     1      50.012  13.397  11.703  0.00  0.00    +0.070 C 
BRANCH  13  14
ATOM     14  C   UNL     1      51.138  13.184  10.688  0.00  0.00    +0.176 C 
BRANCH  14  15
ATOM     15  O   UNL     1      52.225  14.060  10.990  0.00  0.00    -0.575 OA
ATOM     16  H   UNL     1      52.957  14.010  10.362  0.00  0.00    +0.384 HD
ENDBRANCH  14  15
ENDBRANCH  13  14
ENDBRANCH  12  13
TORSDOF 3
ENDMDL
MODEL 9
REMARK VINA RESULT:      -4.5      8.462     10.397
REMARK  Name = ZINC95486202
REMARK  6 active torsions:
REMARK  status: ('A' for Active; 'I' for Inactive)
REMARK    1  A    between atoms: C1_1  and  C2_2
REMARK    2  A    between atoms: C6_7  and  C12_18
REMARK    3  A    between atoms: C6_7  and  C13_19
REMARK    4  A    between atoms: C9_11  and  C10_15
REMARK    5  A    between atoms: C10_15  and  C11_16
REMARK    6  A    between atoms: C11_16  and  O4_17
REMARK                            x       y       z     vdW  Elec       q    Type
REMARK                         _______ _______ _______ _____ _____    ______ ____
ROOT
ATOM      1  C   UNL     1      48.044  11.071  17.251  0.00  0.00    +0.053 C 
ATOM      2  C   UNL     1      47.163  11.835  16.264  0.00  0.00    +0.106 C 
ATOM      3  C   UNL     1      45.736  11.684  16.694  0.00  0.00    +0.082 C 
ATOM      4  C   UNL     1      45.192  12.552  17.544  0.00  0.00    -0.060 C 
ATOM      5  C   UNL     1      45.972  13.669  18.080  0.00  0.00    +0.388 C 
ATOM      6  C   UNL     1      47.254  14.115  17.415  0.00  0.00    -0.087 C 
ATOM      7  C   UNL     1      48.409  14.054  18.424  0.00  0.00    +0.064 C 
ATOM      8  C   UNL     1      47.084  15.593  16.994  0.00  0.00    +0.062 C 
ATOM      9  O   UNL     1      45.578  14.255  19.079  0.00  0.00    -0.446 OA
ATOM     10  O   UNL     1      47.345  11.233  14.969  0.00  0.00    -0.187 OA
ATOM     11  O   UNL     1      48.719  11.395  14.459  0.00  0.00    -0.189 OA
ATOM     12  C   UNL     1      49.151  12.754  14.350  0.00  0.00    +0.130 C 
ATOM     17  C   UNL     1      49.004  13.436  15.721  0.00  0.00    +0.036 C 
ATOM     18  C   UNL     1      47.552  13.300  16.173  0.00  0.00    -0.009 C 
ENDROOT
BRANCH  12  13
ATOM     13  C   UNL     1      50.613  12.802  13.912  0.00  0.00    +0.070 C 
BRANCH  13  14
ATOM     14  C   UNL     1      50.684  12.993  12.395  0.00  0.00    +0.176 C 
BRANCH  14  15
ATOM     15  O   UNL     1      49.361  13.103  11.866  0.00  0.00    -0.575 OA
ATOM     16  H   UNL     1      48.969  13.981  11.967  0.00  0.00    +0.384 HD
ENDBRANCH  14  15
ENDBRANCH  13  14
ENDBRANCH  12  13
TORSDOF 3
ENDMDL
