MODEL 1
REMARK VINA RESULT:      -6.2      0.000      0.000
REMARK  Name = ZINC95486108
REMARK  16 active torsions:
REMARK  status: ('A' for Active; 'I' for Inactive)
REMARK    1  A    between atoms: C1_1  and  C2_2
REMARK    2  A    between atoms: C2_2  and  C3_3
REMARK    3  A    between atoms: C2_2  and  C4_4
REMARK    4  A    between atoms: C5_5  and  C6_6
REMARK    5  A    between atoms: C6_6  and  C7_7
REMARK    6  A    between atoms: C11_13  and  C26_31
REMARK    7  A    between atoms: C13_16  and  C22_27
REMARK    8  A    between atoms: C14_17  and  C15_19
REMARK    9  A    between atoms: C15_19  and  C16_20
REMARK   10  A    between atoms: C16_20  and  C17_21
REMARK   11  A    between atoms: C18_22  and  C19_23
REMARK   12  A    between atoms: C18_22  and  C20_24
REMARK   13  A    between atoms: C23_28  and  C24_29
REMARK   14  A    between atoms: C23_28  and  C25_30
REMARK   15  A    between atoms: C26_31  and  C27_33
REMARK   16  A    between atoms: C31_37  and  O4_39
REMARK                            x       y       z     vdW  Elec       q    Type
REMARK                         _______ _______ _______ _____ _____    ______ ____
ROOT
ATOM      6  C   UNL     1      48.709  19.166  20.710  0.00  0.00    -0.013 C 
ATOM      7  C   UNL     1      48.960  18.807  22.177  0.00  0.00    +0.072 C 
ATOM      8  C   UNL     1      48.575  17.329  22.385  0.00  0.00    +0.005 C 
ATOM      9  C   UNL     1      47.144  17.172  21.931  0.00  0.00    +0.115 C 
ATOM     10  C   UNL     1      46.823  16.844  20.669  0.00  0.00    -0.233 C 
ATOM     22  C   UNL     1      47.841  16.570  19.643  0.00  0.00    +0.410 C 
ATOM     23  C   UNL     1      49.293  16.854  19.969  0.00  0.00    -0.096 C 
ATOM     28  O   UNL     1      47.525  16.127  18.559  0.00  0.00    -0.395 OA
ATOM     29  C   UNL     1      49.478  16.519  21.466  0.00  0.00    +0.384 C 
ATOM     30  O   UNL     1      50.246  15.684  21.878  0.00  0.00    -0.427 OA
ATOM     31  C   UNL     1      49.618  18.339  19.803  0.00  0.00    +0.030 C 
ENDROOT
BRANCH  23  24
ATOM     24  C   UNL     1      50.211  16.027  19.107  0.00  0.00    -0.038 C 
ATOM     25  C   UNL     1      50.243  16.218  17.812  0.00  0.00    -0.087 C 
ATOM     26  C   UNL     1      51.056  15.303  16.934  0.00  0.00    +0.079 C 
ATOM     27  C   UNL     1      49.466  17.355  17.199  0.00  0.00    +0.077 C 
ENDBRANCH  23  24
BRANCH  10  11
ATOM     11  C   UNL     1      45.395  16.754  20.298  0.00  0.00    +0.453 C 
ATOM     21  O   UNL     1      44.848  15.669  20.246  0.00  0.00    -0.487 OA
BRANCH  11  12
ATOM     12  C   UNL     1      44.635  17.979  19.988  0.00  0.00    -0.297 A 
ATOM     13  C   UNL     1      45.095  18.859  19.004  0.00  0.00    +0.082 A 
ATOM     14  C   UNL     1      44.384  20.003  18.716  0.00  0.00    -0.162 A 
ATOM     15  C   UNL     1      43.210  20.286  19.403  0.00  0.00    +0.285 A 
ATOM     16  O   UNL     1      42.513  21.415  19.116  0.00  0.00    -0.691 OA
ATOM     17  C   UNL     1      42.746  19.413  20.386  0.00  0.00    -0.065 A 
ATOM     20  C   UNL     1      43.451  18.261  20.676  0.00  0.00    +0.082 A 
BRANCH  17  18
ATOM     18  O   UNL     1      41.596  19.693  21.057  0.00  0.00    -0.489 OA
ATOM     19  H   UNL     1      41.007  18.934  21.162  0.00  0.00    +0.357 HD
ENDBRANCH  17  18
ENDBRANCH  11  12
ENDBRANCH  10  11
BRANCH   6   5
ATOM      5  C   UNL     1      48.997  20.653  20.496  0.00  0.00    +0.067 C 
BRANCH   5   4
ATOM      3  C   UNL     1      46.809  21.671  20.863  0.00  0.00    -0.053 C 
ATOM      4  C   UNL     1      48.027  21.474  21.304  0.00  0.00    -0.035 C 
BRANCH   3   2
ATOM      1  C   UNL     1      44.988  23.349  20.731  0.00  0.00    +0.019 C 
ATOM      2  C   UNL     1      45.838  22.492  21.672  0.00  0.00    +0.004 C 
ATOM     38  C   UNL     1      44.928  21.561  22.476  0.00  0.00    +0.018 C 
ENDBRANCH   3   2
ENDBRANCH   5   4
ENDBRANCH   6   5
BRANCH  31  32
ATOM     32  C   UNL     1      51.080  18.627  20.152  0.00  0.00    +0.034 C 
BRANCH  32  33
ATOM     33  C   UNL     1      51.572  19.824  19.334  0.00  0.00    +0.055 C 
BRANCH  33  34
ATOM     34  C   UNL     1      52.099  19.341  18.007  0.00  0.00    -0.056 C 
ATOM     35  C   UNL     1      51.840  20.016  16.915  0.00  0.00    -0.141 C 
ATOM     36  C   UNL     1      52.286  19.486  15.577  0.00  0.00    +0.066 C 
ATOM     37  C   UNL     1      51.094  21.324  16.997  0.00  0.00    +0.071 C 
ENDBRANCH  33  34
ENDBRANCH  32  33
ENDBRANCH  31  32
TORSDOF 10
ENDMDL
MODEL 2
REMARK VINA RESULT:      -6.0      2.479      5.183
REMARK  Name = ZINC95486108
REMARK  16 active torsions:
REMARK  status: ('A' for Active; 'I' for Inactive)
REMARK    1  A    between atoms: C1_1  and  C2_2
REMARK    2  A    between atoms: C2_2  and  C3_3
REMARK    3  A    between atoms: C2_2  and  C4_4
REMARK    4  A    between atoms: C5_5  and  C6_6
REMARK    5  A    between atoms: C6_6  and  C7_7
REMARK    6  A    between atoms: C11_13  and  C26_31
REMARK    7  A    between atoms: C13_16  and  C22_27
REMARK    8  A    between atoms: C14_17  and  C15_19
REMARK    9  A    between atoms: C15_19  and  C16_20
REMARK   10  A    between atoms: C16_20  and  C17_21
REMARK   11  A    between atoms: C18_22  and  C19_23
REMARK   12  A    between atoms: C18_22  and  C20_24
REMARK   13  A    between atoms: C23_28  and  C24_29
REMARK   14  A    between atoms: C23_28  and  C25_30
REMARK   15  A    between atoms: C26_31  and  C27_33
REMARK   16  A    between atoms: C31_37  and  O4_39
REMARK                            x       y       z     vdW  Elec       q    Type
REMARK                         _______ _______ _______ _____ _____    ______ ____
ROOT
ATOM      6  C   UNL     1      49.525  17.339  20.487  0.00  0.00    -0.013 C 
ATOM      7  C   UNL     1      50.907  16.924  20.998  0.00  0.00    +0.072 C 
ATOM      8  C   UNL     1      51.806  16.638  19.779  0.00  0.00    +0.005 C 
ATOM      9  C   UNL     1      51.104  15.599  18.939  0.00  0.00    +0.115 C 
ATOM     10  C   UNL     1      50.255  15.928  17.952  0.00  0.00    -0.233 C 
ATOM     22  C   UNL     1      49.977  17.325  17.585  0.00  0.00    +0.410 C 
ATOM     23  C   UNL     1      50.517  18.428  18.472  0.00  0.00    -0.096 C 
ATOM     28  O   UNL     1      49.330  17.589  16.594  0.00  0.00    -0.395 OA
ATOM     29  C   UNL     1      51.887  17.940  18.994  0.00  0.00    +0.384 C 
ATOM     30  O   UNL     1      52.928  18.513  18.787  0.00  0.00    -0.427 OA
ATOM     31  C   UNL     1      49.625  18.641  19.696  0.00  0.00    +0.030 C 
ENDROOT
BRANCH  23  24
ATOM     24  C   UNL     1      50.654  19.718  17.705  0.00  0.00    -0.038 C 
ATOM     25  C   UNL     1      51.394  19.763  16.625  0.00  0.00    -0.087 C 
ATOM     26  C   UNL     1      51.642  21.080  15.935  0.00  0.00    +0.079 C 
ATOM     27  C   UNL     1      51.997  18.498  16.072  0.00  0.00    +0.077 C 
ENDBRANCH  23  24
BRANCH  10  11
ATOM     11  C   UNL     1      49.576  14.847  17.207  0.00  0.00    +0.453 C 
ATOM     21  O   UNL     1      50.100  14.367  16.221  0.00  0.00    -0.487 OA
BRANCH  11  12
ATOM     12  C   UNL     1      48.263  14.353  17.660  0.00  0.00    -0.297 A 
ATOM     13  C   UNL     1      47.804  14.657  18.946  0.00  0.00    +0.082 A 
ATOM     14  C   UNL     1      46.577  14.194  19.366  0.00  0.00    -0.162 A 
ATOM     15  C   UNL     1      45.792  13.423  18.517  0.00  0.00    +0.285 A 
ATOM     16  O   UNL     1      44.584  12.968  18.936  0.00  0.00    -0.691 OA
ATOM     17  C   UNL     1      46.244  13.116  17.234  0.00  0.00    -0.065 A 
ATOM     20  C   UNL     1      47.471  13.581  16.803  0.00  0.00    +0.082 A 
BRANCH  17  18
ATOM     18  O   UNL     1      45.475  12.361  16.405  0.00  0.00    -0.489 OA
ATOM     19  H   UNL     1      45.681  12.472  15.467  0.00  0.00    +0.357 HD
ENDBRANCH  17  18
ENDBRANCH  11  12
ENDBRANCH  10  11
BRANCH   6   5
ATOM      5  C   UNL     1      48.585  17.541  21.678  0.00  0.00    +0.067 C 
BRANCH   5   4
ATOM      3  C   UNL     1      46.199  18.031  21.839  0.00  0.00    -0.053 C 
ATOM      4  C   UNL     1      47.157  17.385  21.223  0.00  0.00    -0.035 C 
BRANCH   3   2
ATOM      1  C   UNL     1      44.011  19.179  21.632  0.00  0.00    +0.019 C 
ATOM      2  C   UNL     1      44.770  17.875  21.384  0.00  0.00    +0.004 C 
ATOM     38  C   UNL     1      44.744  17.547  19.889  0.00  0.00    +0.018 C 
ENDBRANCH   3   2
ENDBRANCH   5   4
ENDBRANCH   6   5
BRANCH  31  32
ATOM     32  C   UNL     1      50.183  19.742  20.601  0.00  0.00    +0.034 C 
BRANCH  32  33
ATOM     33  C   UNL     1      49.101  20.797  20.846  0.00  0.00    +0.055 C 
BRANCH  33  34
ATOM     34  C   UNL     1      48.073  20.726  19.745  0.00  0.00    -0.056 C 
ATOM     35  C   UNL     1      46.863  21.186  19.948  0.00  0.00    -0.141 C 
ATOM     36  C   UNL     1      45.809  21.031  18.884  0.00  0.00    +0.066 C 
ATOM     37  C   UNL     1      46.527  21.870  21.249  0.00  0.00    +0.071 C 
ENDBRANCH  33  34
ENDBRANCH  32  33
ENDBRANCH  31  32
TORSDOF 10
ENDMDL
MODEL 3
REMARK VINA RESULT:      -5.9      1.908      4.197
REMARK  Name = ZINC95486108
REMARK  16 active torsions:
REMARK  status: ('A' for Active; 'I' for Inactive)
REMARK    1  A    between atoms: C1_1  and  C2_2
REMARK    2  A    between atoms: C2_2  and  C3_3
REMARK    3  A    between atoms: C2_2  and  C4_4
REMARK    4  A    between atoms: C5_5  and  C6_6
REMARK    5  A    between atoms: C6_6  and  C7_7
REMARK    6  A    between atoms: C11_13  and  C26_31
REMARK    7  A    between atoms: C13_16  and  C22_27
REMARK    8  A    between atoms: C14_17  and  C15_19
REMARK    9  A    between atoms: C15_19  and  C16_20
REMARK   10  A    between atoms: C16_20  and  C17_21
REMARK   11  A    between atoms: C18_22  and  C19_23
REMARK   12  A    between atoms: C18_22  and  C20_24
REMARK   13  A    between atoms: C23_28  and  C24_29
REMARK   14  A    between atoms: C23_28  and  C25_30
REMARK   15  A    between atoms: C26_31  and  C27_33
REMARK   16  A    between atoms: C31_37  and  O4_39
REMARK                            x       y       z     vdW  Elec       q    Type
REMARK                         _______ _______ _______ _____ _____    ______ ____
ROOT
ATOM      6  C   UNL     1      47.956  18.036  21.261  0.00  0.00    -0.013 C 
ATOM      7  C   UNL     1      47.317  17.362  22.477  0.00  0.00    +0.072 C 
ATOM      8  C   UNL     1      45.809  17.197  22.201  0.00  0.00    +0.005 C 
ATOM      9  C   UNL     1      45.262  18.566  21.876  0.00  0.00    +0.115 C 
ATOM     10  C   UNL     1      45.210  19.039  20.620  0.00  0.00    -0.233 C 
ATOM     22  C   UNL     1      45.644  18.244  19.460  0.00  0.00    +0.410 C 
ATOM     23  C   UNL     1      46.347  16.926  19.708  0.00  0.00    -0.096 C 
ATOM     28  O   UNL     1      45.443  18.636  18.331  0.00  0.00    -0.395 OA
ATOM     29  C   UNL     1      45.696  16.312  20.967  0.00  0.00    +0.384 C 
ATOM     30  O   UNL     1      45.131  15.246  20.980  0.00  0.00    -0.427 OA
ATOM     31  C   UNL     1      47.826  17.139  20.032  0.00  0.00    +0.030 C 
ENDROOT
BRANCH  23  24
ATOM     24  C   UNL     1      46.208  16.009  18.520  0.00  0.00    -0.038 C 
ATOM     25  C   UNL     1      46.796  16.309  17.389  0.00  0.00    -0.087 C 
ATOM     26  C   UNL     1      46.547  15.468  16.164  0.00  0.00    +0.079 C 
ATOM     27  C   UNL     1      47.721  17.496  17.312  0.00  0.00    +0.077 C 
ENDBRANCH  23  24
BRANCH  10  11
ATOM     11  C   UNL     1      44.700  20.407  20.396  0.00  0.00    +0.453 C 
ATOM     21  O   UNL     1      45.414  21.366  20.618  0.00  0.00    -0.487 OA
BRANCH  11  12
ATOM     12  C   UNL     1      43.325  20.610  19.904  0.00  0.00    -0.297 A 
ATOM     13  C   UNL     1      42.357  19.619  20.100  0.00  0.00    +0.082 A 
ATOM     14  C   UNL     1      41.073  19.810  19.640  0.00  0.00    -0.162 A 
ATOM     15  C   UNL     1      40.735  20.985  18.981  0.00  0.00    +0.285 A 
ATOM     16  O   UNL     1      39.468  21.169  18.529  0.00  0.00    -0.691 OA
ATOM     17  C   UNL     1      41.695  21.977  18.781  0.00  0.00    -0.065 A 
ATOM     20  C   UNL     1      42.983  21.795  19.245  0.00  0.00    +0.082 A 
BRANCH  17  18
ATOM     18  O   UNL     1      41.361  23.126  18.135  0.00  0.00    -0.489 OA
ATOM     19  H   UNL     1      41.476  23.085  17.175  0.00  0.00    +0.357 HD
ENDBRANCH  17  18
ENDBRANCH  11  12
ENDBRANCH  10  11
BRANCH   6   5
ATOM      5  C   UNL     1      49.437  18.296  21.545  0.00  0.00    +0.067 C 
BRANCH   5   4
ATOM      3  C   UNL     1      51.002  19.225  19.919  0.00  0.00    -0.053 C 
ATOM      4  C   UNL     1      49.933  19.405  20.656  0.00  0.00    -0.035 C 
BRANCH   3   2
ATOM      1  C   UNL     1      52.474  19.765  17.998  0.00  0.00    +0.019 C 
ATOM      2  C   UNL     1      51.498  20.336  19.028  0.00  0.00    +0.004 C 
ATOM     38  C   UNL     1      50.313  20.979  18.305  0.00  0.00    +0.018 C 
ENDBRANCH   3   2
ENDBRANCH   5   4
ENDBRANCH   6   5
BRANCH  31  32
ATOM     32  C   UNL     1      48.531  15.808  20.302  0.00  0.00    +0.034 C 
BRANCH  32  33
ATOM     33  C   UNL     1      49.862  15.774  19.548  0.00  0.00    +0.055 C 
BRANCH  33  34
ATOM     34  C   UNL     1      49.824  14.680  18.511  0.00  0.00    -0.056 C 
ATOM     35  C   UNL     1      50.368  14.873  17.335  0.00  0.00    -0.141 C 
ATOM     36  C   UNL     1      50.249  13.817  16.267  0.00  0.00    +0.066 C 
ATOM     37  C   UNL     1      51.113  16.153  17.051  0.00  0.00    +0.071 C 
ENDBRANCH  33  34
ENDBRANCH  32  33
ENDBRANCH  31  32
TORSDOF 10
ENDMDL
MODEL 4
REMARK VINA RESULT:      -5.9      2.364      5.119
REMARK  Name = ZINC95486108
REMARK  16 active torsions:
REMARK  status: ('A' for Active; 'I' for Inactive)
REMARK    1  A    between atoms: C1_1  and  C2_2
REMARK    2  A    between atoms: C2_2  and  C3_3
REMARK    3  A    between atoms: C2_2  and  C4_4
REMARK    4  A    between atoms: C5_5  and  C6_6
REMARK    5  A    between atoms: C6_6  and  C7_7
REMARK    6  A    between atoms: C11_13  and  C26_31
REMARK    7  A    between atoms: C13_16  and  C22_27
REMARK    8  A    between atoms: C14_17  and  C15_19
REMARK    9  A    between atoms: C15_19  and  C16_20
REMARK   10  A    between atoms: C16_20  and  C17_21
REMARK   11  A    between atoms: C18_22  and  C19_23
REMARK   12  A    between atoms: C18_22  and  C20_24
REMARK   13  A    between atoms: C23_28  and  C24_29
REMARK   14  A    between atoms: C23_28  and  C25_30
REMARK   15  A    between atoms: C26_31  and  C27_33
REMARK   16  A    between atoms: C31_37  and  O4_39
REMARK                            x       y       z     vdW  Elec       q    Type
REMARK                         _______ _______ _______ _____ _____    ______ ____
ROOT
ATOM      6  C   UNL     1      50.017  16.668  18.006  0.00  0.00    -0.013 C 
ATOM      7  C   UNL     1      50.391  16.291  19.441  0.00  0.00    +0.072 C 
ATOM      8  C   UNL     1      49.089  16.113  20.248  0.00  0.00    +0.005 C 
ATOM      9  C   UNL     1      48.302  17.395  20.115  0.00  0.00    +0.115 C 
ATOM     10  C   UNL     1      47.404  17.587  19.137  0.00  0.00    -0.233 C 
ATOM     22  C   UNL     1      47.085  16.549  18.144  0.00  0.00    +0.410 C 
ATOM     23  C   UNL     1      47.935  15.295  18.109  0.00  0.00    -0.096 C 
ATOM     28  O   UNL     1      46.163  16.694  17.370  0.00  0.00    -0.395 OA
ATOM     29  C   UNL     1      48.319  14.986  19.573  0.00  0.00    +0.384 C 
ATOM     30  O   UNL     1      48.026  13.965  20.144  0.00  0.00    -0.427 OA
ATOM     31  C   UNL     1      49.239  15.531  17.347  0.00  0.00    +0.030 C 
ENDROOT
BRANCH  23  24
ATOM     24  C   UNL     1      47.178  14.149  17.490  0.00  0.00    -0.038 C 
ATOM     25  C   UNL     1      46.073  13.717  18.046  0.00  0.00    -0.087 C 
ATOM     26  C   UNL     1      45.390  12.486  17.508  0.00  0.00    +0.079 C 
ATOM     27  C   UNL     1      45.486  14.450  19.223  0.00  0.00    +0.077 C 
ENDBRANCH  23  24
BRANCH  10  11
ATOM     11  C   UNL     1      46.709  18.889  19.054  0.00  0.00    +0.453 C 
ATOM     21  O   UNL     1      47.314  19.877  18.686  0.00  0.00    -0.487 OA
BRANCH  11  12
ATOM     12  C   UNL     1      45.285  18.989  19.421  0.00  0.00    -0.297 A 
ATOM     13  C   UNL     1      44.778  18.228  20.479  0.00  0.00    +0.082 A 
ATOM     14  C   UNL     1      43.446  18.323  20.820  0.00  0.00    -0.162 A 
ATOM     15  C   UNL     1      42.604  19.173  20.115  0.00  0.00    +0.285 A 
ATOM     16  O   UNL     1      41.293  19.263  20.454  0.00  0.00    -0.691 OA
ATOM     17  C   UNL     1      43.103  19.935  19.058  0.00  0.00    -0.065 A 
ATOM     20  C   UNL     1      44.438  19.849  18.714  0.00  0.00    +0.082 A 
BRANCH  17  18
ATOM     18  O   UNL     1      42.276  20.766  18.369  0.00  0.00    -0.489 OA
ATOM     19  H   UNL     1      42.675  21.615  18.137  0.00  0.00    +0.357 HD
ENDBRANCH  17  18
ENDBRANCH  11  12
ENDBRANCH  10  11
BRANCH   6   5
ATOM      5  C   UNL     1      51.293  16.941  17.205  0.00  0.00    +0.067 C 
BRANCH   5   4
ATOM      3  C   UNL     1      50.689  19.278  17.565  0.00  0.00    -0.053 C 
ATOM      4  C   UNL     1      51.623  18.409  17.270  0.00  0.00    -0.035 C 
BRANCH   3   2
ATOM      1  C   UNL     1      52.045  20.991  18.739  0.00  0.00    +0.019 C 
ATOM      2  C   UNL     1      51.019  20.747  17.630  0.00  0.00    +0.004 C 
ATOM     38  C   UNL     1      51.602  21.199  16.289  0.00  0.00    +0.018 C 
ENDBRANCH   3   2
ENDBRANCH   5   4
ENDBRANCH   6   5
BRANCH  31  32
ATOM     32  C   UNL     1      50.105  14.270  17.330  0.00  0.00    +0.034 C 
BRANCH  32  33
ATOM     33  C   UNL     1      50.183  13.724  15.902  0.00  0.00    +0.055 C 
BRANCH  33  34
ATOM     34  C   UNL     1      49.859  12.252  15.909  0.00  0.00    -0.056 C 
ATOM     35  C   UNL     1      48.879  11.793  15.172  0.00  0.00    -0.141 C 
ATOM     36  C   UNL     1      48.494  10.339  15.248  0.00  0.00    +0.066 C 
ATOM     37  C   UNL     1      48.135  12.722  14.245  0.00  0.00    +0.071 C 
ENDBRANCH  33  34
ENDBRANCH  32  33
ENDBRANCH  31  32
TORSDOF 10
ENDMDL
MODEL 5
REMARK VINA RESULT:      -5.8      1.884      4.408
REMARK  Name = ZINC95486108
REMARK  16 active torsions:
REMARK  status: ('A' for Active; 'I' for Inactive)
REMARK    1  A    between atoms: C1_1  and  C2_2
REMARK    2  A    between atoms: C2_2  and  C3_3
REMARK    3  A    between atoms: C2_2  and  C4_4
REMARK    4  A    between atoms: C5_5  and  C6_6
REMARK    5  A    between atoms: C6_6  and  C7_7
REMARK    6  A    between atoms: C11_13  and  C26_31
REMARK    7  A    between atoms: C13_16  and  C22_27
REMARK    8  A    between atoms: C14_17  and  C15_19
REMARK    9  A    between atoms: C15_19  and  C16_20
REMARK   10  A    between atoms: C16_20  and  C17_21
REMARK   11  A    between atoms: C18_22  and  C19_23
REMARK   12  A    between atoms: C18_22  and  C20_24
REMARK   13  A    between atoms: C23_28  and  C24_29
REMARK   14  A    between atoms: C23_28  and  C25_30
REMARK   15  A    between atoms: C26_31  and  C27_33
REMARK   16  A    between atoms: C31_37  and  O4_39
REMARK                            x       y       z     vdW  Elec       q    Type
REMARK                         _______ _______ _______ _____ _____    ______ ____
ROOT
ATOM      6  C   UNL     1      47.215  18.515  21.328  0.00  0.00    -0.013 C 
ATOM      7  C   UNL     1      46.580  17.768  22.503  0.00  0.00    +0.072 C 
ATOM      8  C   UNL     1      45.141  17.381  22.107  0.00  0.00    +0.005 C 
ATOM      9  C   UNL     1      44.431  18.652  21.707  0.00  0.00    +0.115 C 
ATOM     10  C   UNL     1      44.418  19.099  20.441  0.00  0.00    -0.233 C 
ATOM     22  C   UNL     1      45.059  18.363  19.339  0.00  0.00    +0.410 C 
ATOM     23  C   UNL     1      45.922  17.165  19.674  0.00  0.00    -0.096 C 
ATOM     28  O   UNL     1      44.899  18.710  18.188  0.00  0.00    -0.395 OA
ATOM     29  C   UNL     1      45.262  16.476  20.890  0.00  0.00    +0.384 C 
ATOM     30  O   UNL     1      44.859  15.338  20.880  0.00  0.00    -0.427 OA
ATOM     31  C   UNL     1      47.322  17.595  20.114  0.00  0.00    +0.030 C 
ENDROOT
BRANCH  23  24
ATOM     24  C   UNL     1      46.018  16.225  18.500  0.00  0.00    -0.038 C 
ATOM     25  C   UNL     1      46.626  16.605  17.404  0.00  0.00    -0.087 C 
ATOM     26  C   UNL     1      46.605  15.721  16.184  0.00  0.00    +0.079 C 
ATOM     27  C   UNL     1      47.347  17.928  17.364  0.00  0.00    +0.077 C 
ENDBRANCH  23  24
BRANCH  10  11
ATOM     11  C   UNL     1      43.736  20.375  20.144  0.00  0.00    +0.453 C 
ATOM     21  O   UNL     1      42.600  20.370  19.711  0.00  0.00    -0.487 OA
BRANCH  11  12
ATOM     12  C   UNL     1      44.433  21.654  20.370  0.00  0.00    -0.297 A 
ATOM     13  C   UNL     1      45.480  21.728  21.296  0.00  0.00    +0.082 A 
ATOM     14  C   UNL     1      46.130  22.924  21.506  0.00  0.00    -0.162 A 
ATOM     15  C   UNL     1      45.749  24.059  20.802  0.00  0.00    +0.285 A 
ATOM     16  O   UNL     1      46.392  25.236  21.013  0.00  0.00    -0.691 OA
ATOM     17  C   UNL     1      44.706  23.993  19.878  0.00  0.00    -0.065 A 
ATOM     20  C   UNL     1      44.053  22.796  19.657  0.00  0.00    +0.082 A 
BRANCH  17  18
ATOM     18  O   UNL     1      44.335  25.106  19.190  0.00  0.00    -0.489 OA
ATOM     19  H   UNL     1      43.503  25.011  18.707  0.00  0.00    +0.357 HD
ENDBRANCH  17  18
ENDBRANCH  11  12
ENDBRANCH  10  11
BRANCH   6   5
ATOM      5  C   UNL     1      48.614  18.991  21.728  0.00  0.00    +0.067 C 
BRANCH   5   4
ATOM      3  C   UNL     1      50.198  19.939  20.132  0.00  0.00    -0.053 C 
ATOM      4  C   UNL     1      49.068  20.070  20.780  0.00  0.00    -0.035 C 
BRANCH   3   2
ATOM      1  C   UNL     1      52.016  21.550  19.630  0.00  0.00    +0.019 C 
ATOM      2  C   UNL     1      50.652  21.019  19.183  0.00  0.00    +0.004 C 
ATOM     38  C   UNL     1      50.768  20.442  17.771  0.00  0.00    +0.018 C 
ENDBRANCH   3   2
ENDBRANCH   5   4
ENDBRANCH   6   5
BRANCH  31  32
ATOM     32  C   UNL     1      48.186  16.384  20.471  0.00  0.00    +0.034 C 
BRANCH  32  33
ATOM     33  C   UNL     1      49.518  16.471  19.723  0.00  0.00    +0.055 C 
BRANCH  33  34
ATOM     34  C   UNL     1      49.660  15.278  18.812  0.00  0.00    -0.056 C 
ATOM     35  C   UNL     1      50.214  15.416  17.633  0.00  0.00    -0.141 C 
ATOM     36  C   UNL     1      50.272  14.247  16.685  0.00  0.00    +0.066 C 
ATOM     37  C   UNL     1      50.792  16.747  17.224  0.00  0.00    +0.071 C 
ENDBRANCH  33  34
ENDBRANCH  32  33
ENDBRANCH  31  32
TORSDOF 10
ENDMDL
MODEL 6
REMARK VINA RESULT:      -5.6      2.359      6.573
REMARK  Name = ZINC95486108
REMARK  16 active torsions:
REMARK  status: ('A' for Active; 'I' for Inactive)
REMARK    1  A    between atoms: C1_1  and  C2_2
REMARK    2  A    between atoms: C2_2  and  C3_3
REMARK    3  A    between atoms: C2_2  and  C4_4
REMARK    4  A    between atoms: C5_5  and  C6_6
REMARK    5  A    between atoms: C6_6  and  C7_7
REMARK    6  A    between atoms: C11_13  and  C26_31
REMARK    7  A    between atoms: C13_16  and  C22_27
REMARK    8  A    between atoms: C14_17  and  C15_19
REMARK    9  A    between atoms: C15_19  and  C16_20
REMARK   10  A    between atoms: C16_20  and  C17_21
REMARK   11  A    between atoms: C18_22  and  C19_23
REMARK   12  A    between atoms: C18_22  and  C20_24
REMARK   13  A    between atoms: C23_28  and  C24_29
REMARK   14  A    between atoms: C23_28  and  C25_30
REMARK   15  A    between atoms: C26_31  and  C27_33
REMARK   16  A    between atoms: C31_37  and  O4_39
REMARK                            x       y       z     vdW  Elec       q    Type
REMARK                         _______ _______ _______ _____ _____    ______ ____
ROOT
ATOM      6  C   UNL     1      46.792  18.531  18.596  0.00  0.00    -0.013 C 
ATOM      7  C   UNL     1      46.529  17.778  17.290  0.00  0.00    +0.072 C 
ATOM      8  C   UNL     1      47.152  16.373  17.410  0.00  0.00    +0.005 C 
ATOM      9  C   UNL     1      48.611  16.558  17.751  0.00  0.00    +0.115 C 
ATOM     10  C   UNL     1      49.049  16.614  19.019  0.00  0.00    -0.233 C 
ATOM     22  C   UNL     1      48.149  16.457  20.172  0.00  0.00    +0.410 C 
ATOM     23  C   UNL     1      46.655  16.423  19.925  0.00  0.00    -0.096 C 
ATOM     28  O   UNL     1      48.594  16.358  21.296  0.00  0.00    -0.395 OA
ATOM     29  C   UNL     1      46.451  15.694  18.578  0.00  0.00    +0.384 C 
ATOM     30  O   UNL     1      45.818  14.674  18.455  0.00  0.00    -0.427 OA
ATOM     31  C   UNL     1      46.088  17.833  19.758  0.00  0.00    +0.030 C 
ENDROOT
BRANCH  23  24
ATOM     24  C   UNL     1      45.940  15.711  21.045  0.00  0.00    -0.038 C 
ATOM     25  C   UNL     1      46.225  14.461  21.314  0.00  0.00    -0.087 C 
ATOM     26  C   UNL     1      45.417  13.708  22.340  0.00  0.00    +0.079 C 
ATOM     27  C   UNL     1      47.359  13.776  20.598  0.00  0.00    +0.077 C 
ENDBRANCH  23  24
BRANCH  10  11
ATOM     11  C   UNL     1      50.489  16.841  19.264  0.00  0.00    +0.453 C 
ATOM     21  O   UNL     1      51.256  15.899  19.297  0.00  0.00    -0.487 OA
BRANCH  11  12
ATOM     12  C   UNL     1      50.994  18.211  19.472  0.00  0.00    -0.297 A 
ATOM     13  C   UNL     1      50.811  19.184  18.484  0.00  0.00    +0.082 A 
ATOM     14  C   UNL     1      51.284  20.462  18.680  0.00  0.00    -0.162 A 
ATOM     15  C   UNL     1      51.944  20.790  19.857  0.00  0.00    +0.285 A 
ATOM     16  O   UNL     1      52.409  22.051  20.046  0.00  0.00    -0.691 OA
ATOM     17  C   UNL     1      52.131  19.825  20.846  0.00  0.00    -0.065 A 
ATOM     20  C   UNL     1      51.654  18.542  20.660  0.00  0.00    +0.082 A 
BRANCH  17  18
ATOM     18  O   UNL     1      52.778  20.148  21.998  0.00  0.00    -0.489 OA
ATOM     19  H   UNL     1      52.291  19.918  22.801  0.00  0.00    +0.357 HD
ENDBRANCH  17  18
ENDBRANCH  11  12
ENDBRANCH  10  11
BRANCH   6   5
ATOM      5  C   UNL     1      46.264  19.962  18.470  0.00  0.00    +0.067 C 
BRANCH   5   4
ATOM      3  C   UNL     1      47.942  20.622  20.115  0.00  0.00    -0.053 C 
ATOM      4  C   UNL     1      46.726  20.775  19.651  0.00  0.00    -0.035 C 
BRANCH   3   2
ATOM      1  C   UNL     1      47.251  22.303  21.802  0.00  0.00    +0.019 C 
ATOM      2  C   UNL     1      48.405  21.436  21.297  0.00  0.00    +0.004 C 
ATOM     38  C   UNL     1      48.864  20.496  22.414  0.00  0.00    +0.018 C 
ENDBRANCH   3   2
ENDBRANCH   5   4
ENDBRANCH   6   5
BRANCH  31  32
ATOM     32  C   UNL     1      44.582  17.795  19.488  0.00  0.00    +0.034 C 
BRANCH  32  33
ATOM     33  C   UNL     1      43.859  18.664  20.520  0.00  0.00    +0.055 C 
BRANCH  33  34
ATOM     34  C   UNL     1      42.947  19.632  19.809  0.00  0.00    -0.056 C 
ATOM     35  C   UNL     1      41.664  19.637  20.072  0.00  0.00    -0.141 C 
ATOM     36  C   UNL     1      40.739  20.537  19.296  0.00  0.00    +0.066 C 
ATOM     37  C   UNL     1      41.113  18.740  21.151  0.00  0.00    +0.071 C 
ENDBRANCH  33  34
ENDBRANCH  32  33
ENDBRANCH  31  32
TORSDOF 10
ENDMDL
MODEL 7
REMARK VINA RESULT:      -5.5      3.052      6.675
REMARK  Name = ZINC95486108
REMARK  16 active torsions:
REMARK  status: ('A' for Active; 'I' for Inactive)
REMARK    1  A    between atoms: C1_1  and  C2_2
REMARK    2  A    between atoms: C2_2  and  C3_3
REMARK    3  A    between atoms: C2_2  and  C4_4
REMARK    4  A    between atoms: C5_5  and  C6_6
REMARK    5  A    between atoms: C6_6  and  C7_7
REMARK    6  A    between atoms: C11_13  and  C26_31
REMARK    7  A    between atoms: C13_16  and  C22_27
REMARK    8  A    between atoms: C14_17  and  C15_19
REMARK    9  A    between atoms: C15_19  and  C16_20
REMARK   10  A    between atoms: C16_20  and  C17_21
REMARK   11  A    between atoms: C18_22  and  C19_23
REMARK   12  A    between atoms: C18_22  and  C20_24
REMARK   13  A    between atoms: C23_28  and  C24_29
REMARK   14  A    between atoms: C23_28  and  C25_30
REMARK   15  A    between atoms: C26_31  and  C27_33
REMARK   16  A    between atoms: C31_37  and  O4_39
REMARK                            x       y       z     vdW  Elec       q    Type
REMARK                         _______ _______ _______ _____ _____    ______ ____
ROOT
ATOM      6  C   UNL     1      47.607  16.110  17.715  0.00  0.00    -0.013 C 
ATOM      7  C   UNL     1      47.531  15.022  16.641  0.00  0.00    +0.072 C 
ATOM      8  C   UNL     1      48.602  13.959  16.954  0.00  0.00    +0.005 C 
ATOM      9  C   UNL     1      49.929  14.674  17.038  0.00  0.00    +0.115 C 
ATOM     10  C   UNL     1      50.407  15.169  18.191  0.00  0.00    -0.233 C 
ATOM     22  C   UNL     1      49.694  15.016  19.469  0.00  0.00    +0.410 C 
ATOM     23  C   UNL     1      48.289  14.451  19.451  0.00  0.00    -0.096 C 
ATOM     28  O   UNL     1      50.220  15.336  20.514  0.00  0.00    -0.395 OA
ATOM     29  C   UNL     1      48.256  13.394  18.325  0.00  0.00    +0.384 C 
ATOM     30  O   UNL     1      48.002  12.228  18.504  0.00  0.00    -0.427 OA
ATOM     31  C   UNL     1      47.264  15.525  19.084  0.00  0.00    +0.030 C 
ENDROOT
BRANCH  23  24
ATOM     24  C   UNL     1      47.937  13.840  20.783  0.00  0.00    -0.038 C 
ATOM     25  C   UNL     1      48.629  12.827  21.242  0.00  0.00    -0.087 C 
ATOM     26  C   UNL     1      48.195  12.128  22.505  0.00  0.00    +0.079 C 
ATOM     27  C   UNL     1      49.858  12.360  20.507  0.00  0.00    +0.077 C 
ENDBRANCH  23  24
BRANCH  10  11
ATOM     11  C   UNL     1      51.695  15.893  18.175  0.00  0.00    +0.453 C 
ATOM     21  O   UNL     1      52.711  15.333  18.539  0.00  0.00    -0.487 OA
BRANCH  11  12
ATOM     12  C   UNL     1      51.747  17.295  17.721  0.00  0.00    -0.297 A 
ATOM     13  C   UNL     1      51.296  17.634  16.441  0.00  0.00    +0.082 A 
ATOM     14  C   UNL     1      51.346  18.945  16.019  0.00  0.00    -0.162 A 
ATOM     15  C   UNL     1      51.845  19.931  16.860  0.00  0.00    +0.285 A 
ATOM     16  O   UNL     1      51.893  21.221  16.439  0.00  0.00    -0.691 OA
ATOM     17  C   UNL     1      52.296  19.599  18.137  0.00  0.00    -0.065 A 
ATOM     20  C   UNL     1      52.244  18.289  18.570  0.00  0.00    +0.082 A 
BRANCH  17  18
ATOM     18  O   UNL     1      52.784  20.567  18.959  0.00  0.00    -0.489 OA
ATOM     19  H   UNL     1      53.077  21.365  18.497  0.00  0.00    +0.357 HD
ENDBRANCH  17  18
ENDBRANCH  11  12
ENDBRANCH  10  11
BRANCH   6   5
ATOM      5  C   UNL     1      46.614  17.225  17.378  0.00  0.00    +0.067 C 
BRANCH   5   4
ATOM      3  C   UNL     1      48.276  18.651  18.457  0.00  0.00    -0.053 C 
ATOM      4  C   UNL     1      47.036  18.498  18.064  0.00  0.00    -0.035 C 
BRANCH   3   2
ATOM      1  C   UNL     1      47.501  20.873  19.238  0.00  0.00    +0.019 C 
ATOM      2  C   UNL     1      48.698  19.925  19.143  0.00  0.00    +0.004 C 
ATOM     38  C   UNL     1      49.205  19.602  20.551  0.00  0.00    +0.018 C 
ENDBRANCH   3   2
ENDBRANCH   5   4
ENDBRANCH   6   5
BRANCH  31  32
ATOM     32  C   UNL     1      45.847  14.948  19.047  0.00  0.00    +0.034 C 
BRANCH  32  33
ATOM     33  C   UNL     1      45.105  15.337  20.327  0.00  0.00    +0.055 C 
BRANCH  33  34
ATOM     34  C   UNL     1      44.755  16.803  20.278  0.00  0.00    -0.056 C 
ATOM     35  C   UNL     1      45.295  17.635  21.134  0.00  0.00    -0.141 C 
ATOM     36  C   UNL     1      44.876  19.081  21.147  0.00  0.00    +0.066 C 
ATOM     37  C   UNL     1      46.337  17.143  22.107  0.00  0.00    +0.071 C 
ENDBRANCH  33  34
ENDBRANCH  32  33
ENDBRANCH  31  32
TORSDOF 10
ENDMDL
MODEL 8
REMARK VINA RESULT:      -5.4      3.483      7.955
REMARK  Name = ZINC95486108
REMARK  16 active torsions:
REMARK  status: ('A' for Active; 'I' for Inactive)
REMARK    1  A    between atoms: C1_1  and  C2_2
REMARK    2  A    between atoms: C2_2  and  C3_3
REMARK    3  A    between atoms: C2_2  and  C4_4
REMARK    4  A    between atoms: C5_5  and  C6_6
REMARK    5  A    between atoms: C6_6  and  C7_7
REMARK    6  A    between atoms: C11_13  and  C26_31
REMARK    7  A    between atoms: C13_16  and  C22_27
REMARK    8  A    between atoms: C14_17  and  C15_19
REMARK    9  A    between atoms: C15_19  and  C16_20
REMARK   10  A    between atoms: C16_20  and  C17_21
REMARK   11  A    between atoms: C18_22  and  C19_23
REMARK   12  A    between atoms: C18_22  and  C20_24
REMARK   13  A    between atoms: C23_28  and  C24_29
REMARK   14  A    between atoms: C23_28  and  C25_30
REMARK   15  A    between atoms: C26_31  and  C27_33
REMARK   16  A    between atoms: C31_37  and  O4_39
REMARK                            x       y       z     vdW  Elec       q    Type
REMARK                         _______ _______ _______ _____ _____    ______ ____
ROOT
ATOM      6  C   UNL     1      49.685  18.900  21.161  0.00  0.00    -0.013 C 
ATOM      7  C   UNL     1      50.159  19.904  22.215  0.00  0.00    +0.072 C 
ATOM      8  C   UNL     1      51.688  20.048  22.092  0.00  0.00    +0.005 C 
ATOM      9  C   UNL     1      52.280  18.666  22.224  0.00  0.00    +0.115 C 
ATOM     10  C   UNL     1      52.495  17.872  21.163  0.00  0.00    -0.233 C 
ATOM     22  C   UNL     1      52.212  18.305  19.785  0.00  0.00    +0.410 C 
ATOM     23  C   UNL     1      51.476  19.612  19.574  0.00  0.00    -0.096 C 
ATOM     28  O   UNL     1      52.559  17.630  18.840  0.00  0.00    -0.395 OA
ATOM     29  C   UNL     1      51.956  20.570  20.687  0.00  0.00    +0.384 C 
ATOM     30  O   UNL     1      52.510  21.621  20.477  0.00  0.00    -0.427 OA
ATOM     31  C   UNL     1      49.968  19.436  19.759  0.00  0.00    +0.030 C 
ENDROOT
BRANCH  23  24
ATOM     24  C   UNL     1      51.764  20.177  18.207  0.00  0.00    -0.038 C 
ATOM     25  C   UNL     1      51.332  19.556  17.137  0.00  0.00    -0.087 C 
ATOM     26  C   UNL     1      51.734  20.043  15.769  0.00  0.00    +0.079 C 
ATOM     27  C   UNL     1      50.434  18.354  17.275  0.00  0.00    +0.077 C 
ENDBRANCH  23  24
BRANCH  10  11
ATOM     11  C   UNL     1      53.037  16.516  21.386  0.00  0.00    +0.453 C 
ATOM     21  O   UNL     1      52.284  15.595  21.638  0.00  0.00    -0.487 OA
BRANCH  11  12
ATOM     12  C   UNL     1      54.490  16.280  21.306  0.00  0.00    -0.297 A 
ATOM     13  C   UNL     1      55.288  16.426  22.446  0.00  0.00    +0.082 A 
ATOM     14  C   UNL     1      56.646  16.206  22.369  0.00  0.00    -0.162 A 
ATOM     15  C   UNL     1      57.226  15.838  21.161  0.00  0.00    +0.285 A 
ATOM     16  O   UNL     1      58.564  15.622  21.090  0.00  0.00    -0.691 OA
ATOM     17  C   UNL     1      56.436  15.691  20.021  0.00  0.00    -0.065 A 
ATOM     20  C   UNL     1      55.074  15.905  20.092  0.00  0.00    +0.082 A 
BRANCH  17  18
ATOM     18  O   UNL     1      57.007  15.332  18.840  0.00  0.00    -0.489 OA
ATOM     19  H   UNL     1      57.356  14.430  18.830  0.00  0.00    +0.357 HD
ENDBRANCH  17  18
ENDBRANCH  11  12
ENDBRANCH  10  11
BRANCH   6   5
ATOM      5  C   UNL     1      48.181  18.669  21.321  0.00  0.00    +0.067 C 
BRANCH   5   4
ATOM      3  C   UNL     1      46.689  16.752  21.080  0.00  0.00    -0.053 C 
ATOM      4  C   UNL     1      47.813  17.331  20.736  0.00  0.00    -0.035 C 
BRANCH   3   2
ATOM      1  C   UNL     1      45.261  14.746  21.372  0.00  0.00    +0.019 C 
ATOM      2  C   UNL     1      46.321  15.413  20.494  0.00  0.00    +0.004 C 
ATOM     38  C   UNL     1      45.763  15.610  19.082  0.00  0.00    +0.018 C 
ENDBRANCH   3   2
ENDBRANCH   5   4
ENDBRANCH   6   5
BRANCH  31  32
ATOM     32  C   UNL     1      49.229  20.761  19.564  0.00  0.00    +0.034 C 
BRANCH  32  33
ATOM     33  C   UNL     1      48.088  20.566  18.563  0.00  0.00    +0.055 C 
BRANCH  33  34
ATOM     34  C   UNL     1      46.809  21.108  19.148  0.00  0.00    -0.056 C 
ATOM     35  C   UNL     1      45.677  20.481  18.943  0.00  0.00    -0.141 C 
ATOM     36  C   UNL     1      44.386  21.071  19.446  0.00  0.00    +0.066 C 
ATOM     37  C   UNL     1      45.668  19.167  18.202  0.00  0.00    +0.071 C 
ENDBRANCH  33  34
ENDBRANCH  32  33
ENDBRANCH  31  32
TORSDOF 10
ENDMDL
MODEL 9
REMARK VINA RESULT:      -5.3      2.313      6.027
REMARK  Name = ZINC95486108
REMARK  16 active torsions:
REMARK  status: ('A' for Active; 'I' for Inactive)
REMARK    1  A    between atoms: C1_1  and  C2_2
REMARK    2  A    between atoms: C2_2  and  C3_3
REMARK    3  A    between atoms: C2_2  and  C4_4
REMARK    4  A    between atoms: C5_5  and  C6_6
REMARK    5  A    between atoms: C6_6  and  C7_7
REMARK    6  A    between atoms: C11_13  and  C26_31
REMARK    7  A    between atoms: C13_16  and  C22_27
REMARK    8  A    between atoms: C14_17  and  C15_19
REMARK    9  A    between atoms: C15_19  and  C16_20
REMARK   10  A    between atoms: C16_20  and  C17_21
REMARK   11  A    between atoms: C18_22  and  C19_23
REMARK   12  A    between atoms: C18_22  and  C20_24
REMARK   13  A    between atoms: C23_28  and  C24_29
REMARK   14  A    between atoms: C23_28  and  C25_30
REMARK   15  A    between atoms: C26_31  and  C27_33
REMARK   16  A    between atoms: C31_37  and  O4_39
REMARK                            x       y       z     vdW  Elec       q    Type
REMARK                         _______ _______ _______ _____ _____    ______ ____
ROOT
ATOM      6  C   UNL     1      47.670  18.001  19.036  0.00  0.00    -0.013 C 
ATOM      7  C   UNL     1      46.706  18.268  17.877  0.00  0.00    +0.072 C 
ATOM      8  C   UNL     1      45.439  18.935  18.446  0.00  0.00    +0.005 C 
ATOM      9  C   UNL     1      44.899  18.023  19.522  0.00  0.00    +0.115 C 
ATOM     10  C   UNL     1      45.263  18.136  20.809  0.00  0.00    -0.233 C 
ATOM     22  C   UNL     1      46.184  19.183  21.278  0.00  0.00    +0.410 C 
ATOM     23  C   UNL     1      46.892  20.040  20.248  0.00  0.00    -0.096 C 
ATOM     28  O   UNL     1      46.374  19.357  22.463  0.00  0.00    -0.395 OA
ATOM     29  C   UNL     1      45.894  20.240  19.085  0.00  0.00    +0.384 C 
ATOM     30  O   UNL     1      45.491  21.318  18.723  0.00  0.00    -0.427 OA
ATOM     31  C   UNL     1      48.110  19.319  19.669  0.00  0.00    +0.030 C 
ENDROOT
BRANCH  23  24
ATOM     24  C   UNL     1      47.309  21.361  20.841  0.00  0.00    -0.038 C 
ATOM     25  C   UNL     1      46.407  22.173  21.333  0.00  0.00    -0.087 C 
ATOM     26  C   UNL     1      46.806  23.549  21.801  0.00  0.00    +0.079 C 
ATOM     27  C   UNL     1      44.970  21.732  21.431  0.00  0.00    +0.077 C 
ENDBRANCH  23  24
BRANCH  10  11
ATOM     11  C   UNL     1      44.720  17.174  21.790  0.00  0.00    +0.453 C 
ATOM     21  O   UNL     1      43.737  17.463  22.444  0.00  0.00    -0.487 OA
BRANCH  11  12
ATOM     12  C   UNL     1      45.371  15.865  21.977  0.00  0.00    -0.297 A 
ATOM     13  C   UNL     1      44.598  14.725  22.223  0.00  0.00    +0.082 A 
ATOM     14  C   UNL     1      45.209  13.503  22.397  0.00  0.00    -0.162 A 
ATOM     15  C   UNL     1      46.592  13.398  22.331  0.00  0.00    +0.285 A 
ATOM     16  O   UNL     1      47.189  12.191  22.505  0.00  0.00    -0.691 OA
ATOM     17  C   UNL     1      47.369  14.530  22.087  0.00  0.00    -0.065 A 
ATOM     20  C   UNL     1      46.764  15.758  21.905  0.00  0.00    +0.082 A 
BRANCH  17  18
ATOM     18  O   UNL     1      48.724  14.424  22.023  0.00  0.00    -0.489 OA
ATOM     19  H   UNL     1      49.170  15.237  21.749  0.00  0.00    +0.357 HD
ENDBRANCH  17  18
ENDBRANCH  11  12
ENDBRANCH  10  11
BRANCH   6   5
ATOM      5  C   UNL     1      48.899  17.256  18.511  0.00  0.00    +0.067 C 
BRANCH   5   4
ATOM      3  C   UNL     1      47.304  15.416  18.344  0.00  0.00    -0.053 C 
ATOM      4  C   UNL     1      48.553  15.806  18.294  0.00  0.00    -0.035 C 
BRANCH   3   2
ATOM      1  C   UNL     1      48.014  13.084  18.796  0.00  0.00    +0.019 C 
ATOM      2  C   UNL     1      46.958  13.965  18.127  0.00  0.00    +0.004 C 
ATOM     38  C   UNL     1      45.586  13.671  18.737  0.00  0.00    +0.018 C 
ENDBRANCH   3   2
ENDBRANCH   5   4
ENDBRANCH   6   5
BRANCH  31  32
ATOM     32  C   UNL     1      48.811  20.178  18.614  0.00  0.00    +0.034 C 
BRANCH  32  33
ATOM     33  C   UNL     1      50.289  20.331  18.982  0.00  0.00    +0.055 C 
BRANCH  33  34
ATOM     34  C   UNL     1      51.006  21.071  17.881  0.00  0.00    -0.056 C 
ATOM     35  C   UNL     1      51.525  20.409  16.877  0.00  0.00    -0.141 C 
ATOM     36  C   UNL     1      52.321  21.136  15.826  0.00  0.00    +0.066 C 
ATOM     37  C   UNL     1      51.324  18.918  16.774  0.00  0.00    +0.071 C 
ENDBRANCH  33  34
ENDBRANCH  32  33
ENDBRANCH  31  32
TORSDOF 10
ENDMDL
