MODEL 1
REMARK VINA RESULT:      -6.3      0.000      0.000
REMARK  Name = ZINC95486055
REMARK  12 active torsions:
REMARK  status: ('A' for Active; 'I' for Inactive)
REMARK    1  A    between atoms: C1_1  and  C2_2
REMARK    2  A    between atoms: C2_2  and  C24_27
REMARK    3  A    between atoms: C3_3  and  C4_4
REMARK    4  A    between atoms: C4_4  and  C5_5
REMARK    5  A    between atoms: C5_5  and  C23_26
REMARK    6  A    between atoms: C6_6  and  C7_7
REMARK    7  A    between atoms: C7_7  and  O1_8
REMARK    8  A    between atoms: O1_8  and  C8_9
REMARK    9  A    between atoms: C11_12  and  C14_15
REMARK   10  A    between atoms: C14_15  and  C15_17
REMARK   11  A    between atoms: C16_18  and  C17_19
REMARK   12  A    between atoms: C20_22  and  O3_25
REMARK                            x       y       z     vdW  Elec       q    Type
REMARK                         _______ _______ _______ _____ _____    ______ ____
ROOT
ATOM     11  C   UNL     1      49.434  17.135  17.839  0.00  0.00    +0.164 A 
ATOM     12  C   UNL     1      49.406  16.947  19.216  0.00  0.00    -0.090 A 
ATOM     13  C   UNL     1      48.214  17.034  19.900  0.00  0.00    +0.118 A 
ATOM     14  C   UNL     1      47.031  17.310  19.208  0.00  0.00    -0.203 A 
ATOM     27  C   UNL     1      47.064  17.498  17.823  0.00  0.00    +0.105 A 
ATOM     28  C   UNL     1      48.261  17.415  17.147  0.00  0.00    -0.027 A 
ENDROOT
BRANCH  14  15
ATOM     15  C   UNL     1      45.751  17.404  19.938  0.00  0.00    +0.429 C 
ATOM     26  O   UNL     1      45.589  16.774  20.967  0.00  0.00    -0.468 OA
BRANCH  15  16
ATOM     16  C   UNL     1      44.708  18.227  19.439  0.00  0.00    -0.111 C 
ATOM     17  C   UNL     1      44.034  19.045  20.276  0.00  0.00    +0.140 C 
BRANCH  17  18
ATOM     18  C   UNL     1      42.955  19.898  19.759  0.00  0.00    -0.096 A 
ATOM     19  C   UNL     1      41.670  19.371  19.576  0.00  0.00    +0.055 A 
ATOM     20  C   UNL     1      40.663  20.174  19.091  0.00  0.00    -0.015 A 
ATOM     21  C   UNL     1      40.918  21.506  18.785  0.00  0.00    +0.123 A 
ATOM     24  C   UNL     1      42.191  22.034  18.966  0.00  0.00    -0.015 A 
ATOM     25  C   UNL     1      43.204  21.242  19.455  0.00  0.00    +0.062 A 
BRANCH  21  22
ATOM     22  O   UNL     1      39.920  22.294  18.309  0.00  0.00    -0.498 OA
ATOM     23  H   UNL     1      39.250  22.521  18.967  0.00  0.00    +0.395 HD
ENDBRANCH  21  22
ENDBRANCH  17  18
ENDBRANCH  15  16
ENDBRANCH  14  15
BRANCH  11  10
ATOM     10  O   UNL     1      50.610  17.048  17.167  0.00  0.00    -0.306 OA
BRANCH  10   9
ATOM      9  C   UNL     1      51.686  17.863  17.637  0.00  0.00    +0.234 C 
BRANCH   9   8
ATOM      6  C   UNL     1      51.462  20.240  17.125  0.00  0.00    -0.089 C 
ATOM      7  C   UNL     1      51.524  21.409  16.177  0.00  0.00    +0.087 C 
ATOM      8  C   UNL     1      51.849  19.054  16.727  0.00  0.00    -0.051 C 
BRANCH   6   5
ATOM      5  C   UNL     1      50.955  20.436  18.531  0.00  0.00    +0.091 C 
BRANCH   5   4
ATOM      1  C   UNL     1      49.444  20.437  20.910  0.00  0.00    +0.074 C 
ATOM      2  C   UNL     1      48.774  20.717  19.591  0.00  0.00    -0.123 C 
ATOM      3  C   UNL     1      47.284  20.933  19.533  0.00  0.00    +0.075 C 
ATOM      4  C   UNL     1      49.487  20.772  18.493  0.00  0.00    -0.058 C 
ENDBRANCH   5   4
ENDBRANCH   6   5
ENDBRANCH   9   8
ENDBRANCH  10   9
ENDBRANCH  11  10
TORSDOF 9
ENDMDL
MODEL 2
REMARK VINA RESULT:      -6.1      2.075      7.568
REMARK  Name = ZINC95486055
REMARK  12 active torsions:
REMARK  status: ('A' for Active; 'I' for Inactive)
REMARK    1  A    between atoms: C1_1  and  C2_2
REMARK    2  A    between atoms: C2_2  and  C24_27
REMARK    3  A    between atoms: C3_3  and  C4_4
REMARK    4  A    between atoms: C4_4  and  C5_5
REMARK    5  A    between atoms: C5_5  and  C23_26
REMARK    6  A    between atoms: C6_6  and  C7_7
REMARK    7  A    between atoms: C7_7  and  O1_8
REMARK    8  A    between atoms: O1_8  and  C8_9
REMARK    9  A    between atoms: C11_12  and  C14_15
REMARK   10  A    between atoms: C14_15  and  C15_17
REMARK   11  A    between atoms: C16_18  and  C17_19
REMARK   12  A    between atoms: C20_22  and  O3_25
REMARK                            x       y       z     vdW  Elec       q    Type
REMARK                         _______ _______ _______ _____ _____    ______ ____
ROOT
ATOM     11  C   UNL     1      44.243  17.544  21.555  0.00  0.00    +0.164 A 
ATOM     12  C   UNL     1      44.702  16.664  20.582  0.00  0.00    -0.090 A 
ATOM     13  C   UNL     1      46.053  16.536  20.350  0.00  0.00    +0.118 A 
ATOM     14  C   UNL     1      46.963  17.293  21.094  0.00  0.00    -0.203 A 
ATOM     27  C   UNL     1      46.497  18.177  22.072  0.00  0.00    +0.105 A 
ATOM     28  C   UNL     1      45.144  18.303  22.294  0.00  0.00    -0.027 A 
ENDROOT
BRANCH  14  15
ATOM     15  C   UNL     1      48.413  17.159  20.848  0.00  0.00    +0.429 C 
ATOM     26  O   UNL     1      49.022  16.207  21.301  0.00  0.00    -0.468 OA
BRANCH  15  16
ATOM     16  C   UNL     1      49.097  18.141  20.085  0.00  0.00    -0.111 C 
ATOM     17  C   UNL     1      49.561  17.837  18.853  0.00  0.00    +0.140 C 
BRANCH  17  18
ATOM     18  C   UNL     1      50.269  18.854  18.063  0.00  0.00    -0.096 A 
ATOM     19  C   UNL     1      50.972  18.483  16.909  0.00  0.00    +0.055 A 
ATOM     20  C   UNL     1      51.633  19.440  16.173  0.00  0.00    -0.015 A 
ATOM     21  C   UNL     1      51.603  20.771  16.571  0.00  0.00    +0.123 A 
ATOM     24  C   UNL     1      50.907  21.145  17.715  0.00  0.00    -0.015 A 
ATOM     25  C   UNL     1      50.237  20.197  18.455  0.00  0.00    +0.062 A 
BRANCH  21  22
ATOM     22  O   UNL     1      52.256  21.711  15.840  0.00  0.00    -0.498 OA
ATOM     23  H   UNL     1      53.143  21.445  15.560  0.00  0.00    +0.395 HD
ENDBRANCH  21  22
ENDBRANCH  17  18
ENDBRANCH  15  16
ENDBRANCH  14  15
BRANCH  11  10
ATOM     10  O   UNL     1      42.910  17.668  21.782  0.00  0.00    -0.306 OA
BRANCH  10   9
ATOM      9  C   UNL     1      42.367  18.989  21.745  0.00  0.00    +0.234 C 
BRANCH   9   8
ATOM      6  C   UNL     1      41.811  19.872  19.538  0.00  0.00    -0.089 C 
ATOM      7  C   UNL     1      40.856  20.095  18.394  0.00  0.00    +0.087 C 
ATOM      8  C   UNL     1      41.455  19.124  20.551  0.00  0.00    -0.051 C 
BRANCH   6   5
ATOM      5  C   UNL     1      43.176  20.511  19.513  0.00  0.00    +0.091 C 
BRANCH   5   4
ATOM      1  C   UNL     1      45.963  20.891  19.701  0.00  0.00    +0.074 C 
ATOM      2  C   UNL     1      45.402  19.882  18.733  0.00  0.00    -0.123 C 
ATOM      3  C   UNL     1      46.326  19.123  17.816  0.00  0.00    +0.075 C 
ATOM      4  C   UNL     1      44.111  19.666  18.687  0.00  0.00    -0.058 C 
ENDBRANCH   5   4
ENDBRANCH   6   5
ENDBRANCH   9   8
ENDBRANCH  10   9
ENDBRANCH  11  10
TORSDOF 9
ENDMDL
MODEL 3
REMARK VINA RESULT:      -5.8      2.005      2.931
REMARK  Name = ZINC95486055
REMARK  12 active torsions:
REMARK  status: ('A' for Active; 'I' for Inactive)
REMARK    1  A    between atoms: C1_1  and  C2_2
REMARK    2  A    between atoms: C2_2  and  C24_27
REMARK    3  A    between atoms: C3_3  and  C4_4
REMARK    4  A    between atoms: C4_4  and  C5_5
REMARK    5  A    between atoms: C5_5  and  C23_26
REMARK    6  A    between atoms: C6_6  and  C7_7
REMARK    7  A    between atoms: C7_7  and  O1_8
REMARK    8  A    between atoms: O1_8  and  C8_9
REMARK    9  A    between atoms: C11_12  and  C14_15
REMARK   10  A    between atoms: C14_15  and  C15_17
REMARK   11  A    between atoms: C16_18  and  C17_19
REMARK   12  A    between atoms: C20_22  and  O3_25
REMARK                            x       y       z     vdW  Elec       q    Type
REMARK                         _______ _______ _______ _____ _____    ______ ____
ROOT
ATOM     11  C   UNL     1      50.949  17.935  17.441  0.00  0.00    +0.164 A 
ATOM     12  C   UNL     1      51.090  17.159  18.585  0.00  0.00    -0.090 A 
ATOM     13  C   UNL     1      50.025  16.424  19.055  0.00  0.00    +0.118 A 
ATOM     14  C   UNL     1      48.801  16.460  18.381  0.00  0.00    -0.203 A 
ATOM     27  C   UNL     1      48.664  17.243  17.231  0.00  0.00    +0.105 A 
ATOM     28  C   UNL     1      49.732  17.979  16.770  0.00  0.00    -0.027 A 
ENDROOT
BRANCH  14  15
ATOM     15  C   UNL     1      47.656  15.674  18.883  0.00  0.00    +0.429 C 
ATOM     26  O   UNL     1      47.539  14.503  18.573  0.00  0.00    -0.468 OA
BRANCH  15  16
ATOM     16  C   UNL     1      46.690  16.285  19.725  0.00  0.00    -0.111 C 
ATOM     17  C   UNL     1      45.620  16.908  19.183  0.00  0.00    +0.140 C 
BRANCH  17  18
ATOM     18  C   UNL     1      44.620  17.541  20.055  0.00  0.00    -0.096 A 
ATOM     19  C   UNL     1      44.336  16.992  21.312  0.00  0.00    +0.055 A 
ATOM     20  C   UNL     1      43.399  17.588  22.124  0.00  0.00    -0.015 A 
ATOM     21  C   UNL     1      42.734  18.733  21.699  0.00  0.00    +0.123 A 
ATOM     24  C   UNL     1      43.012  19.282  20.453  0.00  0.00    -0.015 A 
ATOM     25  C   UNL     1      43.952  18.697  19.635  0.00  0.00    +0.062 A 
BRANCH  21  22
ATOM     22  O   UNL     1      41.811  19.317  22.505  0.00  0.00    -0.498 OA
ATOM     23  H   UNL     1      40.901  19.227  22.192  0.00  0.00    +0.395 HD
ENDBRANCH  21  22
ENDBRANCH  17  18
ENDBRANCH  15  16
ENDBRANCH  14  15
BRANCH  11  10
ATOM     10  O   UNL     1      52.001  18.658  16.979  0.00  0.00    -0.306 OA
BRANCH  10   9
ATOM      9  C   UNL     1      51.845  20.078  16.941  0.00  0.00    +0.234 C 
BRANCH   9   8
ATOM      6  C   UNL     1      51.641  21.147  19.127  0.00  0.00    -0.089 C 
ATOM      7  C   UNL     1      52.224  21.848  20.327  0.00  0.00    +0.087 C 
ATOM      8  C   UNL     1      52.431  20.681  18.193  0.00  0.00    -0.051 C 
BRANCH   6   5
ATOM      5  C   UNL     1      50.147  20.981  19.004  0.00  0.00    +0.091 C 
BRANCH   5   4
ATOM      1  C   UNL     1      47.428  20.250  19.127  0.00  0.00    +0.074 C 
ATOM      2  C   UNL     1      48.358  19.892  20.256  0.00  0.00    -0.123 C 
ATOM      3  C   UNL     1      47.822  19.200  21.483  0.00  0.00    +0.075 C 
ATOM      4  C   UNL     1      49.633  20.182  20.172  0.00  0.00    -0.058 C 
ENDBRANCH   5   4
ENDBRANCH   6   5
ENDBRANCH   9   8
ENDBRANCH  10   9
ENDBRANCH  11  10
TORSDOF 9
ENDMDL
MODEL 4
REMARK VINA RESULT:      -5.7      2.218      8.481
REMARK  Name = ZINC95486055
REMARK  12 active torsions:
REMARK  status: ('A' for Active; 'I' for Inactive)
REMARK    1  A    between atoms: C1_1  and  C2_2
REMARK    2  A    between atoms: C2_2  and  C24_27
REMARK    3  A    between atoms: C3_3  and  C4_4
REMARK    4  A    between atoms: C4_4  and  C5_5
REMARK    5  A    between atoms: C5_5  and  C23_26
REMARK    6  A    between atoms: C6_6  and  C7_7
REMARK    7  A    between atoms: C7_7  and  O1_8
REMARK    8  A    between atoms: O1_8  and  C8_9
REMARK    9  A    between atoms: C11_12  and  C14_15
REMARK   10  A    between atoms: C14_15  and  C15_17
REMARK   11  A    between atoms: C16_18  and  C17_19
REMARK   12  A    between atoms: C20_22  and  O3_25
REMARK                            x       y       z     vdW  Elec       q    Type
REMARK                         _______ _______ _______ _____ _____    ______ ____
ROOT
ATOM     11  C   UNL     1      44.892  22.398  20.358  0.00  0.00    +0.164 A 
ATOM     12  C   UNL     1      45.566  22.676  21.541  0.00  0.00    -0.090 A 
ATOM     13  C   UNL     1      46.851  22.217  21.727  0.00  0.00    +0.118 A 
ATOM     14  C   UNL     1      47.477  21.471  20.725  0.00  0.00    -0.203 A 
ATOM     27  C   UNL     1      46.795  21.193  19.536  0.00  0.00    +0.105 A 
ATOM     28  C   UNL     1      45.509  21.651  19.360  0.00  0.00    -0.027 A 
ENDROOT
BRANCH  14  15
ATOM     15  C   UNL     1      48.855  20.976  20.921  0.00  0.00    +0.429 C 
ATOM     26  O   UNL     1      49.459  21.245  21.943  0.00  0.00    -0.468 OA
BRANCH  15  16
ATOM     16  C   UNL     1      49.476  20.189  19.917  0.00  0.00    -0.111 C 
ATOM     17  C   UNL     1      50.087  20.789  18.870  0.00  0.00    +0.140 C 
BRANCH  17  18
ATOM     18  C   UNL     1      50.730  19.974  17.830  0.00  0.00    -0.096 A 
ATOM     19  C   UNL     1      50.477  18.598  17.759  0.00  0.00    +0.055 A 
ATOM     20  C   UNL     1      51.083  17.840  16.783  0.00  0.00    -0.015 A 
ATOM     21  C   UNL     1      51.943  18.437  15.869  0.00  0.00    +0.123 A 
ATOM     24  C   UNL     1      52.197  19.802  15.934  0.00  0.00    -0.015 A 
ATOM     25  C   UNL     1      51.592  20.571  16.903  0.00  0.00    +0.062 A 
BRANCH  21  22
ATOM     22  O   UNL     1      52.536  17.684  14.907  0.00  0.00    -0.498 OA
ATOM     23  H   UNL     1      52.099  16.837  14.745  0.00  0.00    +0.395 HD
ENDBRANCH  21  22
ENDBRANCH  17  18
ENDBRANCH  15  16
ENDBRANCH  14  15
BRANCH  11  10
ATOM     10  O   UNL     1      43.626  22.852  20.177  0.00  0.00    -0.306 OA
BRANCH  10   9
ATOM      9  C   UNL     1      43.150  22.923  18.831  0.00  0.00    +0.234 C 
BRANCH   9   8
ATOM      6  C   UNL     1      41.161  21.508  18.770  0.00  0.00    -0.089 C 
ATOM      7  C   UNL     1      39.673  21.306  18.644  0.00  0.00    +0.087 C 
ATOM      8  C   UNL     1      41.656  22.719  18.816  0.00  0.00    -0.051 C 
BRANCH   6   5
ATOM      5  C   UNL     1      42.079  20.314  18.844  0.00  0.00    +0.091 C 
BRANCH   5   4
ATOM      1  C   UNL     1      44.071  18.552  19.778  0.00  0.00    +0.074 C 
ATOM      2  C   UNL     1      42.826  18.785  20.594  0.00  0.00    -0.123 C 
ATOM      3  C   UNL     1      42.613  18.026  21.878  0.00  0.00    +0.075 C 
ATOM      4  C   UNL     1      41.927  19.647  20.186  0.00  0.00    -0.058 C 
ENDBRANCH   5   4
ENDBRANCH   6   5
ENDBRANCH   9   8
ENDBRANCH  10   9
ENDBRANCH  11  10
TORSDOF 9
ENDMDL
MODEL 5
REMARK VINA RESULT:      -5.5      1.414      3.219
REMARK  Name = ZINC95486055
REMARK  12 active torsions:
REMARK  status: ('A' for Active; 'I' for Inactive)
REMARK    1  A    between atoms: C1_1  and  C2_2
REMARK    2  A    between atoms: C2_2  and  C24_27
REMARK    3  A    between atoms: C3_3  and  C4_4
REMARK    4  A    between atoms: C4_4  and  C5_5
REMARK    5  A    between atoms: C5_5  and  C23_26
REMARK    6  A    between atoms: C6_6  and  C7_7
REMARK    7  A    between atoms: C7_7  and  O1_8
REMARK    8  A    between atoms: O1_8  and  C8_9
REMARK    9  A    between atoms: C11_12  and  C14_15
REMARK   10  A    between atoms: C14_15  and  C15_17
REMARK   11  A    between atoms: C16_18  and  C17_19
REMARK   12  A    between atoms: C20_22  and  O3_25
REMARK                            x       y       z     vdW  Elec       q    Type
REMARK                         _______ _______ _______ _____ _____    ______ ____
ROOT
ATOM     11  C   UNL     1      50.265  20.749  19.355  0.00  0.00    +0.164 A 
ATOM     12  C   UNL     1      50.262  20.326  20.678  0.00  0.00    -0.090 A 
ATOM     13  C   UNL     1      49.068  20.135  21.338  0.00  0.00    +0.118 A 
ATOM     14  C   UNL     1      47.860  20.367  20.675  0.00  0.00    -0.203 A 
ATOM     27  C   UNL     1      47.868  20.792  19.343  0.00  0.00    +0.105 A 
ATOM     28  C   UNL     1      49.066  20.986  18.692  0.00  0.00    -0.027 A 
ENDROOT
BRANCH  14  15
ATOM     15  C   UNL     1      46.578  20.164  21.380  0.00  0.00    +0.429 C 
ATOM     26  O   UNL     1      46.546  19.523  22.414  0.00  0.00    -0.468 OA
BRANCH  15  16
ATOM     16  C   UNL     1      45.382  20.714  20.849  0.00  0.00    -0.111 C 
ATOM     17  C   UNL     1      44.446  19.902  20.312  0.00  0.00    +0.140 C 
BRANCH  17  18
ATOM     18  C   UNL     1      43.207  20.471  19.763  0.00  0.00    -0.096 A 
ATOM     19  C   UNL     1      43.134  21.838  19.464  0.00  0.00    +0.055 A 
ATOM     20  C   UNL     1      41.972  22.366  18.950  0.00  0.00    -0.015 A 
ATOM     21  C   UNL     1      40.872  21.546  18.727  0.00  0.00    +0.123 A 
ATOM     24  C   UNL     1      40.938  20.189  19.021  0.00  0.00    -0.015 A 
ATOM     25  C   UNL     1      42.098  19.649  19.530  0.00  0.00    +0.062 A 
BRANCH  21  22
ATOM     22  O   UNL     1      39.728  22.072  18.219  0.00  0.00    -0.498 OA
ATOM     23  H   UNL     1      38.966  21.479  18.268  0.00  0.00    +0.395 HD
ENDBRANCH  21  22
ENDBRANCH  17  18
ENDBRANCH  15  16
ENDBRANCH  14  15
BRANCH  11  10
ATOM     10  O   UNL     1      51.443  20.935  18.706  0.00  0.00    -0.306 OA
BRANCH  10   9
ATOM      9  C   UNL     1      51.640  20.202  17.496  0.00  0.00    +0.234 C 
BRANCH   9   8
ATOM      6  C   UNL     1      51.695  17.779  17.789  0.00  0.00    -0.089 C 
ATOM      7  C   UNL     1      52.382  16.502  18.200  0.00  0.00    +0.087 C 
ATOM      8  C   UNL     1      52.354  18.910  17.801  0.00  0.00    -0.051 C 
BRANCH   6   5
ATOM      5  C   UNL     1      50.249  17.753  17.364  0.00  0.00    +0.091 C 
BRANCH   5   4
ATOM      1  C   UNL     1      47.492  17.292  16.999  0.00  0.00    +0.074 C 
ATOM      2  C   UNL     1      48.098  17.195  18.375  0.00  0.00    -0.123 C 
ATOM      3  C   UNL     1      47.220  16.916  19.568  0.00  0.00    +0.075 C 
ATOM      4  C   UNL     1      49.388  17.353  18.535  0.00  0.00    -0.058 C 
ENDBRANCH   5   4
ENDBRANCH   6   5
ENDBRANCH   9   8
ENDBRANCH  10   9
ENDBRANCH  11  10
TORSDOF 9
ENDMDL
MODEL 6
REMARK VINA RESULT:      -5.2      2.377      4.523
REMARK  Name = ZINC95486055
REMARK  12 active torsions:
REMARK  status: ('A' for Active; 'I' for Inactive)
REMARK    1  A    between atoms: C1_1  and  C2_2
REMARK    2  A    between atoms: C2_2  and  C24_27
REMARK    3  A    between atoms: C3_3  and  C4_4
REMARK    4  A    between atoms: C4_4  and  C5_5
REMARK    5  A    between atoms: C5_5  and  C23_26
REMARK    6  A    between atoms: C6_6  and  C7_7
REMARK    7  A    between atoms: C7_7  and  O1_8
REMARK    8  A    between atoms: O1_8  and  C8_9
REMARK    9  A    between atoms: C11_12  and  C14_15
REMARK   10  A    between atoms: C14_15  and  C15_17
REMARK   11  A    between atoms: C16_18  and  C17_19
REMARK   12  A    between atoms: C20_22  and  O3_25
REMARK                            x       y       z     vdW  Elec       q    Type
REMARK                         _______ _______ _______ _____ _____    ______ ____
ROOT
ATOM     11  C   UNL     1      50.335  16.144  18.022  0.00  0.00    +0.164 A 
ATOM     12  C   UNL     1      49.836  16.213  19.317  0.00  0.00    -0.090 A 
ATOM     13  C   UNL     1      49.384  17.413  19.820  0.00  0.00    +0.118 A 
ATOM     14  C   UNL     1      49.426  18.562  19.026  0.00  0.00    -0.203 A 
ATOM     27  C   UNL     1      49.929  18.488  17.722  0.00  0.00    +0.105 A 
ATOM     28  C   UNL     1      50.384  17.286  17.229  0.00  0.00    -0.027 A 
ENDROOT
BRANCH  14  15
ATOM     15  C   UNL     1      48.943  19.851  19.561  0.00  0.00    +0.429 C 
ATOM     26  O   UNL     1      49.738  20.724  19.855  0.00  0.00    -0.468 OA
BRANCH  15  16
ATOM     16  C   UNL     1      47.552  20.070  19.734  0.00  0.00    -0.111 C 
ATOM     17  C   UNL     1      46.842  20.695  18.769  0.00  0.00    +0.140 C 
BRANCH  17  18
ATOM     18  C   UNL     1      45.400  20.922  18.948  0.00  0.00    -0.096 A 
ATOM     19  C   UNL     1      44.483  19.923  18.595  0.00  0.00    +0.055 A 
ATOM     20  C   UNL     1      43.135  20.141  18.764  0.00  0.00    -0.015 A 
ATOM     21  C   UNL     1      42.683  21.349  19.285  0.00  0.00    +0.123 A 
ATOM     24  C   UNL     1      43.589  22.343  19.637  0.00  0.00    -0.015 A 
ATOM     25  C   UNL     1      44.940  22.133  19.477  0.00  0.00    +0.062 A 
BRANCH  21  22
ATOM     22  O   UNL     1      41.352  21.557  19.451  0.00  0.00    -0.498 OA
ATOM     23  H   UNL     1      40.912  21.932  18.675  0.00  0.00    +0.395 HD
ENDBRANCH  21  22
ENDBRANCH  17  18
ENDBRANCH  15  16
ENDBRANCH  14  15
BRANCH  11  10
ATOM     10  O   UNL     1      50.779  14.960  17.529  0.00  0.00    -0.306 OA
BRANCH  10   9
ATOM      9  C   UNL     1      49.995  14.352  16.501  0.00  0.00    +0.234 C 
BRANCH   9   8
ATOM      6  C   UNL     1      48.019  13.158  17.294  0.00  0.00    -0.089 C 
ATOM      7  C   UNL     1      47.349  11.976  17.946  0.00  0.00    +0.087 C 
ATOM      8  C   UNL     1      49.305  13.130  17.051  0.00  0.00    -0.051 C 
BRANCH   6   5
ATOM      5  C   UNL     1      47.207  14.373  16.922  0.00  0.00    +0.091 C 
BRANCH   5   4
ATOM      1  C   UNL     1      46.546  17.104  17.148  0.00  0.00    +0.074 C 
ATOM      2  C   UNL     1      46.208  16.150  18.264  0.00  0.00    -0.123 C 
ATOM      3  C   UNL     1      45.576  16.666  19.531  0.00  0.00    +0.075 C 
ATOM      4  C   UNL     1      46.464  14.872  18.134  0.00  0.00    -0.058 C 
ENDBRANCH   5   4
ENDBRANCH   6   5
ENDBRANCH   9   8
ENDBRANCH  10   9
ENDBRANCH  11  10
TORSDOF 9
ENDMDL
MODEL 7
REMARK VINA RESULT:      -5.2      2.585      5.082
REMARK  Name = ZINC95486055
REMARK  12 active torsions:
REMARK  status: ('A' for Active; 'I' for Inactive)
REMARK    1  A    between atoms: C1_1  and  C2_2
REMARK    2  A    between atoms: C2_2  and  C24_27
REMARK    3  A    between atoms: C3_3  and  C4_4
REMARK    4  A    between atoms: C4_4  and  C5_5
REMARK    5  A    between atoms: C5_5  and  C23_26
REMARK    6  A    between atoms: C6_6  and  C7_7
REMARK    7  A    between atoms: C7_7  and  O1_8
REMARK    8  A    between atoms: O1_8  and  C8_9
REMARK    9  A    between atoms: C11_12  and  C14_15
REMARK   10  A    between atoms: C14_15  and  C15_17
REMARK   11  A    between atoms: C16_18  and  C17_19
REMARK   12  A    between atoms: C20_22  and  O3_25
REMARK                            x       y       z     vdW  Elec       q    Type
REMARK                         _______ _______ _______ _____ _____    ______ ____
ROOT
ATOM     11  C   UNL     1      50.089  15.823  18.014  0.00  0.00    +0.164 A 
ATOM     12  C   UNL     1      50.094  16.276  19.328  0.00  0.00    -0.090 A 
ATOM     13  C   UNL     1      50.184  17.625  19.591  0.00  0.00    +0.118 A 
ATOM     14  C   UNL     1      50.270  18.537  18.536  0.00  0.00    -0.203 A 
ATOM     27  C   UNL     1      50.265  18.076  17.216  0.00  0.00    +0.105 A 
ATOM     28  C   UNL     1      50.180  16.726  16.961  0.00  0.00    -0.027 A 
ENDROOT
BRANCH  14  15
ATOM     15  C   UNL     1      50.368  19.985  18.815  0.00  0.00    +0.429 C 
ATOM     26  O   UNL     1      51.459  20.518  18.892  0.00  0.00    -0.468 OA
BRANCH  15  16
ATOM     16  C   UNL     1      49.189  20.754  18.994  0.00  0.00    -0.111 C 
ATOM     17  C   UNL     1      48.242  20.344  19.867  0.00  0.00    +0.140 C 
BRANCH  17  18
ATOM     18  C   UNL     1      47.020  21.140  20.053  0.00  0.00    -0.096 A 
ATOM     19  C   UNL     1      46.012  21.118  19.080  0.00  0.00    +0.055 A 
ATOM     20  C   UNL     1      44.871  21.865  19.260  0.00  0.00    -0.015 A 
ATOM     21  C   UNL     1      44.717  22.641  20.403  0.00  0.00    +0.123 A 
ATOM     24  C   UNL     1      45.714  22.667  21.371  0.00  0.00    -0.015 A 
ATOM     25  C   UNL     1      46.857  21.918  21.205  0.00  0.00    +0.062 A 
BRANCH  21  22
ATOM     22  O   UNL     1      43.588  23.376  20.575  0.00  0.00    -0.498 OA
ATOM     23  H   UNL     1      43.381  23.569  21.500  0.00  0.00    +0.395 HD
ENDBRANCH  21  22
ENDBRANCH  17  18
ENDBRANCH  15  16
ENDBRANCH  14  15
BRANCH  11  10
ATOM     10  O   UNL     1      50.000  14.493  17.758  0.00  0.00    -0.306 OA
BRANCH  10   9
ATOM      9  C   UNL     1      49.395  14.111  16.520  0.00  0.00    +0.234 C 
BRANCH   9   8
ATOM      6  C   UNL     1      47.079  13.540  17.038  0.00  0.00    -0.089 C 
ATOM      7  C   UNL     1      46.001  12.555  17.410  0.00  0.00    +0.087 C 
ATOM      8  C   UNL     1      48.292  13.118  16.785  0.00  0.00    -0.051 C 
BRANCH   6   5
ATOM      5  C   UNL     1      46.758  15.011  16.957  0.00  0.00    +0.091 C 
BRANCH   5   4
ATOM      1  C   UNL     1      46.628  17.789  17.419  0.00  0.00    +0.074 C 
ATOM      2  C   UNL     1      46.437  16.823  18.560  0.00  0.00    -0.123 C 
ATOM      3  C   UNL     1      46.241  17.342  19.962  0.00  0.00    +0.075 C 
ATOM      4  C   UNL     1      46.441  15.533  18.334  0.00  0.00    -0.058 C 
ENDBRANCH   5   4
ENDBRANCH   6   5
ENDBRANCH   9   8
ENDBRANCH  10   9
ENDBRANCH  11  10
TORSDOF 9
ENDMDL
MODEL 8
REMARK VINA RESULT:      -5.1      2.608      5.308
REMARK  Name = ZINC95486055
REMARK  12 active torsions:
REMARK  status: ('A' for Active; 'I' for Inactive)
REMARK    1  A    between atoms: C1_1  and  C2_2
REMARK    2  A    between atoms: C2_2  and  C24_27
REMARK    3  A    between atoms: C3_3  and  C4_4
REMARK    4  A    between atoms: C4_4  and  C5_5
REMARK    5  A    between atoms: C5_5  and  C23_26
REMARK    6  A    between atoms: C6_6  and  C7_7
REMARK    7  A    between atoms: C7_7  and  O1_8
REMARK    8  A    between atoms: O1_8  and  C8_9
REMARK    9  A    between atoms: C11_12  and  C14_15
REMARK   10  A    between atoms: C14_15  and  C15_17
REMARK   11  A    between atoms: C16_18  and  C17_19
REMARK   12  A    between atoms: C20_22  and  O3_25
REMARK                            x       y       z     vdW  Elec       q    Type
REMARK                         _______ _______ _______ _____ _____    ______ ____
ROOT
ATOM     11  C   UNL     1      49.647  15.631  18.393  0.00  0.00    +0.164 A 
ATOM     12  C   UNL     1      49.353  16.379  17.260  0.00  0.00    -0.090 A 
ATOM     13  C   UNL     1      49.441  17.753  17.298  0.00  0.00    +0.118 A 
ATOM     14  C   UNL     1      49.827  18.394  18.479  0.00  0.00    -0.203 A 
ATOM     27  C   UNL     1      50.122  17.637  19.617  0.00  0.00    +0.105 A 
ATOM     28  C   UNL     1      50.026  16.264  19.571  0.00  0.00    -0.027 A 
ENDROOT
BRANCH  14  15
ATOM     15  C   UNL     1      49.922  19.867  18.525  0.00  0.00    +0.429 C 
ATOM     26  O   UNL     1      50.796  20.440  17.902  0.00  0.00    -0.468 OA
BRANCH  15  16
ATOM     16  C   UNL     1      48.995  20.614  19.297  0.00  0.00    -0.111 C 
ATOM     17  C   UNL     1      47.670  20.512  19.047  0.00  0.00    +0.140 C 
BRANCH  17  18
ATOM     18  C   UNL     1      46.710  21.285  19.846  0.00  0.00    -0.096 A 
ATOM     19  C   UNL     1      46.985  21.573  21.190  0.00  0.00    +0.055 A 
ATOM     20  C   UNL     1      46.082  22.297  21.934  0.00  0.00    -0.015 A 
ATOM     21  C   UNL     1      44.899  22.744  21.355  0.00  0.00    +0.123 A 
ATOM     24  C   UNL     1      44.621  22.461  20.023  0.00  0.00    -0.015 A 
ATOM     25  C   UNL     1      45.520  21.742  19.268  0.00  0.00    +0.062 A 
BRANCH  21  22
ATOM     22  O   UNL     1      44.013  23.459  22.094  0.00  0.00    -0.498 OA
ATOM     23  H   UNL     1      43.222  23.727  21.608  0.00  0.00    +0.395 HD
ENDBRANCH  21  22
ENDBRANCH  17  18
ENDBRANCH  15  16
ENDBRANCH  14  15
BRANCH  11  10
ATOM     10  O   UNL     1      49.560  14.277  18.351  0.00  0.00    -0.306 OA
BRANCH  10   9
ATOM      9  C   UNL     1      48.869  13.639  19.427  0.00  0.00    +0.234 C 
BRANCH   9   8
ATOM      6  C   UNL     1      46.430  13.709  19.335  0.00  0.00    -0.089 C 
ATOM      7  C   UNL     1      45.095  13.136  18.935  0.00  0.00    +0.087 C 
ATOM      8  C   UNL     1      47.537  13.131  18.938  0.00  0.00    -0.051 C 
BRANCH   6   5
ATOM      5  C   UNL     1      46.491  14.947  20.192  0.00  0.00    +0.091 C 
BRANCH   5   4
ATOM      1  C   UNL     1      46.657  17.615  21.087  0.00  0.00    +0.074 C 
ATOM      2  C   UNL     1      45.599  17.217  20.092  0.00  0.00    -0.123 C 
ATOM      3  C   UNL     1      44.585  18.229  19.624  0.00  0.00    +0.075 C 
ATOM      4  C   UNL     1      45.558  15.990  19.635  0.00  0.00    -0.058 C 
ENDBRANCH   5   4
ENDBRANCH   6   5
ENDBRANCH   9   8
ENDBRANCH  10   9
ENDBRANCH  11  10
TORSDOF 9
ENDMDL
MODEL 9
REMARK VINA RESULT:      -5.0      2.141      2.865
REMARK  Name = ZINC95486055
REMARK  12 active torsions:
REMARK  status: ('A' for Active; 'I' for Inactive)
REMARK    1  A    between atoms: C1_1  and  C2_2
REMARK    2  A    between atoms: C2_2  and  C24_27
REMARK    3  A    between atoms: C3_3  and  C4_4
REMARK    4  A    between atoms: C4_4  and  C5_5
REMARK    5  A    between atoms: C5_5  and  C23_26
REMARK    6  A    between atoms: C6_6  and  C7_7
REMARK    7  A    between atoms: C7_7  and  O1_8
REMARK    8  A    between atoms: O1_8  and  C8_9
REMARK    9  A    between atoms: C11_12  and  C14_15
REMARK   10  A    between atoms: C14_15  and  C15_17
REMARK   11  A    between atoms: C16_18  and  C17_19
REMARK   12  A    between atoms: C20_22  and  O3_25
REMARK                            x       y       z     vdW  Elec       q    Type
REMARK                         _______ _______ _______ _____ _____    ______ ____
ROOT
ATOM     11  C   UNL     1      50.603  17.311  19.328  0.00  0.00    +0.164 A 
ATOM     12  C   UNL     1      50.349  17.629  17.999  0.00  0.00    -0.090 A 
ATOM     13  C   UNL     1      49.073  17.511  17.495  0.00  0.00    +0.118 A 
ATOM     14  C   UNL     1      48.034  17.072  18.320  0.00  0.00    -0.203 A 
ATOM     27  C   UNL     1      48.295  16.753  19.656  0.00  0.00    +0.105 A 
ATOM     28  C   UNL     1      49.575  16.868  20.152  0.00  0.00    -0.027 A 
ENDROOT
BRANCH  14  15
ATOM     15  C   UNL     1      46.664  16.944  17.782  0.00  0.00    +0.429 C 
ATOM     26  O   UNL     1      46.494  16.658  16.611  0.00  0.00    -0.468 OA
BRANCH  15  16
ATOM     16  C   UNL     1      45.546  17.155  18.631  0.00  0.00    -0.111 C 
ATOM     17  C   UNL     1      45.100  18.411  18.859  0.00  0.00    +0.140 C 
BRANCH  17  18
ATOM     18  C   UNL     1      43.942  18.630  19.737  0.00  0.00    -0.096 A 
ATOM     19  C   UNL     1      43.870  17.985  20.978  0.00  0.00    +0.055 A 
ATOM     20  C   UNL     1      42.783  18.194  21.797  0.00  0.00    -0.015 A 
ATOM     21  C   UNL     1      41.759  19.044  21.393  0.00  0.00    +0.123 A 
ATOM     24  C   UNL     1      41.826  19.687  20.163  0.00  0.00    -0.015 A 
ATOM     25  C   UNL     1      42.912  19.490  19.339  0.00  0.00    +0.062 A 
BRANCH  21  22
ATOM     22  O   UNL     1      40.690  19.247  22.206  0.00  0.00    -0.498 OA
ATOM     23  H   UNL     1      40.687  18.693  22.997  0.00  0.00    +0.395 HD
ENDBRANCH  21  22
ENDBRANCH  17  18
ENDBRANCH  15  16
ENDBRANCH  14  15
BRANCH  11  10
ATOM     10  O   UNL     1      51.862  17.429  19.823  0.00  0.00    -0.306 OA
BRANCH  10   9
ATOM      9  C   UNL     1      52.012  18.158  21.043  0.00  0.00    +0.234 C 
BRANCH   9   8
ATOM      6  C   UNL     1      51.836  20.572  20.719  0.00  0.00    -0.089 C 
ATOM      7  C   UNL     1      52.407  21.907  20.318  0.00  0.00    +0.087 C 
ATOM      8  C   UNL     1      52.605  19.512  20.748  0.00  0.00    -0.051 C 
BRANCH   6   5
ATOM      5  C   UNL     1      50.379  20.456  21.088  0.00  0.00    +0.091 C 
BRANCH   5   4
ATOM      1  C   UNL     1      47.591  20.052  21.178  0.00  0.00    +0.074 C 
ATOM      2  C   UNL     1      48.242  20.542  19.912  0.00  0.00    -0.123 C 
ATOM      3  C   UNL     1      47.413  20.754  18.671  0.00  0.00    +0.075 C 
ATOM      4  C   UNL     1      49.529  20.784  19.888  0.00  0.00    -0.058 C 
ENDBRANCH   5   4
ENDBRANCH   6   5
ENDBRANCH   9   8
ENDBRANCH  10   9
ENDBRANCH  11  10
TORSDOF 9
ENDMDL
