MODEL 1
REMARK VINA RESULT:      -6.7      0.000      0.000
REMARK  Name = ZINC85967841
REMARK  11 active torsions:
REMARK  status: ('A' for Active; 'I' for Inactive)
REMARK    1  A    between atoms: C1_1  and  C2_2
REMARK    2  A    between atoms: C2_2  and  C3_3
REMARK    3  A    between atoms: C2_2  and  C4_4
REMARK    4  A    between atoms: C10_10  and  C29_34
REMARK    5  A    between atoms: C12_12  and  O2_15
REMARK    6  A    between atoms: C16_18  and  O3_23
REMARK    7  A    between atoms: C17_20  and  C18_21
REMARK    8  A    between atoms: C17_20  and  C19_22
REMARK    9  A    between atoms: O3_23  and  C20_24
REMARK   10  A    between atoms: C20_24  and  C21_26
REMARK   11  A    between atoms: C22_27  and  C23_28
REMARK                            x       y       z     vdW  Elec       q    Type
REMARK                         _______ _______ _______ _____ _____    ______ ____
ROOT
ATOM      3  C   UNL     1      42.179  19.984  19.444  0.00  0.00    -0.193 C 
ATOM      4  C   UNL     1      43.285  20.061  18.663  0.00  0.00    +0.110 C 
ATOM      5  C   UNL     1      44.401  19.235  18.932  0.00  0.00    -0.111 C 
ATOM      6  C   UNL     1      45.537  19.297  18.124  0.00  0.00    +0.145 C 
ATOM      7  C   UNL     1      46.655  18.479  18.323  0.00  0.00    -0.037 C 
ATOM      8  C   UNL     1      46.725  17.601  19.330  0.00  0.00    -0.015 C 
ATOM      9  C   UNL     1      45.575  17.495  20.311  0.00  0.00    +0.010 C 
ATOM     10  C   UNL     1      46.101  17.860  21.701  0.00  0.00    +0.061 C 
ATOM     11  C   UNL     1      45.145  16.029  20.316  0.00  0.00    +0.060 C 
ATOM     12  C   UNL     1      46.343  15.150  20.682  0.00  0.00    +0.015 C 
ATOM     13  C   UNL     1      47.421  15.253  19.602  0.00  0.00    +0.190 C 
ATOM     25  C   UNL     1      47.921  16.701  19.515  0.00  0.00    -0.021 C 
ATOM     26  C   UNL     1      48.867  16.849  18.323  0.00  0.00    +0.051 C 
ATOM     27  C   UNL     1      48.652  17.073  20.806  0.00  0.00    +0.061 C 
ATOM     28  C   UNL     1      44.357  18.341  20.032  0.00  0.00    -0.052 C 
ATOM     29  C   UNL     1      43.252  18.261  20.810  0.00  0.00    +0.018 C 
ATOM     32  C   UNL     1      42.135  19.086  20.529  0.00  0.00    +0.388 C 
ATOM     33  O   UNL     1      41.133  19.017  21.226  0.00  0.00    -0.471 OA
ENDROOT
BRANCH   3   2
ATOM      1  C   UNL     1      41.480  22.249  18.716  0.00  0.00    +0.027 C 
ATOM      2  C   UNL     1      40.992  20.867  19.152  0.00  0.00    +0.038 C 
ATOM     34  C   UNL     1      40.156  20.243  18.032  0.00  0.00    +0.027 C 
ENDBRANCH   3   2
BRANCH  29  30
ATOM     30  O   UNL     1      43.216  17.395  21.857  0.00  0.00    -0.460 OA
ATOM     31  H   UNL     1      42.327  17.094  22.089  0.00  0.00    +0.400 HD
ENDBRANCH  29  30
BRANCH  13  14
ATOM     14  O   UNL     1      48.512  14.392  19.936  0.00  0.00    -0.336 OA
BRANCH  14  15
ATOM     15  C   UNL     1      48.500  13.154  19.401  0.00  0.00    +0.497 C 
ATOM     24  O   UNL     1      48.287  12.188  20.108  0.00  0.00    -0.509 OA
BRANCH  15  16
ATOM     16  C   UNL     1      48.744  12.973  17.971  0.00  0.00    -0.056 C 
ATOM     17  C   UNL     1      49.884  13.436  17.416  0.00  0.00    +0.140 C 
BRANCH  17  18
ATOM     18  C   UNL     1      50.129  13.254  15.977  0.00  0.00    -0.086 A 
ATOM     19  C   UNL     1      49.087  12.860  15.130  0.00  0.00    +0.034 A 
ATOM     20  C   UNL     1      49.325  12.691  13.782  0.00  0.00    +0.005 A 
ATOM     21  C   UNL     1      50.589  12.911  13.266  0.00  0.00    +0.025 A 
ATOM     22  C   UNL     1      51.626  13.302  14.097  0.00  0.00    +0.005 A 
ATOM     23  C   UNL     1      51.403  13.480  15.446  0.00  0.00    +0.040 A 
ENDBRANCH  17  18
ENDBRANCH  15  16
ENDBRANCH  14  15
ENDBRANCH  13  14
TORSDOF 6
ENDMDL
MODEL 2
REMARK VINA RESULT:      -6.6      2.686      8.516
REMARK  Name = ZINC85967841
REMARK  11 active torsions:
REMARK  status: ('A' for Active; 'I' for Inactive)
REMARK    1  A    between atoms: C1_1  and  C2_2
REMARK    2  A    between atoms: C2_2  and  C3_3
REMARK    3  A    between atoms: C2_2  and  C4_4
REMARK    4  A    between atoms: C10_10  and  C29_34
REMARK    5  A    between atoms: C12_12  and  O2_15
REMARK    6  A    between atoms: C16_18  and  O3_23
REMARK    7  A    between atoms: C17_20  and  C18_21
REMARK    8  A    between atoms: C17_20  and  C19_22
REMARK    9  A    between atoms: O3_23  and  C20_24
REMARK   10  A    between atoms: C20_24  and  C21_26
REMARK   11  A    between atoms: C22_27  and  C23_28
REMARK                            x       y       z     vdW  Elec       q    Type
REMARK                         _______ _______ _______ _____ _____    ______ ____
ROOT
ATOM      3  C   UNL     1      46.427  12.741  16.864  0.00  0.00    -0.193 C 
ATOM      4  C   UNL     1      45.721  13.103  17.964  0.00  0.00    +0.110 C 
ATOM      5  C   UNL     1      46.047  14.294  18.654  0.00  0.00    -0.111 C 
ATOM      6  C   UNL     1      45.315  14.682  19.776  0.00  0.00    +0.145 C 
ATOM      7  C   UNL     1      45.572  15.866  20.477  0.00  0.00    -0.037 C 
ATOM      8  C   UNL     1      46.566  16.694  20.137  0.00  0.00    -0.015 C 
ATOM      9  C   UNL     1      47.469  16.339  18.973  0.00  0.00    +0.010 C 
ATOM     10  C   UNL     1      48.896  16.193  19.505  0.00  0.00    +0.061 C 
ATOM     11  C   UNL     1      47.421  17.526  18.011  0.00  0.00    +0.060 C 
ATOM     12  C   UNL     1      47.848  18.796  18.750  0.00  0.00    +0.015 C 
ATOM     13  C   UNL     1      46.842  19.126  19.854  0.00  0.00    +0.190 C 
ATOM     25  C   UNL     1      46.812  17.984  20.877  0.00  0.00    -0.021 C 
ATOM     26  C   UNL     1      45.687  18.224  21.885  0.00  0.00    +0.051 C 
ATOM     27  C   UNL     1      48.154  17.911  21.609  0.00  0.00    +0.061 C 
ATOM     28  C   UNL     1      47.127  15.091  18.196  0.00  0.00    -0.052 C 
ATOM     29  C   UNL     1      47.830  14.731  17.097  0.00  0.00    +0.018 C 
ATOM     32  C   UNL     1      47.492  13.542  16.406  0.00  0.00    +0.388 C 
ATOM     33  O   UNL     1      48.121  13.213  15.410  0.00  0.00    -0.471 OA
ENDROOT
BRANCH   3   2
ATOM      1  C   UNL     1      46.706  10.277  16.848  0.00  0.00    +0.027 C 
ATOM      2  C   UNL     1      46.075  11.471  16.131  0.00  0.00    +0.038 C 
ATOM     34  C   UNL     1      44.554  11.304  16.103  0.00  0.00    +0.027 C 
ENDBRANCH   3   2
BRANCH  29  30
ATOM     30  O   UNL     1      48.858  15.507  16.660  0.00  0.00    -0.460 OA
ATOM     31  H   UNL     1      49.521  15.028  16.146  0.00  0.00    +0.400 HD
ENDBRANCH  29  30
BRANCH  13  14
ATOM     14  O   UNL     1      47.231  20.339  20.504  0.00  0.00    -0.336 OA
BRANCH  14  15
ATOM     15  C   UNL     1      46.367  21.372  20.438  0.00  0.00    +0.497 C 
ATOM     24  O   UNL     1      46.633  22.424  20.988  0.00  0.00    -0.509 OA
BRANCH  15  16
ATOM     16  C   UNL     1      45.110  21.229  19.705  0.00  0.00    -0.056 C 
ATOM     17  C   UNL     1      43.947  21.098  20.377  0.00  0.00    +0.140 C 
BRANCH  17  18
ATOM     18  C   UNL     1      42.682  20.953  19.639  0.00  0.00    -0.086 A 
ATOM     19  C   UNL     1      42.059  22.076  19.085  0.00  0.00    +0.034 A 
ATOM     20  C   UNL     1      40.874  21.933  18.394  0.00  0.00    +0.005 A 
ATOM     21  C   UNL     1      40.301  20.682  18.249  0.00  0.00    +0.025 A 
ATOM     22  C   UNL     1      40.912  19.565  18.794  0.00  0.00    +0.005 A 
ATOM     23  C   UNL     1      42.099  19.692  19.482  0.00  0.00    +0.040 A 
ENDBRANCH  17  18
ENDBRANCH  15  16
ENDBRANCH  14  15
ENDBRANCH  13  14
TORSDOF 6
ENDMDL
MODEL 3
REMARK VINA RESULT:      -6.5      1.818      8.916
REMARK  Name = ZINC85967841
REMARK  11 active torsions:
REMARK  status: ('A' for Active; 'I' for Inactive)
REMARK    1  A    between atoms: C1_1  and  C2_2
REMARK    2  A    between atoms: C2_2  and  C3_3
REMARK    3  A    between atoms: C2_2  and  C4_4
REMARK    4  A    between atoms: C10_10  and  C29_34
REMARK    5  A    between atoms: C12_12  and  O2_15
REMARK    6  A    between atoms: C16_18  and  O3_23
REMARK    7  A    between atoms: C17_20  and  C18_21
REMARK    8  A    between atoms: C17_20  and  C19_22
REMARK    9  A    between atoms: O3_23  and  C20_24
REMARK   10  A    between atoms: C20_24  and  C21_26
REMARK   11  A    between atoms: C22_27  and  C23_28
REMARK                            x       y       z     vdW  Elec       q    Type
REMARK                         _______ _______ _______ _____ _____    ______ ____
ROOT
ATOM      3  C   UNL     1      49.746  12.940  15.377  0.00  0.00    -0.193 C 
ATOM      4  C   UNL     1      50.386  13.864  16.135  0.00  0.00    +0.110 C 
ATOM      5  C   UNL     1      49.641  14.786  16.907  0.00  0.00    -0.111 C 
ATOM      6  C   UNL     1      50.292  15.730  17.702  0.00  0.00    +0.145 C 
ATOM      7  C   UNL     1      49.606  16.643  18.511  0.00  0.00    -0.037 C 
ATOM      8  C   UNL     1      48.270  16.696  18.551  0.00  0.00    -0.015 C 
ATOM      9  C   UNL     1      47.459  15.761  17.676  0.00  0.00    +0.010 C 
ATOM     10  C   UNL     1      46.628  16.612  16.713  0.00  0.00    +0.061 C 
ATOM     11  C   UNL     1      46.511  15.008  18.611  0.00  0.00    +0.060 C 
ATOM     12  C   UNL     1      45.658  16.015  19.386  0.00  0.00    +0.015 C 
ATOM     13  C   UNL     1      46.544  16.862  20.301  0.00  0.00    +0.190 C 
ATOM     25  C   UNL     1      47.541  17.660  19.452  0.00  0.00    -0.021 C 
ATOM     26  C   UNL     1      48.542  18.371  20.364  0.00  0.00    +0.051 C 
ATOM     27  C   UNL     1      46.791  18.690  18.606  0.00  0.00    +0.061 C 
ATOM     28  C   UNL     1      48.224  14.744  16.866  0.00  0.00    -0.052 C 
ATOM     29  C   UNL     1      47.585  13.819  16.112  0.00  0.00    +0.018 C 
ATOM     32  C   UNL     1      48.338  12.894  15.348  0.00  0.00    +0.388 C 
ATOM     33  O   UNL     1      47.766  12.054  14.667  0.00  0.00    -0.471 OA
ENDROOT
BRANCH   3   2
ATOM      1  C   UNL     1      50.958  12.614  13.238  0.00  0.00    +0.027 C 
ATOM      2  C   UNL     1      50.545  11.959  14.557  0.00  0.00    +0.038 C 
ATOM     34  C   UNL     1      51.796  11.544  15.334  0.00  0.00    +0.027 C 
ENDBRANCH   3   2
BRANCH  29  30
ATOM     30  O   UNL     1      46.226  13.782  16.086  0.00  0.00    -0.460 OA
ATOM     31  H   UNL     1      45.803  14.487  16.595  0.00  0.00    +0.400 HD
ENDBRANCH  29  30
BRANCH  13  14
ATOM     14  O   UNL     1      45.727  17.764  21.051  0.00  0.00    -0.336 OA
BRANCH  14  15
ATOM     15  C   UNL     1      44.437  17.417  21.231  0.00  0.00    +0.497 C 
ATOM     24  O   UNL     1      44.157  16.452  21.916  0.00  0.00    -0.509 OA
BRANCH  15  16
ATOM     16  C   UNL     1      43.374  18.200  20.604  0.00  0.00    -0.056 C 
ATOM     17  C   UNL     1      43.610  19.473  20.221  0.00  0.00    +0.140 C 
BRANCH  17  18
ATOM     18  C   UNL     1      42.540  20.262  19.590  0.00  0.00    -0.086 A 
ATOM     19  C   UNL     1      41.345  19.646  19.206  0.00  0.00    +0.034 A 
ATOM     20  C   UNL     1      40.347  20.392  18.614  0.00  0.00    +0.005 A 
ATOM     21  C   UNL     1      40.526  21.747  18.401  0.00  0.00    +0.025 A 
ATOM     22  C   UNL     1      41.706  22.365  18.778  0.00  0.00    +0.005 A 
ATOM     23  C   UNL     1      42.711  21.634  19.375  0.00  0.00    +0.040 A 
ENDBRANCH  17  18
ENDBRANCH  15  16
ENDBRANCH  14  15
ENDBRANCH  13  14
TORSDOF 6
ENDMDL
MODEL 4
REMARK VINA RESULT:      -6.2      2.132      2.897
REMARK  Name = ZINC85967841
REMARK  11 active torsions:
REMARK  status: ('A' for Active; 'I' for Inactive)
REMARK    1  A    between atoms: C1_1  and  C2_2
REMARK    2  A    between atoms: C2_2  and  C3_3
REMARK    3  A    between atoms: C2_2  and  C4_4
REMARK    4  A    between atoms: C10_10  and  C29_34
REMARK    5  A    between atoms: C12_12  and  O2_15
REMARK    6  A    between atoms: C16_18  and  O3_23
REMARK    7  A    between atoms: C17_20  and  C18_21
REMARK    8  A    between atoms: C17_20  and  C19_22
REMARK    9  A    between atoms: O3_23  and  C20_24
REMARK   10  A    between atoms: C20_24  and  C21_26
REMARK   11  A    between atoms: C22_27  and  C23_28
REMARK                            x       y       z     vdW  Elec       q    Type
REMARK                         _______ _______ _______ _____ _____    ______ ____
ROOT
ATOM      3  C   UNL     1      42.491  20.134  19.455  0.00  0.00    -0.193 C 
ATOM      4  C   UNL     1      43.466  20.901  18.907  0.00  0.00    +0.110 C 
ATOM      5  C   UNL     1      44.825  20.625  19.184  0.00  0.00    -0.111 C 
ATOM      6  C   UNL     1      45.834  21.400  18.611  0.00  0.00    +0.145 C 
ATOM      7  C   UNL     1      47.195  21.152  18.825  0.00  0.00    -0.037 C 
ATOM      8  C   UNL     1      47.623  20.169  19.625  0.00  0.00    -0.015 C 
ATOM      9  C   UNL     1      46.613  19.306  20.354  0.00  0.00    +0.010 C 
ATOM     10  C   UNL     1      46.827  19.489  21.858  0.00  0.00    +0.061 C 
ATOM     11  C   UNL     1      46.934  17.858  19.983  0.00  0.00    +0.060 C 
ATOM     12  C   UNL     1      48.386  17.549  20.358  0.00  0.00    +0.015 C 
ATOM     13  C   UNL     1      49.339  18.404  19.522  0.00  0.00    +0.190 C 
ATOM     25  C   UNL     1      49.091  19.888  19.821  0.00  0.00    -0.021 C 
ATOM     26  C   UNL     1      49.914  20.752  18.863  0.00  0.00    +0.051 C 
ATOM     27  C   UNL     1      49.487  20.197  21.266  0.00  0.00    +0.061 C 
ATOM     28  C   UNL     1      45.155  19.554  20.053  0.00  0.00    -0.052 C 
ATOM     29  C   UNL     1      44.183  18.786  20.598  0.00  0.00    +0.018 C 
ATOM     32  C   UNL     1      42.824  19.064  20.309  0.00  0.00    +0.388 C 
ATOM     33  O   UNL     1      41.941  18.372  20.796  0.00  0.00    -0.471 OA
ENDROOT
BRANCH   3   2
ATOM      1  C   UNL     1      40.898  21.901  18.756  0.00  0.00    +0.027 C 
ATOM      2  C   UNL     1      41.044  20.432  19.155  0.00  0.00    +0.038 C 
ATOM     34  C   UNL     1      40.569  19.540  18.005  0.00  0.00    +0.027 C 
ENDBRANCH   3   2
BRANCH  29  30
ATOM     30  O   UNL     1      44.510  17.756  21.423  0.00  0.00    -0.460 OA
ATOM     31  H   UNL     1      45.361  17.864  21.869  0.00  0.00    +0.400 HD
ENDBRANCH  29  30
BRANCH  13  14
ATOM     14  O   UNL     1      50.690  18.071  19.851  0.00  0.00    -0.336 OA
BRANCH  14  15
ATOM     15  C   UNL     1      51.480  17.654  18.841  0.00  0.00    +0.497 C 
ATOM     24  O   UNL     1      52.642  18.011  18.790  0.00  0.00    -0.509 OA
BRANCH  15  16
ATOM     16  C   UNL     1      50.941  16.771  17.807  0.00  0.00    -0.056 C 
ATOM     17  C   UNL     1      50.745  15.462  18.073  0.00  0.00    +0.140 C 
BRANCH  17  18
ATOM     18  C   UNL     1      50.203  14.574  17.032  0.00  0.00    -0.086 A 
ATOM     19  C   UNL     1      51.063  13.940  16.130  0.00  0.00    +0.034 A 
ATOM     20  C   UNL     1      50.547  13.109  15.158  0.00  0.00    +0.005 A 
ATOM     21  C   UNL     1      49.182  12.902  15.073  0.00  0.00    +0.025 A 
ATOM     22  C   UNL     1      48.323  13.525  15.963  0.00  0.00    +0.005 A 
ATOM     23  C   UNL     1      48.824  14.354  16.944  0.00  0.00    +0.040 A 
ENDBRANCH  17  18
ENDBRANCH  15  16
ENDBRANCH  14  15
ENDBRANCH  13  14
TORSDOF 6
ENDMDL
MODEL 5
REMARK VINA RESULT:      -6.0      3.007      8.651
REMARK  Name = ZINC85967841
REMARK  11 active torsions:
REMARK  status: ('A' for Active; 'I' for Inactive)
REMARK    1  A    between atoms: C1_1  and  C2_2
REMARK    2  A    between atoms: C2_2  and  C3_3
REMARK    3  A    between atoms: C2_2  and  C4_4
REMARK    4  A    between atoms: C10_10  and  C29_34
REMARK    5  A    between atoms: C12_12  and  O2_15
REMARK    6  A    between atoms: C16_18  and  O3_23
REMARK    7  A    between atoms: C17_20  and  C18_21
REMARK    8  A    between atoms: C17_20  and  C19_22
REMARK    9  A    between atoms: O3_23  and  C20_24
REMARK   10  A    between atoms: C20_24  and  C21_26
REMARK   11  A    between atoms: C22_27  and  C23_28
REMARK                            x       y       z     vdW  Elec       q    Type
REMARK                         _______ _______ _______ _____ _____    ______ ____
ROOT
ATOM      3  C   UNL     1      47.754  13.722  17.872  0.00  0.00    -0.193 C 
ATOM      4  C   UNL     1      48.105  14.070  19.135  0.00  0.00    +0.110 C 
ATOM      5  C   UNL     1      48.223  15.435  19.486  0.00  0.00    -0.111 C 
ATOM      6  C   UNL     1      48.568  15.803  20.787  0.00  0.00    +0.145 C 
ATOM      7  C   UNL     1      48.667  17.137  21.197  0.00  0.00    -0.037 C 
ATOM      8  C   UNL     1      48.470  18.158  20.355  0.00  0.00    -0.015 C 
ATOM      9  C   UNL     1      48.155  17.876  18.900  0.00  0.00    +0.010 C 
ATOM     10  C   UNL     1      49.272  18.481  18.046  0.00  0.00    +0.061 C 
ATOM     11  C   UNL     1      46.848  18.607  18.591  0.00  0.00    +0.060 C 
ATOM     12  C   UNL     1      47.013  20.096  18.904  0.00  0.00    +0.015 C 
ATOM     13  C   UNL     1      47.247  20.297  20.402  0.00  0.00    +0.190 C 
ATOM     25  C   UNL     1      48.545  19.592  20.816  0.00  0.00    -0.021 C 
ATOM     26  C   UNL     1      48.693  19.637  22.338  0.00  0.00    +0.051 C 
ATOM     27  C   UNL     1      49.740  20.283  20.159  0.00  0.00    +0.061 C 
ATOM     28  C   UNL     1      47.989  16.430  18.502  0.00  0.00    -0.052 C 
ATOM     29  C   UNL     1      47.636  16.083  17.243  0.00  0.00    +0.018 C 
ATOM     32  C   UNL     1      47.511  14.714  16.901  0.00  0.00    +0.388 C 
ATOM     33  O   UNL     1      47.190  14.393  15.766  0.00  0.00    -0.471 OA
ENDROOT
BRANCH   3   2
ATOM      1  C   UNL     1      48.376  11.413  18.531  0.00  0.00    +0.027 C 
ATOM      2  C   UNL     1      47.627  12.265  17.504  0.00  0.00    +0.038 C 
ATOM     34  C   UNL     1      46.149  11.869  17.491  0.00  0.00    +0.027 C 
ENDBRANCH   3   2
BRANCH  29  30
ATOM     30  O   UNL     1      47.406  17.044  16.309  0.00  0.00    -0.460 OA
ATOM     31  H   UNL     1      46.847  17.769  16.621  0.00  0.00    +0.400 HD
ENDBRANCH  29  30
BRANCH  13  14
ATOM     14  O   UNL     1      47.353  21.694  20.684  0.00  0.00    -0.336 OA
BRANCH  14  15
ATOM     15  C   UNL     1      46.209  22.349  20.969  0.00  0.00    +0.497 C 
ATOM     24  O   UNL     1      46.251  23.457  21.469  0.00  0.00    -0.509 OA
BRANCH  15  16
ATOM     16  C   UNL     1      44.918  21.728  20.678  0.00  0.00    -0.056 C 
ATOM     17  C   UNL     1      44.145  22.214  19.684  0.00  0.00    +0.140 C 
BRANCH  17  18
ATOM     18  C   UNL     1      42.845  21.588  19.390  0.00  0.00    -0.086 A 
ATOM     19  C   UNL     1      41.799  22.354  18.866  0.00  0.00    +0.034 A 
ATOM     20  C   UNL     1      40.584  21.760  18.593  0.00  0.00    +0.005 A 
ATOM     21  C   UNL     1      40.399  20.411  18.837  0.00  0.00    +0.025 A 
ATOM     22  C   UNL     1      41.430  19.646  19.356  0.00  0.00    +0.005 A 
ATOM     23  C   UNL     1      42.651  20.224  19.629  0.00  0.00    +0.040 A 
ENDBRANCH  17  18
ENDBRANCH  15  16
ENDBRANCH  14  15
ENDBRANCH  13  14
TORSDOF 6
ENDMDL
MODEL 6
REMARK VINA RESULT:      -5.9      3.348      9.862
REMARK  Name = ZINC85967841
REMARK  11 active torsions:
REMARK  status: ('A' for Active; 'I' for Inactive)
REMARK    1  A    between atoms: C1_1  and  C2_2
REMARK    2  A    between atoms: C2_2  and  C3_3
REMARK    3  A    between atoms: C2_2  and  C4_4
REMARK    4  A    between atoms: C10_10  and  C29_34
REMARK    5  A    between atoms: C12_12  and  O2_15
REMARK    6  A    between atoms: C16_18  and  O3_23
REMARK    7  A    between atoms: C17_20  and  C18_21
REMARK    8  A    between atoms: C17_20  and  C19_22
REMARK    9  A    between atoms: O3_23  and  C20_24
REMARK   10  A    between atoms: C20_24  and  C21_26
REMARK   11  A    between atoms: C22_27  and  C23_28
REMARK                            x       y       z     vdW  Elec       q    Type
REMARK                         _______ _______ _______ _____ _____    ______ ____
ROOT
ATOM      3  C   UNL     1      52.824  13.996  19.008  0.00  0.00    -0.193 C 
ATOM      4  C   UNL     1      53.125  15.075  19.773  0.00  0.00    +0.110 C 
ATOM      5  C   UNL     1      52.399  16.279  19.617  0.00  0.00    -0.111 C 
ATOM      6  C   UNL     1      52.692  17.388  20.412  0.00  0.00    +0.145 C 
ATOM      7  C   UNL     1      51.985  18.592  20.323  0.00  0.00    -0.037 C 
ATOM      8  C   UNL     1      50.996  18.774  19.441  0.00  0.00    -0.015 C 
ATOM      9  C   UNL     1      50.636  17.659  18.480  0.00  0.00    +0.010 C 
ATOM     10  C   UNL     1      50.873  18.164  17.055  0.00  0.00    +0.061 C 
ATOM     11  C   UNL     1      49.143  17.392  18.667  0.00  0.00    +0.060 C 
ATOM     12  C   UNL     1      48.362  18.686  18.421  0.00  0.00    +0.015 C 
ATOM     13  C   UNL     1      48.724  19.729  19.480  0.00  0.00    +0.190 C 
ATOM     25  C   UNL     1      50.218  20.065  19.377  0.00  0.00    -0.021 C 
ATOM     26  C   UNL     1      50.624  20.970  20.541  0.00  0.00    +0.051 C 
ATOM     27  C   UNL     1      50.498  20.771  18.049  0.00  0.00    +0.061 C 
ATOM     28  C   UNL     1      51.370  16.351  18.643  0.00  0.00    -0.052 C 
ATOM     29  C   UNL     1      51.068  15.274  17.882  0.00  0.00    +0.018 C 
ATOM     32  C   UNL     1      51.793  14.069  18.050  0.00  0.00    +0.388 C 
ATOM     33  O   UNL     1      51.523  13.091  17.367  0.00  0.00    -0.471 OA
ENDROOT
BRANCH   3   2
ATOM      1  C   UNL     1      55.055  13.042  19.520  0.00  0.00    +0.027 C 
ATOM      2  C   UNL     1      53.600  12.715  19.180  0.00  0.00    +0.038 C 
ATOM     34  C   UNL     1      52.982  11.893  20.313  0.00  0.00    +0.027 C 
ENDBRANCH   3   2
BRANCH  29  30
ATOM     30  O   UNL     1      50.074  15.350  16.957  0.00  0.00    -0.460 OA
ATOM     31  H   UNL     1      50.365  15.177  16.051  0.00  0.00    +0.400 HD
ENDBRANCH  29  30
BRANCH  13  14
ATOM     14  O   UNL     1      47.954  20.913  19.264  0.00  0.00    -0.336 OA
BRANCH  14  15
ATOM     15  C   UNL     1      46.928  21.138  20.109  0.00  0.00    +0.497 C 
ATOM     24  O   UNL     1      47.133  21.648  21.194  0.00  0.00    -0.509 OA
BRANCH  15  16
ATOM     16  C   UNL     1      45.567  20.770  19.721  0.00  0.00    -0.056 C 
ATOM     17  C   UNL     1      44.547  21.626  19.941  0.00  0.00    +0.140 C 
BRANCH  17  18
ATOM     18  C   UNL     1      43.177  21.255  19.551  0.00  0.00    -0.086 A 
ATOM     19  C   UNL     1      42.755  19.925  19.648  0.00  0.00    +0.034 A 
ATOM     20  C   UNL     1      41.470  19.585  19.280  0.00  0.00    +0.005 A 
ATOM     21  C   UNL     1      40.599  20.555  18.816  0.00  0.00    +0.025 A 
ATOM     22  C   UNL     1      41.009  21.874  18.717  0.00  0.00    +0.005 A 
ATOM     23  C   UNL     1      42.289  22.230  19.086  0.00  0.00    +0.040 A 
ENDBRANCH  17  18
ENDBRANCH  15  16
ENDBRANCH  14  15
ENDBRANCH  13  14
TORSDOF 6
ENDMDL
MODEL 7
REMARK VINA RESULT:      -5.9      3.101      4.204
REMARK  Name = ZINC85967841
REMARK  11 active torsions:
REMARK  status: ('A' for Active; 'I' for Inactive)
REMARK    1  A    between atoms: C1_1  and  C2_2
REMARK    2  A    between atoms: C2_2  and  C3_3
REMARK    3  A    between atoms: C2_2  and  C4_4
REMARK    4  A    between atoms: C10_10  and  C29_34
REMARK    5  A    between atoms: C12_12  and  O2_15
REMARK    6  A    between atoms: C16_18  and  O3_23
REMARK    7  A    between atoms: C17_20  and  C18_21
REMARK    8  A    between atoms: C17_20  and  C19_22
REMARK    9  A    between atoms: O3_23  and  C20_24
REMARK   10  A    between atoms: C20_24  and  C21_26
REMARK   11  A    between atoms: C22_27  and  C23_28
REMARK                            x       y       z     vdW  Elec       q    Type
REMARK                         _______ _______ _______ _____ _____    ______ ____
ROOT
ATOM      3  C   UNL     1      44.268  20.091  19.642  0.00  0.00    -0.193 C 
ATOM      4  C   UNL     1      44.730  19.169  18.761  0.00  0.00    +0.110 C 
ATOM      5  C   UNL     1      46.122  18.964  18.615  0.00  0.00    -0.111 C 
ATOM      6  C   UNL     1      46.605  18.007  17.723  0.00  0.00    +0.145 C 
ATOM      7  C   UNL     1      47.970  17.739  17.562  0.00  0.00    -0.037 C 
ATOM      8  C   UNL     1      48.911  18.412  18.233  0.00  0.00    -0.015 C 
ATOM      9  C   UNL     1      48.504  19.522  19.181  0.00  0.00    +0.010 C 
ATOM     10  C   UNL     1      49.116  20.830  18.673  0.00  0.00    +0.061 C 
ATOM     11  C   UNL     1      49.124  19.182  20.536  0.00  0.00    +0.060 C 
ATOM     12  C   UNL     1      50.639  19.037  20.379  0.00  0.00    +0.015 C 
ATOM     13  C   UNL     1      50.964  17.848  19.474  0.00  0.00    +0.190 C 
ATOM     25  C   UNL     1      50.376  18.092  18.078  0.00  0.00    -0.021 C 
ATOM     26  C   UNL     1      50.542  16.836  17.221  0.00  0.00    +0.051 C 
ATOM     27  C   UNL     1      51.094  19.270  17.415  0.00  0.00    +0.061 C 
ATOM     28  C   UNL     1      47.025  19.743  19.383  0.00  0.00    -0.052 C 
ATOM     29  C   UNL     1      46.564  20.661  20.265  0.00  0.00    +0.018 C 
ATOM     32  C   UNL     1      45.169  20.854  20.411  0.00  0.00    +0.388 C 
ATOM     33  O   UNL     1      44.746  21.680  21.208  0.00  0.00    -0.471 OA
ENDROOT
BRANCH   3   2
ATOM      1  C   UNL     1      42.122  20.293  18.416  0.00  0.00    +0.027 C 
ATOM      2  C   UNL     1      42.783  20.304  19.795  0.00  0.00    +0.038 C 
ATOM     34  C   UNL     1      42.193  19.183  20.654  0.00  0.00    +0.027 C 
ENDBRANCH   3   2
BRANCH  29  30
ATOM     30  O   UNL     1      47.438  21.396  21.003  0.00  0.00    -0.460 OA
ATOM     31  H   UNL     1      48.237  21.655  20.523  0.00  0.00    +0.400 HD
ENDBRANCH  29  30
BRANCH  13  14
ATOM     14  O   UNL     1      52.382  17.699  19.374  0.00  0.00    -0.336 OA
BRANCH  14  15
ATOM     15  C   UNL     1      52.938  16.672  20.050  0.00  0.00    +0.497 C 
ATOM     24  O   UNL     1      53.181  16.785  21.236  0.00  0.00    -0.509 OA
BRANCH  15  16
ATOM     16  C   UNL     1      53.247  15.423  19.356  0.00  0.00    -0.056 C 
ATOM     17  C   UNL     1      52.389  14.383  19.424  0.00  0.00    +0.140 C 
BRANCH  17  18
ATOM     18  C   UNL     1      52.701  13.126  18.725  0.00  0.00    -0.086 A 
ATOM     19  C   UNL     1      53.737  12.305  19.184  0.00  0.00    +0.034 A 
ATOM     20  C   UNL     1      54.023  11.128  18.524  0.00  0.00    +0.005 A 
ATOM     21  C   UNL     1      53.289  10.758  17.412  0.00  0.00    +0.025 A 
ATOM     22  C   UNL     1      52.262  11.565  16.951  0.00  0.00    +0.005 A 
ATOM     23  C   UNL     1      51.960  12.741  17.603  0.00  0.00    +0.040 A 
ENDBRANCH  17  18
ENDBRANCH  15  16
ENDBRANCH  14  15
ENDBRANCH  13  14
TORSDOF 6
ENDMDL
MODEL 8
REMARK VINA RESULT:      -5.8      4.959      6.090
REMARK  Name = ZINC85967841
REMARK  11 active torsions:
REMARK  status: ('A' for Active; 'I' for Inactive)
REMARK    1  A    between atoms: C1_1  and  C2_2
REMARK    2  A    between atoms: C2_2  and  C3_3
REMARK    3  A    between atoms: C2_2  and  C4_4
REMARK    4  A    between atoms: C10_10  and  C29_34
REMARK    5  A    between atoms: C12_12  and  O2_15
REMARK    6  A    between atoms: C16_18  and  O3_23
REMARK    7  A    between atoms: C17_20  and  C18_21
REMARK    8  A    between atoms: C17_20  and  C19_22
REMARK    9  A    between atoms: O3_23  and  C20_24
REMARK   10  A    between atoms: C20_24  and  C21_26
REMARK   11  A    between atoms: C22_27  and  C23_28
REMARK                            x       y       z     vdW  Elec       q    Type
REMARK                         _______ _______ _______ _____ _____    ______ ____
ROOT
ATOM      3  C   UNL     1      44.977  19.885  19.996  0.00  0.00    -0.193 C 
ATOM      4  C   UNL     1      45.338  19.038  19.001  0.00  0.00    +0.110 C 
ATOM      5  C   UNL     1      46.707  18.814  18.724  0.00  0.00    -0.111 C 
ATOM      6  C   UNL     1      47.087  17.932  17.712  0.00  0.00    +0.145 C 
ATOM      7  C   UNL     1      48.426  17.647  17.416  0.00  0.00    -0.037 C 
ATOM      8  C   UNL     1      49.438  18.231  18.066  0.00  0.00    -0.015 C 
ATOM      9  C   UNL     1      49.143  19.258  19.141  0.00  0.00    +0.010 C 
ATOM     10  C   UNL     1      49.755  20.592  18.706  0.00  0.00    +0.061 C 
ATOM     11  C   UNL     1      49.856  18.778  20.405  0.00  0.00    +0.060 C 
ATOM     12  C   UNL     1      51.349  18.611  20.113  0.00  0.00    +0.015 C 
ATOM     13  C   UNL     1      51.563  17.504  19.080  0.00  0.00    +0.190 C 
ATOM     25  C   UNL     1      50.876  17.891  17.764  0.00  0.00    -0.021 C 
ATOM     26  C   UNL     1      50.934  16.717  16.786  0.00  0.00    +0.051 C 
ATOM     27  C   UNL     1      51.576  19.107  17.154  0.00  0.00    +0.061 C 
ATOM     28  C   UNL     1      47.693  19.495  19.483  0.00  0.00    -0.052 C 
ATOM     29  C   UNL     1      47.332  20.338  20.478  0.00  0.00    +0.018 C 
ATOM     32  C   UNL     1      45.960  20.551  20.755  0.00  0.00    +0.388 C 
ATOM     33  O   UNL     1      45.628  21.310  21.656  0.00  0.00    -0.471 OA
ENDROOT
BRANCH   3   2
ATOM      1  C   UNL     1      42.821  20.637  19.028  0.00  0.00    +0.027 C 
ATOM      2  C   UNL     1      43.517  20.120  20.288  0.00  0.00    +0.038 C 
ATOM     34  C   UNL     1      42.867  18.805  20.727  0.00  0.00    +0.027 C 
ENDBRANCH   3   2
BRANCH  29  30
ATOM     30  O   UNL     1      48.285  20.980  21.206  0.00  0.00    -0.460 OA
ATOM     31  H   UNL     1      48.134  20.955  22.161  0.00  0.00    +0.400 HD
ENDBRANCH  29  30
BRANCH  13  14
ATOM     14  O   UNL     1      52.964  17.330  18.852  0.00  0.00    -0.336 OA
BRANCH  14  15
ATOM     15  C   UNL     1      53.508  16.163  19.252  0.00  0.00    +0.497 C 
ATOM     24  O   UNL     1      52.940  15.114  19.018  0.00  0.00    -0.509 OA
BRANCH  15  16
ATOM     16  C   UNL     1      54.783  16.159  19.969  0.00  0.00    -0.056 C 
ATOM     17  C   UNL     1      55.638  15.125  19.819  0.00  0.00    +0.140 C 
BRANCH  17  18
ATOM     18  C   UNL     1      56.921  15.121  20.540  0.00  0.00    -0.086 A 
ATOM     19  C   UNL     1      57.332  13.980  21.237  0.00  0.00    +0.034 A 
ATOM     20  C   UNL     1      58.536  13.985  21.911  0.00  0.00    +0.005 A 
ATOM     21  C   UNL     1      59.336  15.113  21.898  0.00  0.00    +0.025 A 
ATOM     22  C   UNL     1      58.936  16.247  21.210  0.00  0.00    +0.005 A 
ATOM     23  C   UNL     1      57.738  16.256  20.528  0.00  0.00    +0.040 A 
ENDBRANCH  17  18
ENDBRANCH  15  16
ENDBRANCH  14  15
ENDBRANCH  13  14
TORSDOF 6
ENDMDL
MODEL 9
REMARK VINA RESULT:      -5.7      2.373      3.032
REMARK  Name = ZINC85967841
REMARK  11 active torsions:
REMARK  status: ('A' for Active; 'I' for Inactive)
REMARK    1  A    between atoms: C1_1  and  C2_2
REMARK    2  A    between atoms: C2_2  and  C3_3
REMARK    3  A    between atoms: C2_2  and  C4_4
REMARK    4  A    between atoms: C10_10  and  C29_34
REMARK    5  A    between atoms: C12_12  and  O2_15
REMARK    6  A    between atoms: C16_18  and  O3_23
REMARK    7  A    between atoms: C17_20  and  C18_21
REMARK    8  A    between atoms: C17_20  and  C19_22
REMARK    9  A    between atoms: O3_23  and  C20_24
REMARK   10  A    between atoms: C20_24  and  C21_26
REMARK   11  A    between atoms: C22_27  and  C23_28
REMARK                            x       y       z     vdW  Elec       q    Type
REMARK                         _______ _______ _______ _____ _____    ______ ____
ROOT
ATOM      3  C   UNL     1      42.580  19.983  19.521  0.00  0.00    -0.193 C 
ATOM      4  C   UNL     1      43.718  20.130  18.799  0.00  0.00    +0.110 C 
ATOM      5  C   UNL     1      44.840  19.312  19.070  0.00  0.00    -0.111 C 
ATOM      6  C   UNL     1      46.009  19.445  18.321  0.00  0.00    +0.145 C 
ATOM      7  C   UNL     1      47.136  18.640  18.524  0.00  0.00    -0.037 C 
ATOM      8  C   UNL     1      47.181  17.706  19.480  0.00  0.00    -0.015 C 
ATOM      9  C   UNL     1      45.991  17.519  20.399  0.00  0.00    +0.010 C 
ATOM     10  C   UNL     1      46.445  17.811  21.831  0.00  0.00    +0.061 C 
ATOM     11  C   UNL     1      45.595  16.046  20.299  0.00  0.00    +0.060 C 
ATOM     12  C   UNL     1      46.796  15.172  20.668  0.00  0.00    +0.015 C 
ATOM     13  C   UNL     1      47.919  15.361  19.648  0.00  0.00    +0.190 C 
ATOM     25  C   UNL     1      48.388  16.821  19.668  0.00  0.00    -0.021 C 
ATOM     26  C   UNL     1      49.384  17.059  18.532  0.00  0.00    +0.051 C 
ATOM     27  C   UNL     1      49.052  17.132  21.011  0.00  0.00    +0.061 C 
ATOM     28  C   UNL     1      44.767  18.354  20.114  0.00  0.00    -0.052 C 
ATOM     29  C   UNL     1      43.630  18.205  20.833  0.00  0.00    +0.018 C 
ATOM     32  C   UNL     1      42.509  19.022  20.549  0.00  0.00    +0.388 C 
ATOM     33  O   UNL     1      41.477  18.891  21.194  0.00  0.00    -0.471 OA
ENDROOT
BRANCH   3   2
ATOM      1  C   UNL     1      41.865  22.253  18.824  0.00  0.00    +0.027 C 
ATOM      2  C   UNL     1      41.387  20.857  19.227  0.00  0.00    +0.038 C 
ATOM     34  C   UNL     1      40.577  20.244  18.082  0.00  0.00    +0.027 C 
ENDBRANCH   3   2
BRANCH  29  30
ATOM     30  O   UNL     1      43.568  17.278  21.826  0.00  0.00    -0.460 OA
ATOM     31  H   UNL     1      42.693  17.193  22.230  0.00  0.00    +0.400 HD
ENDBRANCH  29  30
BRANCH  13  14
ATOM     14  O   UNL     1      49.014  14.504  19.981  0.00  0.00    -0.336 OA
BRANCH  14  15
ATOM     15  C   UNL     1      49.507  13.729  18.994  0.00  0.00    +0.497 C 
ATOM     24  O   UNL     1      48.806  13.431  18.046  0.00  0.00    -0.509 OA
BRANCH  15  16
ATOM     16  C   UNL     1      50.886  13.247  19.062  0.00  0.00    -0.056 C 
ATOM     17  C   UNL     1      51.888  14.106  19.345  0.00  0.00    +0.140 C 
BRANCH  17  18
ATOM     18  C   UNL     1      53.275  13.621  19.413  0.00  0.00    -0.086 A 
ATOM     19  C   UNL     1      54.306  14.487  19.795  0.00  0.00    +0.034 A 
ATOM     20  C   UNL     1      55.603  14.025  19.857  0.00  0.00    +0.005 A 
ATOM     21  C   UNL     1      55.888  12.708  19.543  0.00  0.00    +0.025 A 
ATOM     22  C   UNL     1      54.875  11.843  19.165  0.00  0.00    +0.005 A 
ATOM     23  C   UNL     1      53.571  12.289  19.103  0.00  0.00    +0.040 A 
ENDBRANCH  17  18
ENDBRANCH  15  16
ENDBRANCH  14  15
ENDBRANCH  13  14
TORSDOF 6
ENDMDL
