MODEL 1
REMARK VINA RESULT:      -7.2      0.000      0.000
REMARK  Name = ZINC95485959
REMARK  9 active torsions:
REMARK  status: ('A' for Active; 'I' for Inactive)
REMARK    1  A    between atoms: C1_1  and  C2_2
REMARK    2  A    between atoms: C2_2  and  C3_3
REMARK    3  A    between atoms: C2_2  and  C4_4
REMARK    4  A    between atoms: C7_8  and  C30_36
REMARK    5  A    between atoms: C13_17  and  C29_35
REMARK    6  A    between atoms: C14_18  and  C17_21
REMARK    7  A    between atoms: C21_26  and  C28_34
REMARK    8  A    between atoms: C25_31  and  C26_32
REMARK    9  A    between atoms: C25_31  and  C27_33
REMARK                            x       y       z     vdW  Elec       q    Type
REMARK                         _______ _______ _______ _____ _____    ______ ____
ROOT
ATOM      3  C   UNL     1      44.854  21.472  20.913  0.00  0.00    -0.020 C 
ATOM      4  C   UNL     1      44.388  20.941  22.288  0.00  0.00    +0.002 C 
ATOM      5  C   UNL     1      44.392  19.403  22.165  0.00  0.00    +0.015 C 
ATOM      6  C   UNL     1      44.118  19.195  20.662  0.00  0.00    -0.054 C 
ATOM      7  C   UNL     1      42.638  19.501  20.385  0.00  0.00    +0.014 C 
ATOM      8  C   UNL     1      44.396  17.774  20.238  0.00  0.00    +0.011 C 
ATOM      9  C   UNL     1      45.890  17.468  20.294  0.00  0.00    +0.019 C 
ATOM     10  C   UNL     1      46.624  18.401  19.323  0.00  0.00    -0.034 C 
ATOM     11  C   UNL     1      46.088  18.175  17.908  0.00  0.00    +0.018 C 
ATOM     12  C   UNL     1      48.124  18.039  19.341  0.00  0.00    -0.026 C 
ATOM     13  C   UNL     1      48.210  16.651  18.673  0.00  0.00    +0.018 C 
ATOM     14  C   UNL     1      48.563  17.897  20.795  0.00  0.00    +0.019 C 
ATOM     15  C   UNL     1      50.051  17.632  20.922  0.00  0.00    +0.022 C 
ATOM     16  C   UNL     1      50.918  18.654  20.200  0.00  0.00    +0.004 C 
ATOM     17  C   UNL     1      50.484  18.863  18.768  0.00  0.00    -0.073 C 
ATOM     18  C   UNL     1      50.987  17.673  17.915  0.00  0.00    +0.045 C 
ATOM     19  C   UNL     1      51.158  20.082  18.161  0.00  0.00    +0.392 C 
ATOM     20  C   UNL     1      51.423  21.253  18.989  0.00  0.00    -0.097 C 
ATOM     21  C   UNL     1      51.432  21.147  20.305  0.00  0.00    +0.062 C 
ATOM     22  O   UNL     1      51.475  20.070  16.984  0.00  0.00    -0.458 OA
ATOM     23  C   UNL     1      51.241  19.860  21.046  0.00  0.00    -0.032 C 
ATOM     24  C   UNL     1      52.587  19.572  21.760  0.00  0.00    +0.034 C 
ATOM     25  C   UNL     1      50.213  20.107  22.155  0.00  0.00    +0.043 C 
ATOM     26  C   UNL     1      48.975  19.031  18.583  0.00  0.00    +0.024 C 
ATOM     27  C   UNL     1      48.636  20.491  18.887  0.00  0.00    +0.006 C 
ATOM     28  C   UNL     1      47.135  20.743  18.753  0.00  0.00    +0.005 C 
ATOM     29  C   UNL     1      46.424  19.844  19.771  0.00  0.00    +0.015 C 
ATOM     30  C   UNL     1      44.979  20.259  19.961  0.00  0.00    +0.014 C 
ENDROOT
BRANCH   3   2
ATOM      1  C   UNL     1      45.815  23.770  21.005  0.00  0.00    +0.009 C 
ATOM      2  C   UNL     1      46.130  22.276  21.118  0.00  0.00    -0.015 C 
ATOM     31  C   UNL     1      46.703  21.980  22.505  0.00  0.00    +0.019 C 
ENDBRANCH   3   2
TORSDOF 1
ENDMDL
MODEL 2
REMARK VINA RESULT:      -6.7      2.183      6.585
REMARK  Name = ZINC95485959
REMARK  9 active torsions:
REMARK  status: ('A' for Active; 'I' for Inactive)
REMARK    1  A    between atoms: C1_1  and  C2_2
REMARK    2  A    between atoms: C2_2  and  C3_3
REMARK    3  A    between atoms: C2_2  and  C4_4
REMARK    4  A    between atoms: C7_8  and  C30_36
REMARK    5  A    between atoms: C13_17  and  C29_35
REMARK    6  A    between atoms: C14_18  and  C17_21
REMARK    7  A    between atoms: C21_26  and  C28_34
REMARK    8  A    between atoms: C25_31  and  C26_32
REMARK    9  A    between atoms: C25_31  and  C27_33
REMARK                            x       y       z     vdW  Elec       q    Type
REMARK                         _______ _______ _______ _____ _____    ______ ____
ROOT
ATOM      3  C   UNL     1      48.185  16.544  17.564  0.00  0.00    -0.020 C 
ATOM      4  C   UNL     1      48.714  15.425  18.489  0.00  0.00    +0.002 C 
ATOM      5  C   UNL     1      49.441  16.147  19.644  0.00  0.00    +0.015 C 
ATOM      6  C   UNL     1      49.919  17.446  18.967  0.00  0.00    -0.054 C 
ATOM      7  C   UNL     1      51.103  17.115  18.047  0.00  0.00    +0.014 C 
ATOM      8  C   UNL     1      50.378  18.465  19.981  0.00  0.00    +0.011 C 
ATOM      9  C   UNL     1      49.201  18.992  20.799  0.00  0.00    +0.019 C 
ATOM     10  C   UNL     1      48.211  19.683  19.854  0.00  0.00    -0.034 C 
ATOM     11  C   UNL     1      48.919  20.834  19.138  0.00  0.00    +0.018 C 
ATOM     12  C   UNL     1      47.059  20.267  20.699  0.00  0.00    -0.026 C 
ATOM     13  C   UNL     1      47.694  21.425  21.496  0.00  0.00    +0.018 C 
ATOM     14  C   UNL     1      46.604  19.198  21.688  0.00  0.00    +0.019 C 
ATOM     15  C   UNL     1      45.408  19.646  22.505  0.00  0.00    +0.022 C 
ATOM     16  C   UNL     1      44.235  20.126  21.662  0.00  0.00    +0.004 C 
ATOM     17  C   UNL     1      44.653  21.149  20.633  0.00  0.00    -0.073 C 
ATOM     18  C   UNL     1      44.845  22.515  21.336  0.00  0.00    +0.045 C 
ATOM     19  C   UNL     1      43.546  21.393  19.619  0.00  0.00    +0.392 C 
ATOM     20  C   UNL     1      42.690  20.289  19.200  0.00  0.00    -0.097 C 
ATOM     21  C   UNL     1      42.609  19.196  19.935  0.00  0.00    +0.062 C 
ATOM     22  O   UNL     1      43.383  22.512  19.165  0.00  0.00    -0.458 OA
ATOM     23  C   UNL     1      43.309  19.011  21.246  0.00  0.00    -0.032 C 
ATOM     24  C   UNL     1      42.194  18.916  22.318  0.00  0.00    +0.034 C 
ATOM     25  C   UNL     1      43.994  17.640  21.220  0.00  0.00    +0.043 C 
ATOM     26  C   UNL     1      45.918  20.785  19.854  0.00  0.00    +0.024 C 
ATOM     27  C   UNL     1      45.506  19.836  18.728  0.00  0.00    +0.006 C 
ATOM     28  C   UNL     1      46.721  19.396  17.913  0.00  0.00    +0.005 C 
ATOM     29  C   UNL     1      47.671  18.658  18.862  0.00  0.00    +0.015 C 
ATOM     30  C   UNL     1      48.730  17.890  18.098  0.00  0.00    +0.014 C 
ENDROOT
BRANCH   3   2
ATOM      1  C   UNL     1      46.254  15.907  16.123  0.00  0.00    +0.009 C 
ATOM      2  C   UNL     1      46.668  16.433  17.499  0.00  0.00    -0.015 C 
ATOM     31  C   UNL     1      46.179  15.468  18.581  0.00  0.00    +0.019 C 
ENDBRANCH   3   2
TORSDOF 1
ENDMDL
MODEL 3
REMARK VINA RESULT:      -6.5      1.461      2.451
REMARK  Name = ZINC95485959
REMARK  9 active torsions:
REMARK  status: ('A' for Active; 'I' for Inactive)
REMARK    1  A    between atoms: C1_1  and  C2_2
REMARK    2  A    between atoms: C2_2  and  C3_3
REMARK    3  A    between atoms: C2_2  and  C4_4
REMARK    4  A    between atoms: C7_8  and  C30_36
REMARK    5  A    between atoms: C13_17  and  C29_35
REMARK    6  A    between atoms: C14_18  and  C17_21
REMARK    7  A    between atoms: C21_26  and  C28_34
REMARK    8  A    between atoms: C25_31  and  C26_32
REMARK    9  A    between atoms: C25_31  and  C27_33
REMARK                            x       y       z     vdW  Elec       q    Type
REMARK                         _______ _______ _______ _____ _____    ______ ____
ROOT
ATOM      3  C   UNL     1      45.279  18.905  20.298  0.00  0.00    -0.020 C 
ATOM      4  C   UNL     1      45.091  19.128  21.815  0.00  0.00    +0.002 C 
ATOM      5  C   UNL     1      45.875  17.993  22.505  0.00  0.00    +0.015 C 
ATOM      6  C   UNL     1      45.803  16.863  21.459  0.00  0.00    -0.054 C 
ATOM      7  C   UNL     1      44.384  16.276  21.466  0.00  0.00    +0.014 C 
ATOM      8  C   UNL     1      46.776  15.754  21.770  0.00  0.00    +0.011 C 
ATOM      9  C   UNL     1      48.218  16.219  21.579  0.00  0.00    +0.019 C 
ATOM     10  C   UNL     1      48.418  16.623  20.114  0.00  0.00    -0.034 C 
ATOM     11  C   UNL     1      48.125  15.419  19.217  0.00  0.00    +0.018 C 
ATOM     12  C   UNL     1      49.894  17.031  19.919  0.00  0.00    -0.026 C 
ATOM     13  C   UNL     1      50.695  15.720  20.065  0.00  0.00    +0.018 C 
ATOM     14  C   UNL     1      50.286  17.961  21.063  0.00  0.00    +0.019 C 
ATOM     15  C   UNL     1      51.698  18.494  20.910  0.00  0.00    +0.022 C 
ATOM     16  C   UNL     1      51.959  19.160  19.567  0.00  0.00    +0.004 C 
ATOM     17  C   UNL     1      51.535  18.292  18.406  0.00  0.00    -0.073 C 
ATOM     18  C   UNL     1      52.604  17.192  18.189  0.00  0.00    +0.045 C 
ATOM     19  C   UNL     1      51.526  19.078  17.106  0.00  0.00    +0.392 C 
ATOM     20  C   UNL     1      51.131  20.482  17.109  0.00  0.00    -0.097 C 
ATOM     21  C   UNL     1      51.140  21.172  18.235  0.00  0.00    +0.062 C 
ATOM     22  O   UNL     1      51.852  18.528  16.068  0.00  0.00    -0.458 OA
ATOM     23  C   UNL     1      51.595  20.624  19.552  0.00  0.00    -0.032 C 
ATOM     24  C   UNL     1      52.873  21.418  19.928  0.00  0.00    +0.034 C 
ATOM     25  C   UNL     1      50.540  20.991  20.600  0.00  0.00    +0.043 C 
ATOM     26  C   UNL     1      50.157  17.650  18.565  0.00  0.00    +0.024 C 
ATOM     27  C   UNL     1      49.116  18.691  18.153  0.00  0.00    +0.006 C 
ATOM     28  C   UNL     1      47.699  18.139  18.310  0.00  0.00    +0.005 C 
ATOM     29  C   UNL     1      47.499  17.796  19.790  0.00  0.00    +0.015 C 
ATOM     30  C   UNL     1      46.037  17.569  20.112  0.00  0.00    +0.014 C 
ENDROOT
BRANCH   3   2
ATOM      1  C   UNL     1      44.991  20.873  18.796  0.00  0.00    +0.009 C 
ATOM      2  C   UNL     1      45.966  20.132  19.714  0.00  0.00    -0.015 C 
ATOM     31  C   UNL     1      46.401  21.061  20.850  0.00  0.00    +0.019 C 
ENDBRANCH   3   2
TORSDOF 1
ENDMDL
MODEL 4
REMARK VINA RESULT:      -6.3      2.098      3.663
REMARK  Name = ZINC95485959
REMARK  9 active torsions:
REMARK  status: ('A' for Active; 'I' for Inactive)
REMARK    1  A    between atoms: C1_1  and  C2_2
REMARK    2  A    between atoms: C2_2  and  C3_3
REMARK    3  A    between atoms: C2_2  and  C4_4
REMARK    4  A    between atoms: C7_8  and  C30_36
REMARK    5  A    between atoms: C13_17  and  C29_35
REMARK    6  A    between atoms: C14_18  and  C17_21
REMARK    7  A    between atoms: C21_26  and  C28_34
REMARK    8  A    between atoms: C25_31  and  C26_32
REMARK    9  A    between atoms: C25_31  and  C27_33
REMARK                            x       y       z     vdW  Elec       q    Type
REMARK                         _______ _______ _______ _____ _____    ______ ____
ROOT
ATOM      3  C   UNL     1      45.100  16.205  19.875  0.00  0.00    -0.020 C 
ATOM      4  C   UNL     1      45.001  15.424  21.205  0.00  0.00    +0.002 C 
ATOM      5  C   UNL     1      46.133  14.376  21.159  0.00  0.00    +0.015 C 
ATOM      6  C   UNL     1      46.280  14.121  19.646  0.00  0.00    -0.054 C 
ATOM      7  C   UNL     1      45.088  13.277  19.171  0.00  0.00    +0.014 C 
ATOM      8  C   UNL     1      47.549  13.369  19.330  0.00  0.00    +0.011 C 
ATOM      9  C   UNL     1      48.779  14.237  19.588  0.00  0.00    +0.019 C 
ATOM     10  C   UNL     1      48.720  15.465  18.672  0.00  0.00    -0.034 C 
ATOM     11  C   UNL     1      48.691  15.003  17.214  0.00  0.00    +0.018 C 
ATOM     12  C   UNL     1      49.998  16.301  18.896  0.00  0.00    -0.026 C 
ATOM     13  C   UNL     1      51.143  15.446  18.312  0.00  0.00    +0.018 C 
ATOM     14  C   UNL     1      50.221  16.437  20.398  0.00  0.00    +0.019 C 
ATOM     15  C   UNL     1      51.408  17.324  20.724  0.00  0.00    +0.022 C 
ATOM     16  C   UNL     1      51.345  18.696  20.067  0.00  0.00    +0.004 C 
ATOM     17  C   UNL     1      51.073  18.607  18.584  0.00  0.00    -0.073 C 
ATOM     18  C   UNL     1      52.380  18.202  17.860  0.00  0.00    +0.045 C 
ATOM     19  C   UNL     1      50.722  19.969  18.007  0.00  0.00    +0.392 C 
ATOM     20  C   UNL     1      49.952  20.918  18.803  0.00  0.00    -0.097 C 
ATOM     21  C   UNL     1      49.875  20.777  20.113  0.00  0.00    +0.062 C 
ATOM     22  O   UNL     1      51.089  20.257  16.881  0.00  0.00    -0.458 OA
ATOM     23  C   UNL     1      50.587  19.710  20.886  0.00  0.00    -0.032 C 
ATOM     24  C   UNL     1      51.622  20.445  21.777  0.00  0.00    +0.034 C 
ATOM     25  C   UNL     1      49.575  19.073  21.845  0.00  0.00    +0.043 C 
ATOM     26  C   UNL     1      49.949  17.642  18.202  0.00  0.00    +0.024 C 
ATOM     27  C   UNL     1      48.625  18.383  18.390  0.00  0.00    +0.006 C 
ATOM     28  C   UNL     1      47.440  17.478  18.057  0.00  0.00    +0.005 C 
ATOM     29  C   UNL     1      47.484  16.287  19.020  0.00  0.00    +0.015 C 
ATOM     30  C   UNL     1      46.180  15.517  19.007  0.00  0.00    +0.014 C 
ENDROOT
BRANCH   3   2
ATOM      1  C   UNL     1      44.190  18.519  19.693  0.00  0.00    +0.009 C 
ATOM      2  C   UNL     1      45.359  17.671  20.198  0.00  0.00    -0.015 C 
ATOM     31  C   UNL     1      45.496  17.842  21.713  0.00  0.00    +0.019 C 
ENDBRANCH   3   2
TORSDOF 1
ENDMDL
MODEL 5
REMARK VINA RESULT:      -6.2      2.778      6.604
REMARK  Name = ZINC95485959
REMARK  9 active torsions:
REMARK  status: ('A' for Active; 'I' for Inactive)
REMARK    1  A    between atoms: C1_1  and  C2_2
REMARK    2  A    between atoms: C2_2  and  C3_3
REMARK    3  A    between atoms: C2_2  and  C4_4
REMARK    4  A    between atoms: C7_8  and  C30_36
REMARK    5  A    between atoms: C13_17  and  C29_35
REMARK    6  A    between atoms: C14_18  and  C17_21
REMARK    7  A    between atoms: C21_26  and  C28_34
REMARK    8  A    between atoms: C25_31  and  C26_32
REMARK    9  A    between atoms: C25_31  and  C27_33
REMARK                            x       y       z     vdW  Elec       q    Type
REMARK                         _______ _______ _______ _____ _____    ______ ____
ROOT
ATOM      3  C   UNL     1      51.509  18.170  17.400  0.00  0.00    -0.020 C 
ATOM      4  C   UNL     1      52.556  18.746  18.380  0.00  0.00    +0.002 C 
ATOM      5  C   UNL     1      51.766  19.645  19.354  0.00  0.00    +0.015 C 
ATOM      6  C   UNL     1      50.581  20.108  18.484  0.00  0.00    -0.054 C 
ATOM      7  C   UNL     1      51.087  21.152  17.478  0.00  0.00    +0.014 C 
ATOM      8  C   UNL     1      49.493  20.740  19.316  0.00  0.00    +0.011 C 
ATOM      9  C   UNL     1      48.803  19.701  20.197  0.00  0.00    +0.019 C 
ATOM     10  C   UNL     1      48.153  18.643  19.299  0.00  0.00    -0.034 C 
ATOM     11  C   UNL     1      47.134  19.321  18.380  0.00  0.00    +0.018 C 
ATOM     12  C   UNL     1      47.406  17.634  20.198  0.00  0.00    -0.026 C 
ATOM     13  C   UNL     1      46.214  18.424  20.780  0.00  0.00    +0.018 C 
ATOM     14  C   UNL     1      48.329  17.246  21.347  0.00  0.00    +0.019 C 
ATOM     15  C   UNL     1      47.718  16.183  22.240  0.00  0.00    +0.022 C 
ATOM     16  C   UNL     1      47.252  14.944  21.487  0.00  0.00    +0.004 C 
ATOM     17  C   UNL     1      46.375  15.290  20.307  0.00  0.00    -0.073 C 
ATOM     18  C   UNL     1      44.958  15.639  20.823  0.00  0.00    +0.045 C 
ATOM     19  C   UNL     1      46.167  14.084  19.405  0.00  0.00    +0.392 C 
ATOM     20  C   UNL     1      47.249  13.124  19.215  0.00  0.00    -0.097 C 
ATOM     21  C   UNL     1      48.250  13.073  20.074  0.00  0.00    +0.062 C 
ATOM     22  O   UNL     1      45.095  13.927  18.847  0.00  0.00    -0.458 OA
ATOM     23  C   UNL     1      48.341  13.916  21.308  0.00  0.00    -0.032 C 
ATOM     24  C   UNL     1      48.245  12.935  22.505  0.00  0.00    +0.034 C 
ATOM     25  C   UNL     1      49.749  14.517  21.361  0.00  0.00    +0.043 C 
ATOM     26  C   UNL     1      46.905  16.430  19.435  0.00  0.00    +0.024 C 
ATOM     27  C   UNL     1      47.939  15.834  18.480  0.00  0.00    +0.006 C 
ATOM     28  C   UNL     1      48.544  16.916  17.586  0.00  0.00    +0.005 C 
ATOM     29  C   UNL     1      49.239  17.932  18.499  0.00  0.00    +0.015 C 
ATOM     30  C   UNL     1      50.153  18.848  17.711  0.00  0.00    +0.014 C 
ENDROOT
BRANCH   3   2
ATOM      1  C   UNL     1      51.839  16.035  16.157  0.00  0.00    +0.009 C 
ATOM      2  C   UNL     1      51.524  16.652  17.521  0.00  0.00    -0.015 C 
ATOM     31  C   UNL     1      52.595  16.232  18.530  0.00  0.00    +0.019 C 
ENDBRANCH   3   2
TORSDOF 1
ENDMDL
MODEL 6
REMARK VINA RESULT:      -6.1      2.473      4.809
REMARK  Name = ZINC95485959
REMARK  9 active torsions:
REMARK  status: ('A' for Active; 'I' for Inactive)
REMARK    1  A    between atoms: C1_1  and  C2_2
REMARK    2  A    between atoms: C2_2  and  C3_3
REMARK    3  A    between atoms: C2_2  and  C4_4
REMARK    4  A    between atoms: C7_8  and  C30_36
REMARK    5  A    between atoms: C13_17  and  C29_35
REMARK    6  A    between atoms: C14_18  and  C17_21
REMARK    7  A    between atoms: C21_26  and  C28_34
REMARK    8  A    between atoms: C25_31  and  C26_32
REMARK    9  A    between atoms: C25_31  and  C27_33
REMARK                            x       y       z     vdW  Elec       q    Type
REMARK                         _______ _______ _______ _____ _____    ______ ____
ROOT
ATOM      3  C   UNL     1      48.756  20.791  19.655  0.00  0.00    -0.020 C 
ATOM      4  C   UNL     1      49.251  21.062  21.094  0.00  0.00    +0.002 C 
ATOM      5  C   UNL     1      48.162  20.490  22.026  0.00  0.00    +0.015 C 
ATOM      6  C   UNL     1      46.890  20.633  21.167  0.00  0.00    -0.054 C 
ATOM      7  C   UNL     1      46.486  22.115  21.129  0.00  0.00    +0.014 C 
ATOM      8  C   UNL     1      45.740  19.843  21.740  0.00  0.00    +0.011 C 
ATOM      9  C   UNL     1      45.991  18.342  21.618  0.00  0.00    +0.019 C 
ATOM     10  C   UNL     1      46.117  17.980  20.133  0.00  0.00    -0.034 C 
ATOM     11  C   UNL     1      44.823  18.362  19.412  0.00  0.00    +0.018 C 
ATOM     12  C   UNL     1      46.307  16.452  20.020  0.00  0.00    -0.026 C 
ATOM     13  C   UNL     1      44.953  15.847  20.446  0.00  0.00    +0.018 C 
ATOM     14  C   UNL     1      47.362  16.027  21.037  0.00  0.00    +0.019 C 
ATOM     15  C   UNL     1      47.689  14.549  20.939  0.00  0.00    +0.022 C 
ATOM     16  C   UNL     1      48.085  14.100  19.539  0.00  0.00    +0.004 C 
ATOM     17  C   UNL     1      47.091  14.548  18.494  0.00  0.00    -0.073 C 
ATOM     18  C   UNL     1      45.851  13.623  18.555  0.00  0.00    +0.045 C 
ATOM     19  C   UNL     1      47.644  14.354  17.091  0.00  0.00    +0.392 C 
ATOM     20  C   UNL     1      49.066  14.557  16.837  0.00  0.00    -0.097 C 
ATOM     21  C   UNL     1      49.928  14.541  17.836  0.00  0.00    +0.062 C 
ATOM     22  O   UNL     1      46.893  14.027  16.188  0.00  0.00    -0.458 OA
ATOM     23  C   UNL     1      49.558  14.264  19.261  0.00  0.00    -0.032 C 
ATOM     24  C   UNL     1      50.245  12.923  19.629  0.00  0.00    +0.034 C 
ATOM     25  C   UNL     1      50.219  15.336  20.133  0.00  0.00    +0.043 C 
ATOM     26  C   UNL     1      46.654  16.008  18.618  0.00  0.00    +0.024 C 
ATOM     27  C   UNL     1      47.729  16.867  17.950  0.00  0.00    +0.006 C 
ATOM     28  C   UNL     1      47.384  18.352  18.054  0.00  0.00    +0.005 C 
ATOM     29  C   UNL     1      47.321  18.707  19.543  0.00  0.00    +0.015 C 
ATOM     30  C   UNL     1      47.327  20.207  19.755  0.00  0.00    +0.014 C 
ENDROOT
BRANCH   3   2
ATOM      1  C   UNL     1      50.624  20.754  18.006  0.00  0.00    +0.009 C 
ATOM      2  C   UNL     1      49.777  19.904  18.956  0.00  0.00    -0.015 C 
ATOM     31  C   UNL     1      50.685  19.250  20.000  0.00  0.00    +0.019 C 
ENDBRANCH   3   2
TORSDOF 1
ENDMDL
MODEL 7
REMARK VINA RESULT:      -5.9      1.858      4.412
REMARK  Name = ZINC95485959
REMARK  9 active torsions:
REMARK  status: ('A' for Active; 'I' for Inactive)
REMARK    1  A    between atoms: C1_1  and  C2_2
REMARK    2  A    between atoms: C2_2  and  C3_3
REMARK    3  A    between atoms: C2_2  and  C4_4
REMARK    4  A    between atoms: C7_8  and  C30_36
REMARK    5  A    between atoms: C13_17  and  C29_35
REMARK    6  A    between atoms: C14_18  and  C17_21
REMARK    7  A    between atoms: C21_26  and  C28_34
REMARK    8  A    between atoms: C25_31  and  C26_32
REMARK    9  A    between atoms: C25_31  and  C27_33
REMARK                            x       y       z     vdW  Elec       q    Type
REMARK                         _______ _______ _______ _____ _____    ______ ____
ROOT
ATOM      3  C   UNL     1      45.202  17.915  21.084  0.00  0.00    -0.020 C 
ATOM      4  C   UNL     1      44.165  18.049  19.946  0.00  0.00    +0.002 C 
ATOM      5  C   UNL     1      44.637  19.242  19.088  0.00  0.00    +0.015 C 
ATOM      6  C   UNL     1      45.379  20.113  20.121  0.00  0.00    -0.054 C 
ATOM      7  C   UNL     1      44.341  20.801  21.020  0.00  0.00    +0.014 C 
ATOM      8  C   UNL     1      46.209  21.181  19.453  0.00  0.00    +0.011 C 
ATOM      9  C   UNL     1      47.390  20.569  18.705  0.00  0.00    +0.019 C 
ATOM     10  C   UNL     1      48.287  19.836  19.709  0.00  0.00    -0.034 C 
ATOM     11  C   UNL     1      48.782  20.831  20.760  0.00  0.00    +0.018 C 
ATOM     12  C   UNL     1      49.510  19.276  18.951  0.00  0.00    -0.026 C 
ATOM     13  C   UNL     1      50.331  20.517  18.543  0.00  0.00    +0.018 C 
ATOM     14  C   UNL     1      49.012  18.594  17.681  0.00  0.00    +0.019 C 
ATOM     15  C   UNL     1      50.135  17.928  16.910  0.00  0.00    +0.022 C 
ATOM     16  C   UNL     1      50.962  16.961  17.746  0.00  0.00    +0.004 C 
ATOM     17  C   UNL     1      51.432  17.582  19.039  0.00  0.00    -0.073 C 
ATOM     18  C   UNL     1      52.630  18.516  18.739  0.00  0.00    +0.045 C 
ATOM     19  C   UNL     1      51.994  16.531  19.982  0.00  0.00    +0.392 C 
ATOM     20  C   UNL     1      51.399  15.199  20.022  0.00  0.00    -0.097 C 
ATOM     21  C   UNL     1      50.648  14.778  19.022  0.00  0.00    +0.062 C 
ATOM     22  O   UNL     1      52.940  16.809  20.699  0.00  0.00    -0.458 OA
ATOM     23  C   UNL     1      50.392  15.565  17.774  0.00  0.00    -0.032 C 
ATOM     24  C   UNL     1      51.062  14.773  16.622  0.00  0.00    +0.034 C 
ATOM     25  C   UNL     1      48.885  15.526  17.498  0.00  0.00    +0.043 C 
ATOM     26  C   UNL     1      50.353  18.354  19.801  0.00  0.00    +0.024 C 
ATOM     27  C   UNL     1      49.538  17.336  20.598  0.00  0.00    +0.006 C 
ATOM     28  C   UNL     1      48.412  18.022  21.371  0.00  0.00    +0.005 C 
ATOM     29  C   UNL     1      47.496  18.699  20.347  0.00  0.00    +0.015 C 
ATOM     30  C   UNL     1      46.178  19.110  20.970  0.00  0.00    +0.014 C 
ENDROOT
BRANCH   3   2
ATOM      1  C   UNL     1      45.324  15.653  22.123  0.00  0.00    +0.009 C 
ATOM      2  C   UNL     1      45.843  16.537  20.987  0.00  0.00    -0.015 C 
ATOM     31  C   UNL     1      45.485  15.901  19.642  0.00  0.00    +0.019 C 
ENDBRANCH   3   2
TORSDOF 1
ENDMDL
MODEL 8
REMARK VINA RESULT:      -5.9      2.840      6.423
REMARK  Name = ZINC95485959
REMARK  9 active torsions:
REMARK  status: ('A' for Active; 'I' for Inactive)
REMARK    1  A    between atoms: C1_1  and  C2_2
REMARK    2  A    between atoms: C2_2  and  C3_3
REMARK    3  A    between atoms: C2_2  and  C4_4
REMARK    4  A    between atoms: C7_8  and  C30_36
REMARK    5  A    between atoms: C13_17  and  C29_35
REMARK    6  A    between atoms: C14_18  and  C17_21
REMARK    7  A    between atoms: C21_26  and  C28_34
REMARK    8  A    between atoms: C25_31  and  C26_32
REMARK    9  A    between atoms: C25_31  and  C27_33
REMARK                            x       y       z     vdW  Elec       q    Type
REMARK                         _______ _______ _______ _____ _____    ______ ____
ROOT
ATOM      3  C   UNL     1      49.447  20.382  19.881  0.00  0.00    -0.020 C 
ATOM      4  C   UNL     1      49.530  21.117  18.524  0.00  0.00    +0.002 C 
ATOM      5  C   UNL     1      50.706  20.465  17.767  0.00  0.00    +0.015 C 
ATOM      6  C   UNL     1      51.620  20.003  18.919  0.00  0.00    -0.054 C 
ATOM      7  C   UNL     1      52.314  21.233  19.521  0.00  0.00    +0.014 C 
ATOM      8  C   UNL     1      52.683  19.047  18.436  0.00  0.00    +0.011 C 
ATOM      9  C   UNL     1      52.071  17.714  18.014  0.00  0.00    +0.019 C 
ATOM     10  C   UNL     1      51.382  17.078  19.227  0.00  0.00    -0.034 C 
ATOM     11  C   UNL     1      52.416  16.861  20.334  0.00  0.00    +0.018 C 
ATOM     12  C   UNL     1      50.823  15.703  18.803  0.00  0.00    -0.026 C 
ATOM     13  C   UNL     1      52.067  14.821  18.565  0.00  0.00    +0.018 C 
ATOM     14  C   UNL     1      50.097  15.874  17.473  0.00  0.00    +0.019 C 
ATOM     15  C   UNL     1      49.429  14.591  17.015  0.00  0.00    +0.022 C 
ATOM     16  C   UNL     1      48.501  13.979  18.056  0.00  0.00    +0.004 C 
ATOM     17  C   UNL     1      49.168  13.840  19.404  0.00  0.00    -0.073 C 
ATOM     18  C   UNL     1      50.113  12.615  19.371  0.00  0.00    +0.045 C 
ATOM     19  C   UNL     1      48.153  13.511  20.487  0.00  0.00    +0.392 C 
ATOM     20  C   UNL     1      46.813  14.084  20.425  0.00  0.00    -0.097 C 
ATOM     21  C   UNL     1      46.350  14.568  19.288  0.00  0.00    +0.062 C 
ATOM     22  O   UNL     1      48.468  12.768  21.401  0.00  0.00    -0.458 OA
ATOM     23  C   UNL     1      47.097  14.524  17.990  0.00  0.00    -0.032 C 
ATOM     24  C   UNL     1      46.284  13.588  17.059  0.00  0.00    +0.034 C 
ATOM     25  C   UNL     1      47.024  15.920  17.362  0.00  0.00    +0.043 C 
ATOM     26  C   UNL     1      49.941  15.079  19.859  0.00  0.00    +0.024 C 
ATOM     27  C   UNL     1      48.931  16.051  20.469  0.00  0.00    +0.006 C 
ATOM     28  C   UNL     1      49.619  17.337  20.927  0.00  0.00    +0.005 C 
ATOM     29  C   UNL     1      50.250  17.987  19.691  0.00  0.00    +0.015 C 
ATOM     30  C   UNL     1      50.655  19.420  19.967  0.00  0.00    +0.014 C 
ENDROOT
BRANCH   3   2
ATOM      1  C   UNL     1      47.386  20.184  21.269  0.00  0.00    +0.009 C 
ATOM      2  C   UNL     1      48.078  19.723  19.984  0.00  0.00    -0.015 C 
ATOM     31  C   UNL     1      47.227  20.119  18.776  0.00  0.00    +0.019 C 
ENDBRANCH   3   2
TORSDOF 1
ENDMDL
MODEL 9
REMARK VINA RESULT:      -5.8      2.221      5.347
REMARK  Name = ZINC95485959
REMARK  9 active torsions:
REMARK  status: ('A' for Active; 'I' for Inactive)
REMARK    1  A    between atoms: C1_1  and  C2_2
REMARK    2  A    between atoms: C2_2  and  C3_3
REMARK    3  A    between atoms: C2_2  and  C4_4
REMARK    4  A    between atoms: C7_8  and  C30_36
REMARK    5  A    between atoms: C13_17  and  C29_35
REMARK    6  A    between atoms: C14_18  and  C17_21
REMARK    7  A    between atoms: C21_26  and  C28_34
REMARK    8  A    between atoms: C25_31  and  C26_32
REMARK    9  A    between atoms: C25_31  and  C27_33
REMARK                            x       y       z     vdW  Elec       q    Type
REMARK                         _______ _______ _______ _____ _____    ______ ____
ROOT
ATOM      3  C   UNL     1      48.233  13.907  19.004  0.00  0.00    -0.020 C 
ATOM      4  C   UNL     1      47.399  13.850  17.704  0.00  0.00    +0.002 C 
ATOM      5  C   UNL     1      46.217  14.819  17.923  0.00  0.00    +0.015 C 
ATOM      6  C   UNL     1      46.029  14.764  19.452  0.00  0.00    -0.054 C 
ATOM      7  C   UNL     1      45.374  13.424  19.820  0.00  0.00    +0.014 C 
ATOM      8  C   UNL     1      45.139  15.878  19.943  0.00  0.00    +0.011 C 
ATOM      9  C   UNL     1      45.825  17.234  19.795  0.00  0.00    +0.019 C 
ATOM     10  C   UNL     1      47.100  17.240  20.647  0.00  0.00    -0.034 C 
ATOM     11  C   UNL     1      46.727  16.990  22.110  0.00  0.00    +0.018 C 
ATOM     12  C   UNL     1      47.750  18.636  20.539  0.00  0.00    -0.026 C 
ATOM     13  C   UNL     1      46.788  19.584  21.286  0.00  0.00    +0.018 C 
ATOM     14  C   UNL     1      47.772  19.039  19.068  0.00  0.00    +0.019 C 
ATOM     15  C   UNL     1      48.479  20.362  18.847  0.00  0.00    +0.022 C 
ATOM     16  C   UNL     1      49.882  20.413  19.436  0.00  0.00    +0.004 C 
ATOM     17  C   UNL     1      49.912  19.970  20.880  0.00  0.00    -0.073 C 
ATOM     18  C   UNL     1      49.382  21.124  21.767  0.00  0.00    +0.045 C 
ATOM     19  C   UNL     1      51.338  19.745  21.356  0.00  0.00    +0.392 C 
ATOM     20  C   UNL     1      52.333  19.202  20.439  0.00  0.00    -0.097 C 
ATOM     21  C   UNL     1      52.129  19.250  19.135  0.00  0.00    +0.062 C 
ATOM     22  O   UNL     1      51.639  20.021  22.505  0.00  0.00    -0.458 OA
ATOM     23  C   UNL     1      50.938  19.893  18.494  0.00  0.00    -0.032 C 
ATOM     24  C   UNL     1      51.483  21.109  17.700  0.00  0.00    +0.034 C 
ATOM     25  C   UNL     1      50.385  18.916  17.451  0.00  0.00    +0.043 C 
ATOM     26  C   UNL     1      49.123  18.692  21.167  0.00  0.00    +0.024 C 
ATOM     27  C   UNL     1      50.017  17.508  20.797  0.00  0.00    +0.006 C 
ATOM     28  C   UNL     1      49.292  16.183  21.027  0.00  0.00    +0.005 C 
ATOM     29  C   UNL     1      48.054  16.172  20.125  0.00  0.00    +0.015 C 
ATOM     30  C   UNL     1      47.460  14.782  20.019  0.00  0.00    +0.014 C 
ENDROOT
BRANCH   3   2
ATOM      1  C   UNL     1      50.654  13.315  19.016  0.00  0.00    +0.009 C 
ATOM      2  C   UNL     1      49.632  14.395  18.653  0.00  0.00    -0.015 C 
ATOM     31  C   UNL     1      49.710  14.686  17.153  0.00  0.00    +0.019 C 
ENDBRANCH   3   2
TORSDOF 1
ENDMDL
