MODEL 1
REMARK VINA RESULT:      -7.5      0.000      0.000
REMARK  Name = ZINC95485934
REMARK  13 active torsions:
REMARK  status: ('A' for Active; 'I' for Inactive)
REMARK    1  A    between atoms: C1_1  and  C2_2
REMARK    2  A    between atoms: C2_2  and  C4_4
REMARK    3  A    between atoms: C7_8  and  C40_47
REMARK    4  A    between atoms: C9_11  and  C39_46
REMARK    5  A    between atoms: C13_16  and  C38_45
REMARK    6  A    between atoms: C16_19  and  C29_34
REMARK    7  A    between atoms: C17_21  and  C27_32
REMARK    8  A    between atoms: C17_21  and  C28_33
REMARK    9  A    between atoms: C21_26  and  C26_31
REMARK   10  A    between atoms: C22_27  and  C25_30
REMARK   11  A    between atoms: C29_34  and  C30_36
REMARK   12  A    between atoms: C31_37  and  C32_38
REMARK   13  A    between atoms: C35_41  and  O2_44
REMARK                            x       y       z     vdW  Elec       q    Type
REMARK                         _______ _______ _______ _____ _____    ______ ____
ROOT
ATOM      3  C   UNL     1      48.932  14.001  20.811  0.00  0.00    +0.005 C 
ATOM      4  C   UNL     1      48.589  14.761  22.056  0.00  0.00    -0.006 C 
ATOM      5  C   UNL     1      47.078  14.443  22.298  0.00  0.00    +0.008 C 
ATOM      6  C   UNL     1      46.499  14.250  20.875  0.00  0.00    -0.117 C 
ATOM     10  C   UNL     1      46.075  15.637  20.418  0.00  0.00    +0.032 C 
ATOM     11  C   UNL     1      45.904  15.638  18.968  0.00  0.00    -0.020 C 
ATOM     12  C   UNL     1      47.099  15.133  18.114  0.00  0.00    -0.026 C 
ATOM     13  C   UNL     1      46.545  15.005  16.661  0.00  0.00    +0.001 C 
ATOM     14  C   UNL     1      48.202  16.270  18.034  0.00  0.00    -0.008 C 
ATOM     15  C   UNL     1      47.530  17.382  17.150  0.00  0.00    +0.001 C 
ATOM     16  C   UNL     1      48.419  16.796  19.399  0.00  0.00    +0.031 C 
ATOM     17  C   UNL     1      49.606  17.670  19.560  0.00  0.00    -0.005 C 
ATOM     18  C   UNL     1      50.924  17.027  18.978  0.00  0.00    +0.027 C 
ATOM     19  C   UNL     1      52.073  17.925  19.138  0.00  0.00    -0.024 C 
ATOM     20  C   UNL     1      53.437  17.116  19.181  0.00  0.00    +0.019 C 
ATOM     21  C   UNL     1      52.007  18.557  20.550  0.00  0.00    +0.008 C 
ATOM     22  C   UNL     1      52.266  19.102  18.144  0.00  0.00    -0.031 C 
ATOM     35  C   UNL     1      51.659  18.849  16.761  0.00  0.00    +0.014 C 
ATOM     36  C   UNL     1      50.381  18.143  16.781  0.00  0.00    +0.035 C 
ATOM     37  C   UNL     1      50.603  16.781  17.488  0.00  0.00    -0.051 C 
ATOM     38  C   UNL     1      51.837  16.093  16.735  0.00  0.00    -0.000 C 
ATOM     39  C   UNL     1      49.398  15.795  17.291  0.00  0.00    +0.037 C 
ATOM     40  C   UNL     1      49.894  14.454  17.838  0.00  0.00    -0.014 C 
ATOM     41  C   UNL     1      48.811  13.358  17.894  0.00  0.00    +0.001 C 
ATOM     42  C   UNL     1      47.512  13.781  18.629  0.00  0.00    -0.015 C 
ATOM     43  C   UNL     1      46.485  12.774  18.072  0.00  0.00    +0.015 C 
ATOM     44  C   UNL     1      47.560  13.591  20.097  0.00  0.00    +0.057 C 
ENDROOT
BRANCH   3   2
ATOM      1  C   UNL     1      49.036  11.434  21.225  0.00  0.00    +0.065 C 
ATOM      2  C   UNL     1      49.728  12.767  21.110  0.00  0.00    -0.083 C 
ATOM     45  C   UNL     1      51.025  12.849  21.273  0.00  0.00    -0.046 C 
ENDBRANCH   3   2
BRANCH   6   7
ATOM      7  C   UNL     1      45.232  13.354  21.026  0.00  0.00    +0.507 C 
ATOM      8  O   UNL     1      44.945  12.883  22.114  0.00  0.00    -0.686 OA
ATOM      9  O   UNL     1      44.528  13.123  20.058  0.00  0.00    -0.698 OA
ENDBRANCH   6   7
BRANCH  22  23
ATOM     23  C   UNL     1      51.701  20.319  18.759  0.00  0.00    +0.402 C 
ATOM     34  O   UNL     1      52.436  21.135  19.278  0.00  0.00    -0.455 OA
BRANCH  23  24
ATOM     24  C   UNL     1      50.309  20.534  18.744  0.00  0.00    -0.108 C 
ATOM     25  C   UNL     1      49.655  20.813  19.897  0.00  0.00    +0.123 C 
BRANCH  25  26
ATOM     26  C   UNL     1      48.204  21.037  19.881  0.00  0.00    -0.088 A 
ATOM     27  C   UNL     1      47.444  20.646  18.770  0.00  0.00    +0.052 A 
ATOM     28  C   UNL     1      46.085  20.859  18.761  0.00  0.00    -0.016 A 
ATOM     29  C   UNL     1      45.464  21.459  19.851  0.00  0.00    +0.117 A 
ATOM     32  C   UNL     1      46.213  21.849  20.956  0.00  0.00    -0.016 A 
ATOM     33  C   UNL     1      47.573  21.636  20.979  0.00  0.00    +0.058 A 
BRANCH  29  30
ATOM     30  O   UNL     1      44.123  21.666  19.836  0.00  0.00    -0.499 OA
ATOM     31  H   UNL     1      43.668  21.245  19.095  0.00  0.00    +0.393 HD
ENDBRANCH  29  30
ENDBRANCH  25  26
ENDBRANCH  23  24
ENDBRANCH  22  23
TORSDOF 6
ENDMDL
MODEL 2
REMARK VINA RESULT:      -7.4      2.215      5.580
REMARK  Name = ZINC95485934
REMARK  13 active torsions:
REMARK  status: ('A' for Active; 'I' for Inactive)
REMARK    1  A    between atoms: C1_1  and  C2_2
REMARK    2  A    between atoms: C2_2  and  C4_4
REMARK    3  A    between atoms: C7_8  and  C40_47
REMARK    4  A    between atoms: C9_11  and  C39_46
REMARK    5  A    between atoms: C13_16  and  C38_45
REMARK    6  A    between atoms: C16_19  and  C29_34
REMARK    7  A    between atoms: C17_21  and  C27_32
REMARK    8  A    between atoms: C17_21  and  C28_33
REMARK    9  A    between atoms: C21_26  and  C26_31
REMARK   10  A    between atoms: C22_27  and  C25_30
REMARK   11  A    between atoms: C29_34  and  C30_36
REMARK   12  A    between atoms: C31_37  and  C32_38
REMARK   13  A    between atoms: C35_41  and  O2_44
REMARK                            x       y       z     vdW  Elec       q    Type
REMARK                         _______ _______ _______ _____ _____    ______ ____
ROOT
ATOM      3  C   UNL     1      47.019  13.786  17.909  0.00  0.00    +0.005 C 
ATOM      4  C   UNL     1      47.081  14.452  16.568  0.00  0.00    -0.006 C 
ATOM      5  C   UNL     1      48.377  13.874  15.911  0.00  0.00    +0.008 C 
ATOM      6  C   UNL     1      49.323  13.611  17.108  0.00  0.00    -0.117 C 
ATOM     10  C   UNL     1      50.080  14.914  17.319  0.00  0.00    +0.032 C 
ATOM     11  C   UNL     1      50.683  14.913  18.649  0.00  0.00    -0.020 C 
ATOM     12  C   UNL     1      49.740  14.638  19.853  0.00  0.00    -0.026 C 
ATOM     13  C   UNL     1      50.683  14.444  21.081  0.00  0.00    +0.001 C 
ATOM     14  C   UNL     1      48.908  15.948  20.176  0.00  0.00    -0.008 C 
ATOM     15  C   UNL     1      49.984  16.945  20.740  0.00  0.00    +0.001 C 
ATOM     16  C   UNL     1      48.372  16.478  18.904  0.00  0.00    +0.031 C 
ATOM     17  C   UNL     1      47.346  17.540  19.042  0.00  0.00    -0.005 C 
ATOM     18  C   UNL     1      46.183  17.144  20.032  0.00  0.00    +0.027 C 
ATOM     19  C   UNL     1      45.198  18.223  20.158  0.00  0.00    -0.024 C 
ATOM     20  C   UNL     1      43.776  17.660  20.578  0.00  0.00    +0.019 C 
ATOM     21  C   UNL     1      44.929  18.807  18.749  0.00  0.00    +0.008 C 
ATOM     22  C   UNL     1      45.505  19.435  21.078  0.00  0.00    -0.031 C 
ATOM     35  C   UNL     1      46.456  19.108  22.234  0.00  0.00    +0.014 C 
ATOM     36  C   UNL     1      47.539  18.193  21.884  0.00  0.00    +0.035 C 
ATOM     37  C   UNL     1      46.900  16.876  21.374  0.00  0.00    -0.051 C 
ATOM     38  C   UNL     1      45.862  16.425  22.505  0.00  0.00    -0.000 C 
ATOM     39  C   UNL     1      47.936  15.701  21.273  0.00  0.00    +0.037 C 
ATOM     40  C   UNL     1      47.092  14.455  20.993  0.00  0.00    -0.014 C 
ATOM     41  C   UNL     1      47.919  13.188  20.696  0.00  0.00    +0.001 C 
ATOM     42  C   UNL     1      48.982  13.368  19.580  0.00  0.00    -0.015 C 
ATOM     43  C   UNL     1      49.957  12.209  19.877  0.00  0.00    +0.015 C 
ATOM     44  C   UNL     1      48.459  13.160  18.210  0.00  0.00    +0.057 C 
ENDROOT
BRANCH   3   2
ATOM      1  C   UNL     1      46.236  11.397  17.237  0.00  0.00    +0.065 C 
ATOM      2  C   UNL     1      45.985  12.702  17.947  0.00  0.00    -0.083 C 
ATOM     45  C   UNL     1      44.863  12.889  18.597  0.00  0.00    -0.046 C 
ENDBRANCH   3   2
BRANCH   6   7
ATOM      7  C   UNL     1      50.326  12.508  16.651  0.00  0.00    +0.507 C 
ATOM      8  O   UNL     1      49.952  11.352  16.543  0.00  0.00    -0.686 OA
ATOM      9  O   UNL     1      51.483  12.800  16.402  0.00  0.00    -0.698 OA
ENDBRANCH   6   7
BRANCH  22  23
ATOM     23  C   UNL     1      46.041  20.525  20.240  0.00  0.00    +0.402 C 
ATOM     34  O   UNL     1      45.291  21.185  19.550  0.00  0.00    -0.455 OA
BRANCH  23  24
ATOM     24  C   UNL     1      47.423  20.798  20.239  0.00  0.00    -0.108 C 
ATOM     25  C   UNL     1      48.174  20.488  19.155  0.00  0.00    +0.123 C 
BRANCH  25  26
ATOM     26  C   UNL     1      49.614  20.772  19.155  0.00  0.00    -0.088 A 
ATOM     27  C   UNL     1      50.306  20.898  20.367  0.00  0.00    +0.052 A 
ATOM     28  C   UNL     1      51.656  21.165  20.361  0.00  0.00    -0.016 A 
ATOM     29  C   UNL     1      52.334  21.310  19.155  0.00  0.00    +0.117 A 
ATOM     32  C   UNL     1      51.652  21.186  17.950  0.00  0.00    -0.016 A 
ATOM     33  C   UNL     1      50.303  20.913  17.944  0.00  0.00    +0.058 A 
BRANCH  29  30
ATOM     30  O   UNL     1      53.665  21.573  19.155  0.00  0.00    -0.499 OA
ATOM     31  H   UNL     1      54.184  20.978  18.598  0.00  0.00    +0.393 HD
ENDBRANCH  29  30
ENDBRANCH  25  26
ENDBRANCH  23  24
ENDBRANCH  22  23
TORSDOF 6
ENDMDL
MODEL 3
REMARK VINA RESULT:      -7.4      2.554      7.288
REMARK  Name = ZINC95485934
REMARK  13 active torsions:
REMARK  status: ('A' for Active; 'I' for Inactive)
REMARK    1  A    between atoms: C1_1  and  C2_2
REMARK    2  A    between atoms: C2_2  and  C4_4
REMARK    3  A    between atoms: C7_8  and  C40_47
REMARK    4  A    between atoms: C9_11  and  C39_46
REMARK    5  A    between atoms: C13_16  and  C38_45
REMARK    6  A    between atoms: C16_19  and  C29_34
REMARK    7  A    between atoms: C17_21  and  C27_32
REMARK    8  A    between atoms: C17_21  and  C28_33
REMARK    9  A    between atoms: C21_26  and  C26_31
REMARK   10  A    between atoms: C22_27  and  C25_30
REMARK   11  A    between atoms: C29_34  and  C30_36
REMARK   12  A    between atoms: C31_37  and  C32_38
REMARK   13  A    between atoms: C35_41  and  O2_44
REMARK                            x       y       z     vdW  Elec       q    Type
REMARK                         _______ _______ _______ _____ _____    ______ ____
ROOT
ATOM      3  C   UNL     1      47.541  19.948  20.142  0.00  0.00    +0.005 C 
ATOM      4  C   UNL     1      47.492  20.407  18.715  0.00  0.00    -0.006 C 
ATOM      5  C   UNL     1      46.106  21.119  18.588  0.00  0.00    +0.008 C 
ATOM      6  C   UNL     1      45.196  20.356  19.580  0.00  0.00    -0.117 C 
ATOM     10  C   UNL     1      44.610  19.199  18.784  0.00  0.00    +0.032 C 
ATOM     11  C   UNL     1      44.078  18.199  19.706  0.00  0.00    -0.020 C 
ATOM     12  C   UNL     1      45.039  17.665  20.803  0.00  0.00    -0.026 C 
ATOM     13  C   UNL     1      44.142  16.831  21.770  0.00  0.00    +0.001 C 
ATOM     14  C   UNL     1      46.035  16.613  20.159  0.00  0.00    -0.008 C 
ATOM     15  C   UNL     1      45.115  15.388  19.813  0.00  0.00    +0.001 C 
ATOM     16  C   UNL     1      46.568  17.192  18.906  0.00  0.00    +0.031 C 
ATOM     17  C   UNL     1      47.718  16.469  18.313  0.00  0.00    -0.005 C 
ATOM     18  C   UNL     1      48.873  16.195  19.352  0.00  0.00    +0.027 C 
ATOM     19  C   UNL     1      49.985  15.463  18.737  0.00  0.00    -0.024 C 
ATOM     20  C   UNL     1      51.349  15.737  19.499  0.00  0.00    +0.019 C 
ATOM     21  C   UNL     1      50.251  16.067  17.335  0.00  0.00    +0.008 C 
ATOM     22  C   UNL     1      49.869  13.928  18.533  0.00  0.00    -0.031 C 
ATOM     35  C   UNL     1      48.944  13.239  19.540  0.00  0.00    +0.014 C 
ATOM     36  C   UNL     1      47.744  14.000  19.878  0.00  0.00    +0.035 C 
ATOM     37  C   UNL     1      48.196  15.362  20.463  0.00  0.00    -0.051 C 
ATOM     38  C   UNL     1      49.228  15.014  21.636  0.00  0.00    -0.000 C 
ATOM     39  C   UNL     1      47.024  16.138  21.162  0.00  0.00    +0.037 C 
ATOM     40  C   UNL     1      47.699  17.313  21.873  0.00  0.00    -0.014 C 
ATOM     41  C   UNL     1      46.714  18.317  22.505  0.00  0.00    +0.001 C 
ATOM     42  C   UNL     1      45.627  18.842  21.532  0.00  0.00    -0.015 C 
ATOM     43  C   UNL     1      44.536  19.337  22.505  0.00  0.00    +0.015 C 
ATOM     44  C   UNL     1      46.053  20.008  20.724  0.00  0.00    +0.057 C 
ENDROOT
BRANCH   3   2
ATOM      1  C   UNL     1      47.847  21.823  21.921  0.00  0.00    +0.065 C 
ATOM      2  C   UNL     1      48.439  20.810  20.975  0.00  0.00    -0.083 C 
ATOM     45  C   UNL     1      49.739  20.683  20.882  0.00  0.00    -0.046 C 
ENDBRANCH   3   2
BRANCH   6   7
ATOM      7  C   UNL     1      44.048  21.334  19.975  0.00  0.00    +0.507 C 
ATOM      8  O   UNL     1      42.963  21.256  19.422  0.00  0.00    -0.686 OA
ATOM      9  O   UNL     1      44.233  22.177  20.837  0.00  0.00    -0.698 OA
ENDBRANCH   6   7
BRANCH  22  23
ATOM     23  C   UNL     1      49.427  13.681  17.147  0.00  0.00    +0.402 C 
ATOM     34  O   UNL     1      50.214  13.787  16.229  0.00  0.00    -0.455 OA
BRANCH  23  24
ATOM     24  C   UNL     1      48.089  13.322  16.889  0.00  0.00    -0.108 C 
ATOM     25  C   UNL     1      47.781  12.043  16.565  0.00  0.00    +0.123 C 
BRANCH  25  26
ATOM     26  C   UNL     1      46.387  11.670  16.296  0.00  0.00    -0.088 A 
ATOM     27  C   UNL     1      46.097  10.622  15.412  0.00  0.00    +0.052 A 
ATOM     28  C   UNL     1      44.789  10.277  15.163  0.00  0.00    -0.016 A 
ATOM     29  C   UNL     1      43.754  10.965  15.787  0.00  0.00    +0.117 A 
ATOM     32  C   UNL     1      44.035  12.006  16.666  0.00  0.00    -0.016 A 
ATOM     33  C   UNL     1      45.341  12.356  16.927  0.00  0.00    +0.058 A 
BRANCH  29  30
ATOM     30  O   UNL     1      42.465  10.620  15.539  0.00  0.00    -0.499 OA
ATOM     31  H   UNL     1      42.356  10.026  14.784  0.00  0.00    +0.393 HD
ENDBRANCH  29  30
ENDBRANCH  25  26
ENDBRANCH  23  24
ENDBRANCH  22  23
TORSDOF 6
ENDMDL
MODEL 4
REMARK VINA RESULT:      -7.0      2.522      5.684
REMARK  Name = ZINC95485934
REMARK  13 active torsions:
REMARK  status: ('A' for Active; 'I' for Inactive)
REMARK    1  A    between atoms: C1_1  and  C2_2
REMARK    2  A    between atoms: C2_2  and  C4_4
REMARK    3  A    between atoms: C7_8  and  C40_47
REMARK    4  A    between atoms: C9_11  and  C39_46
REMARK    5  A    between atoms: C13_16  and  C38_45
REMARK    6  A    between atoms: C16_19  and  C29_34
REMARK    7  A    between atoms: C17_21  and  C27_32
REMARK    8  A    between atoms: C17_21  and  C28_33
REMARK    9  A    between atoms: C21_26  and  C26_31
REMARK   10  A    between atoms: C22_27  and  C25_30
REMARK   11  A    between atoms: C29_34  and  C30_36
REMARK   12  A    between atoms: C31_37  and  C32_38
REMARK   13  A    between atoms: C35_41  and  O2_44
REMARK                            x       y       z     vdW  Elec       q    Type
REMARK                         _______ _______ _______ _____ _____    ______ ____
ROOT
ATOM      3  C   UNL     1      47.293  12.912  17.189  0.00  0.00    +0.005 C 
ATOM      4  C   UNL     1      47.156  13.780  15.974  0.00  0.00    -0.006 C 
ATOM      5  C   UNL     1      48.323  13.321  15.040  0.00  0.00    +0.008 C 
ATOM      6  C   UNL     1      49.440  12.882  16.017  0.00  0.00    -0.117 C 
ATOM     10  C   UNL     1      50.244  14.141  16.307  0.00  0.00    +0.032 C 
ATOM     11  C   UNL     1      51.046  13.937  17.509  0.00  0.00    -0.020 C 
ATOM     12  C   UNL     1      50.299  13.470  18.788  0.00  0.00    -0.026 C 
ATOM     13  C   UNL     1      51.419  13.094  19.808  0.00  0.00    +0.001 C 
ATOM     14  C   UNL     1      49.552  14.708  19.438  0.00  0.00    -0.008 C 
ATOM     15  C   UNL     1      50.720  15.613  19.973  0.00  0.00    +0.001 C 
ATOM     16  C   UNL     1      48.832  15.426  18.364  0.00  0.00    +0.031 C 
ATOM     17  C   UNL     1      47.859  16.446  18.825  0.00  0.00    -0.005 C 
ATOM     18  C   UNL     1      46.859  15.892  19.912  0.00  0.00    +0.027 C 
ATOM     19  C   UNL     1      45.924  16.930  20.358  0.00  0.00    -0.024 C 
ATOM     20  C   UNL     1      44.576  16.298  20.904  0.00  0.00    +0.019 C 
ATOM     21  C   UNL     1      45.448  17.726  19.116  0.00  0.00    +0.008 C 
ATOM     22  C   UNL     1      46.393  17.986  21.395  0.00  0.00    -0.031 C 
ATOM     35  C   UNL     1      47.507  17.490  22.321  0.00  0.00    +0.014 C 
ATOM     36  C   UNL     1      48.506  16.648  21.668  0.00  0.00    +0.035 C 
ATOM     37  C   UNL     1      47.772  15.423  21.066  0.00  0.00    -0.051 C 
ATOM     38  C   UNL     1      46.916  14.793  22.263  0.00  0.00    -0.000 C 
ATOM     39  C   UNL     1      48.759  14.286  20.622  0.00  0.00    +0.037 C 
ATOM     40  C   UNL     1      47.860  13.093  20.289  0.00  0.00    -0.014 C 
ATOM     41  C   UNL     1      48.607  11.894  19.672  0.00  0.00    +0.001 C 
ATOM     42  C   UNL     1      49.486  12.253  18.444  0.00  0.00    -0.015 C 
ATOM     43  C   UNL     1      50.475  11.069  18.400  0.00  0.00    +0.015 C 
ATOM     44  C   UNL     1      48.752  12.258  17.158  0.00  0.00    +0.057 C 
ENDROOT
BRANCH   3   2
ATOM      1  C   UNL     1      46.638  10.415  16.860  0.00  0.00    +0.065 C 
ATOM      2  C   UNL     1      46.259  11.829  17.220  0.00  0.00    -0.083 C 
ATOM     45  C   UNL     1      45.026  12.110  17.560  0.00  0.00    -0.046 C 
ENDBRANCH   3   2
BRANCH   6   7
ATOM      7  C   UNL     1      50.339  11.871  15.243  0.00  0.00    +0.507 C 
ATOM      8  O   UNL     1      49.938  10.739  15.028  0.00  0.00    -0.686 OA
ATOM      9  O   UNL     1      51.443  12.211  14.852  0.00  0.00    -0.698 OA
ENDBRANCH   6   7
BRANCH  22  23
ATOM     23  C   UNL     1      46.810  19.197  20.662  0.00  0.00    +0.402 C 
ATOM     34  O   UNL     1      46.287  20.266  20.907  0.00  0.00    -0.455 OA
BRANCH  23  24
ATOM     24  C   UNL     1      47.813  19.114  19.678  0.00  0.00    -0.108 C 
ATOM     25  C   UNL     1      48.776  20.064  19.610  0.00  0.00    +0.123 C 
BRANCH  25  26
ATOM     26  C   UNL     1      49.822  19.977  18.583  0.00  0.00    -0.088 A 
ATOM     27  C   UNL     1      50.202  18.729  18.070  0.00  0.00    +0.052 A 
ATOM     28  C   UNL     1      51.182  18.654  17.108  0.00  0.00    -0.016 A 
ATOM     29  C   UNL     1      51.798  19.812  16.645  0.00  0.00    +0.117 A 
ATOM     32  C   UNL     1      51.425  21.053  17.151  0.00  0.00    -0.016 A 
ATOM     33  C   UNL     1      50.441  21.141  18.109  0.00  0.00    +0.058 A 
BRANCH  29  30
ATOM     30  O   UNL     1      52.764  19.731  15.696  0.00  0.00    -0.499 OA
ATOM     31  H   UNL     1      53.252  20.554  15.559  0.00  0.00    +0.393 HD
ENDBRANCH  29  30
ENDBRANCH  25  26
ENDBRANCH  23  24
ENDBRANCH  22  23
TORSDOF 6
ENDMDL
MODEL 5
REMARK VINA RESULT:      -7.0      1.429      2.124
REMARK  Name = ZINC95485934
REMARK  13 active torsions:
REMARK  status: ('A' for Active; 'I' for Inactive)
REMARK    1  A    between atoms: C1_1  and  C2_2
REMARK    2  A    between atoms: C2_2  and  C4_4
REMARK    3  A    between atoms: C7_8  and  C40_47
REMARK    4  A    between atoms: C9_11  and  C39_46
REMARK    5  A    between atoms: C13_16  and  C38_45
REMARK    6  A    between atoms: C16_19  and  C29_34
REMARK    7  A    between atoms: C17_21  and  C27_32
REMARK    8  A    between atoms: C17_21  and  C28_33
REMARK    9  A    between atoms: C21_26  and  C26_31
REMARK   10  A    between atoms: C22_27  and  C25_30
REMARK   11  A    between atoms: C29_34  and  C30_36
REMARK   12  A    between atoms: C31_37  and  C32_38
REMARK   13  A    between atoms: C35_41  and  O2_44
REMARK                            x       y       z     vdW  Elec       q    Type
REMARK                         _______ _______ _______ _____ _____    ______ ____
ROOT
ATOM      3  C   UNL     1      49.027  14.082  19.690  0.00  0.00    +0.005 C 
ATOM      4  C   UNL     1      48.428  14.075  21.064  0.00  0.00    -0.006 C 
ATOM      5  C   UNL     1      47.001  13.470  20.858  0.00  0.00    +0.008 C 
ATOM      6  C   UNL     1      46.599  13.923  19.434  0.00  0.00    -0.117 C 
ATOM     10  C   UNL     1      45.936  15.280  19.612  0.00  0.00    +0.032 C 
ATOM     11  C   UNL     1      45.893  15.971  18.327  0.00  0.00    -0.020 C 
ATOM     12  C   UNL     1      47.236  16.125  17.561  0.00  0.00    -0.026 C 
ATOM     13  C   UNL     1      46.847  16.653  16.145  0.00  0.00    +0.001 C 
ATOM     14  C   UNL     1      48.080  17.296  18.218  0.00  0.00    -0.008 C 
ATOM     15  C   UNL     1      47.269  18.592  17.854  0.00  0.00    +0.001 C 
ATOM     16  C   UNL     1      48.065  17.106  19.685  0.00  0.00    +0.031 C 
ATOM     17  C   UNL     1      49.026  17.945  20.441  0.00  0.00    -0.005 C 
ATOM     18  C   UNL     1      50.494  17.864  19.869  0.00  0.00    +0.027 C 
ATOM     19  C   UNL     1      51.412  18.718  20.629  0.00  0.00    -0.024 C 
ATOM     20  C   UNL     1      52.906  18.194  20.529  0.00  0.00    +0.019 C 
ATOM     21  C   UNL     1      51.096  18.557  22.137  0.00  0.00    +0.008 C 
ATOM     22  C   UNL     1      51.440  20.246  20.354  0.00  0.00    -0.031 C 
ATOM     35  C   UNL     1      51.020  20.625  18.930  0.00  0.00    +0.014 C 
ATOM     36  C   UNL     1      49.919  19.829  18.392  0.00  0.00    +0.035 C 
ATOM     37  C   UNL     1      50.360  18.342  18.407  0.00  0.00    -0.051 C 
ATOM     38  C   UNL     1      51.769  18.295  17.650  0.00  0.00    -0.000 C 
ATOM     39  C   UNL     1      49.408  17.423  17.563  0.00  0.00    +0.037 C 
ATOM     40  C   UNL     1      50.123  16.071  17.497  0.00  0.00    -0.014 C 
ATOM     41  C   UNL     1      49.292  14.950  16.842  0.00  0.00    +0.001 C 
ATOM     42  C   UNL     1      47.876  14.769  17.448  0.00  0.00    -0.015 C 
ATOM     43  C   UNL     1      47.132  14.033  16.313  0.00  0.00    +0.015 C 
ATOM     44  C   UNL     1      47.837  13.889  18.639  0.00  0.00    +0.057 C 
ENDROOT
BRANCH   3   2
ATOM      1  C   UNL     1      51.450  13.182  19.990  0.00  0.00    +0.065 C 
ATOM      2  C   UNL     1      50.034  12.988  19.513  0.00  0.00    -0.083 C 
ATOM     45  C   UNL     1      49.683  11.862  18.943  0.00  0.00    -0.046 C 
ENDBRANCH   3   2
BRANCH   6   7
ATOM      7  C   UNL     1      45.539  12.901  18.923  0.00  0.00    +0.507 C 
ATOM      8  O   UNL     1      45.860  12.039  18.122  0.00  0.00    -0.686 OA
ATOM      9  O   UNL     1      44.389  12.963  19.322  0.00  0.00    -0.698 OA
ENDBRANCH   6   7
BRANCH  22  23
ATOM     23  C   UNL     1      50.583  20.910  21.355  0.00  0.00    +0.402 C 
ATOM     34  O   UNL     1      50.960  21.012  22.505  0.00  0.00    -0.455 OA
BRANCH  23  24
ATOM     24  C   UNL     1      49.327  21.423  20.978  0.00  0.00    -0.108 C 
ATOM     25  C   UNL     1      48.212  21.047  21.649  0.00  0.00    +0.123 C 
BRANCH  25  26
ATOM     26  C   UNL     1      46.903  21.582  21.255  0.00  0.00    -0.088 A 
ATOM     27  C   UNL     1      46.568  22.910  21.554  0.00  0.00    +0.052 A 
ATOM     28  C   UNL     1      45.339  23.406  21.182  0.00  0.00    -0.016 A 
ATOM     29  C   UNL     1      44.431  22.593  20.512  0.00  0.00    +0.117 A 
ATOM     32  C   UNL     1      44.758  21.275  20.214  0.00  0.00    -0.016 A 
ATOM     33  C   UNL     1      45.986  20.770  20.575  0.00  0.00    +0.058 A 
BRANCH  29  30
ATOM     30  O   UNL     1      43.221  23.089  20.148  0.00  0.00    -0.499 OA
ATOM     31  H   UNL     1      42.904  22.766  19.294  0.00  0.00    +0.393 HD
ENDBRANCH  29  30
ENDBRANCH  25  26
ENDBRANCH  23  24
ENDBRANCH  22  23
TORSDOF 6
ENDMDL
MODEL 6
REMARK VINA RESULT:      -6.6      3.425      7.945
REMARK  Name = ZINC95485934
REMARK  13 active torsions:
REMARK  status: ('A' for Active; 'I' for Inactive)
REMARK    1  A    between atoms: C1_1  and  C2_2
REMARK    2  A    between atoms: C2_2  and  C4_4
REMARK    3  A    between atoms: C7_8  and  C40_47
REMARK    4  A    between atoms: C9_11  and  C39_46
REMARK    5  A    between atoms: C13_16  and  C38_45
REMARK    6  A    between atoms: C16_19  and  C29_34
REMARK    7  A    between atoms: C17_21  and  C27_32
REMARK    8  A    between atoms: C17_21  and  C28_33
REMARK    9  A    between atoms: C21_26  and  C26_31
REMARK   10  A    between atoms: C22_27  and  C25_30
REMARK   11  A    between atoms: C29_34  and  C30_36
REMARK   12  A    between atoms: C31_37  and  C32_38
REMARK   13  A    between atoms: C35_41  and  O2_44
REMARK                            x       y       z     vdW  Elec       q    Type
REMARK                         _______ _______ _______ _____ _____    ______ ____
ROOT
ATOM      3  C   UNL     1      47.859  19.842  19.829  0.00  0.00    +0.005 C 
ATOM      4  C   UNL     1      47.703  20.289  18.407  0.00  0.00    -0.006 C 
ATOM      5  C   UNL     1      46.384  21.129  18.411  0.00  0.00    +0.008 C 
ATOM      6  C   UNL     1      45.516  20.465  19.508  0.00  0.00    -0.117 C 
ATOM     10  C   UNL     1      44.744  19.361  18.801  0.00  0.00    +0.032 C 
ATOM     11  C   UNL     1      44.221  18.425  19.791  0.00  0.00    -0.020 C 
ATOM     12  C   UNL     1      45.239  17.813  20.792  0.00  0.00    -0.026 C 
ATOM     13  C   UNL     1      44.375  17.077  21.864  0.00  0.00    +0.001 C 
ATOM     14  C   UNL     1      46.059  16.665  20.068  0.00  0.00    -0.008 C 
ATOM     15  C   UNL     1      44.996  15.529  19.844  0.00  0.00    +0.001 C 
ATOM     16  C   UNL     1      46.507  17.179  18.756  0.00  0.00    +0.031 C 
ATOM     17  C   UNL     1      47.515  16.344  18.059  0.00  0.00    -0.005 C 
ATOM     18  C   UNL     1      48.743  15.971  18.977  0.00  0.00    +0.027 C 
ATOM     19  C   UNL     1      49.710  15.131  18.263  0.00  0.00    -0.024 C 
ATOM     20  C   UNL     1      51.167  15.281  18.873  0.00  0.00    +0.019 C 
ATOM     21  C   UNL     1      49.882  15.694  16.830  0.00  0.00    +0.008 C 
ATOM     22  C   UNL     1      49.430  13.613  18.102  0.00  0.00    -0.031 C 
ATOM     35  C   UNL     1      48.557  13.024  19.213  0.00  0.00    +0.014 C 
ATOM     36  C   UNL     1      47.475  13.898  19.660  0.00  0.00    +0.035 C 
ATOM     37  C   UNL     1      48.113  15.217  20.169  0.00  0.00    -0.051 C 
ATOM     38  C   UNL     1      49.226  14.783  21.234  0.00  0.00    -0.000 C 
ATOM     39  C   UNL     1      47.099  16.107  20.971  0.00  0.00    +0.037 C 
ATOM     40  C   UNL     1      47.953  17.220  21.584  0.00  0.00    -0.014 C 
ATOM     41  C   UNL     1      47.139  18.318  22.297  0.00  0.00    +0.001 C 
ATOM     42  C   UNL     1      46.008  18.936  21.433  0.00  0.00    -0.015 C 
ATOM     43  C   UNL     1      45.078  19.540  22.505  0.00  0.00    +0.015 C 
ATOM     44  C   UNL     1      46.453  20.048  20.562  0.00  0.00    +0.057 C 
ENDROOT
BRANCH   3   2
ATOM      1  C   UNL     1      48.542  21.514  21.702  0.00  0.00    +0.065 C 
ATOM      2  C   UNL     1      48.917  20.622  20.547  0.00  0.00    -0.083 C 
ATOM     45  C   UNL     1      50.168  20.528  20.171  0.00  0.00    -0.046 C 
ENDBRANCH   3   2
BRANCH   6   7
ATOM      7  C   UNL     1      44.513  21.551  20.002  0.00  0.00    +0.507 C 
ATOM      8  O   UNL     1      43.413  21.646  19.483  0.00  0.00    -0.686 OA
ATOM      9  O   UNL     1      44.827  22.306  20.907  0.00  0.00    -0.698 OA
ENDBRANCH   6   7
BRANCH  22  23
ATOM     23  C   UNL     1      48.822  13.395  16.775  0.00  0.00    +0.402 C 
ATOM     34  O   UNL     1      47.615  13.428  16.647  0.00  0.00    -0.455 OA
BRANCH  23  24
ATOM     24  C   UNL     1      49.642  13.149  15.656  0.00  0.00    -0.108 C 
ATOM     25  C   UNL     1      49.110  12.612  14.532  0.00  0.00    +0.123 C 
BRANCH  25  26
ATOM     26  C   UNL     1      49.965  12.354  13.367  0.00  0.00    -0.088 A 
ATOM     27  C   UNL     1      50.761  11.202  13.320  0.00  0.00    +0.052 A 
ATOM     28  C   UNL     1      51.561  10.966  12.225  0.00  0.00    -0.016 A 
ATOM     29  C   UNL     1      51.580  11.868  11.166  0.00  0.00    +0.117 A 
ATOM     32  C   UNL     1      50.791  13.013  11.208  0.00  0.00    -0.016 A 
ATOM     33  C   UNL     1      49.983  13.256  12.295  0.00  0.00    +0.058 A 
BRANCH  29  30
ATOM     30  O   UNL     1      52.370  11.629  10.089  0.00  0.00    -0.499 OA
ATOM     31  H   UNL     1      53.278  11.945  10.189  0.00  0.00    +0.393 HD
ENDBRANCH  29  30
ENDBRANCH  25  26
ENDBRANCH  23  24
ENDBRANCH  22  23
TORSDOF 6
ENDMDL
MODEL 7
REMARK VINA RESULT:      -6.3      3.953      8.030
REMARK  Name = ZINC95485934
REMARK  13 active torsions:
REMARK  status: ('A' for Active; 'I' for Inactive)
REMARK    1  A    between atoms: C1_1  and  C2_2
REMARK    2  A    between atoms: C2_2  and  C4_4
REMARK    3  A    between atoms: C7_8  and  C40_47
REMARK    4  A    between atoms: C9_11  and  C39_46
REMARK    5  A    between atoms: C13_16  and  C38_45
REMARK    6  A    between atoms: C16_19  and  C29_34
REMARK    7  A    between atoms: C17_21  and  C27_32
REMARK    8  A    between atoms: C17_21  and  C28_33
REMARK    9  A    between atoms: C21_26  and  C26_31
REMARK   10  A    between atoms: C22_27  and  C25_30
REMARK   11  A    between atoms: C29_34  and  C30_36
REMARK   12  A    between atoms: C31_37  and  C32_38
REMARK   13  A    between atoms: C35_41  and  O2_44
REMARK                            x       y       z     vdW  Elec       q    Type
REMARK                         _______ _______ _______ _____ _____    ______ ____
ROOT
ATOM      3  C   UNL     1      49.926  18.426  19.970  0.00  0.00    +0.005 C 
ATOM      4  C   UNL     1      50.104  19.177  18.685  0.00  0.00    -0.006 C 
ATOM      5  C   UNL     1      49.122  20.388  18.808  0.00  0.00    +0.008 C 
ATOM      6  C   UNL     1      47.954  19.842  19.666  0.00  0.00    -0.117 C 
ATOM     10  C   UNL     1      46.978  19.224  18.676  0.00  0.00    +0.032 C 
ATOM     11  C   UNL     1      46.066  18.334  19.389  0.00  0.00    -0.020 C 
ATOM     12  C   UNL     1      46.703  17.230  20.277  0.00  0.00    -0.026 C 
ATOM     13  C   UNL     1      45.520  16.623  21.094  0.00  0.00    +0.001 C 
ATOM     14  C   UNL     1      47.214  16.047  19.354  0.00  0.00    -0.008 C 
ATOM     15  C   UNL     1      45.891  15.398  18.809  0.00  0.00    +0.001 C 
ATOM     16  C   UNL     1      47.969  16.637  18.227  0.00  0.00    +0.031 C 
ATOM     17  C   UNL     1      48.751  15.673  17.415  0.00  0.00    -0.005 C 
ATOM     18  C   UNL     1      49.671  14.738  18.292  0.00  0.00    +0.027 C 
ATOM     19  C   UNL     1      50.415  13.787  17.459  0.00  0.00    -0.024 C 
ATOM     20  C   UNL     1      51.753  13.319  18.172  0.00  0.00    +0.019 C 
ATOM     21  C   UNL     1      50.940  14.538  16.210  0.00  0.00    +0.008 C 
ATOM     22  C   UNL     1      49.702  12.513  16.932  0.00  0.00    -0.031 C 
ATOM     35  C   UNL     1      48.551  12.035  17.822  0.00  0.00    +0.014 C 
ATOM     36  C   UNL     1      47.745  13.110  18.396  0.00  0.00    +0.035 C 
ATOM     37  C   UNL     1      48.687  14.011  19.235  0.00  0.00    -0.051 C 
ATOM     38  C   UNL     1      49.460  13.028  20.233  0.00  0.00    -0.000 C 
ATOM     39  C   UNL     1      47.902  15.006  20.161  0.00  0.00    +0.037 C 
ATOM     40  C   UNL     1      48.970  15.625  21.067  0.00  0.00    -0.014 C 
ATOM     41  C   UNL     1      48.450  16.763  21.968  0.00  0.00    +0.001 C 
ATOM     42  C   UNL     1      47.690  17.881  21.206  0.00  0.00    -0.015 C 
ATOM     43  C   UNL     1      46.861  18.531  22.334  0.00  0.00    +0.015 C 
ATOM     44  C   UNL     1      48.569  18.935  20.647  0.00  0.00    +0.057 C 
ENDROOT
BRANCH   3   2
ATOM      1  C   UNL     1      52.335  17.845  20.763  0.00  0.00    +0.065 C 
ATOM      2  C   UNL     1      51.069  18.649  20.911  0.00  0.00    -0.083 C 
ATOM     45  C   UNL     1      50.969  19.543  21.863  0.00  0.00    -0.046 C 
ENDBRANCH   3   2
BRANCH   6   7
ATOM      7  C   UNL     1      47.282  21.076  20.340  0.00  0.00    +0.507 C 
ATOM      8  O   UNL     1      46.216  21.495  19.920  0.00  0.00    -0.686 OA
ATOM      9  O   UNL     1      47.820  21.624  21.288  0.00  0.00    -0.698 OA
ENDBRANCH   6   7
BRANCH  22  23
ATOM     23  C   UNL     1      49.237  12.781  15.558  0.00  0.00    +0.402 C 
ATOM     34  O   UNL     1      48.247  13.460  15.373  0.00  0.00    -0.455 OA
BRANCH  23  24
ATOM     24  C   UNL     1      49.940  12.249  14.459  0.00  0.00    -0.108 C 
ATOM     25  C   UNL     1      49.872  12.859  13.251  0.00  0.00    +0.123 C 
BRANCH  25  26
ATOM     26  C   UNL     1      50.605  12.304  12.107  0.00  0.00    -0.088 A 
ATOM     27  C   UNL     1      50.777  13.068  10.945  0.00  0.00    +0.052 A 
ATOM     28  C   UNL     1      51.464  12.543   9.875  0.00  0.00    -0.016 A 
ATOM     29  C   UNL     1      51.989  11.257   9.945  0.00  0.00    +0.117 A 
ATOM     32  C   UNL     1      51.821  10.494  11.096  0.00  0.00    -0.016 A 
ATOM     33  C   UNL     1      51.140  11.011  12.174  0.00  0.00    +0.058 A 
BRANCH  29  30
ATOM     30  O   UNL     1      52.666  10.744   8.887  0.00  0.00    -0.499 OA
ATOM     31  H   UNL     1      53.199   9.967   9.100  0.00  0.00    +0.393 HD
ENDBRANCH  29  30
ENDBRANCH  25  26
ENDBRANCH  23  24
ENDBRANCH  22  23
TORSDOF 6
ENDMDL
MODEL 8
REMARK VINA RESULT:      -6.3      2.434      3.689
REMARK  Name = ZINC95485934
REMARK  13 active torsions:
REMARK  status: ('A' for Active; 'I' for Inactive)
REMARK    1  A    between atoms: C1_1  and  C2_2
REMARK    2  A    between atoms: C2_2  and  C4_4
REMARK    3  A    between atoms: C7_8  and  C40_47
REMARK    4  A    between atoms: C9_11  and  C39_46
REMARK    5  A    between atoms: C13_16  and  C38_45
REMARK    6  A    between atoms: C16_19  and  C29_34
REMARK    7  A    between atoms: C17_21  and  C27_32
REMARK    8  A    between atoms: C17_21  and  C28_33
REMARK    9  A    between atoms: C21_26  and  C26_31
REMARK   10  A    between atoms: C22_27  and  C25_30
REMARK   11  A    between atoms: C29_34  and  C30_36
REMARK   12  A    between atoms: C31_37  and  C32_38
REMARK   13  A    between atoms: C35_41  and  O2_44
REMARK                            x       y       z     vdW  Elec       q    Type
REMARK                         _______ _______ _______ _____ _____    ______ ____
ROOT
ATOM      3  C   UNL     1      51.813  14.552  19.920  0.00  0.00    +0.005 C 
ATOM      4  C   UNL     1      51.609  14.310  21.385  0.00  0.00    -0.006 C 
ATOM      5  C   UNL     1      50.908  12.914  21.451  0.00  0.00    +0.008 C 
ATOM      6  C   UNL     1      50.072  12.849  20.149  0.00  0.00    -0.117 C 
ATOM     10  C   UNL     1      48.730  13.475  20.498  0.00  0.00    +0.032 C 
ATOM     11  C   UNL     1      48.030  13.835  19.269  0.00  0.00    -0.020 C 
ATOM     12  C   UNL     1      48.794  14.731  18.256  0.00  0.00    -0.026 C 
ATOM     13  C   UNL     1      47.921  14.731  16.962  0.00  0.00    +0.001 C 
ATOM     14  C   UNL     1      48.774  16.232  18.765  0.00  0.00    -0.008 C 
ATOM     15  C   UNL     1      47.269  16.659  18.611  0.00  0.00    +0.001 C 
ATOM     16  C   UNL     1      49.137  16.236  20.199  0.00  0.00    +0.031 C 
ATOM     17  C   UNL     1      49.435  17.570  20.774  0.00  0.00    -0.005 C 
ATOM     18  C   UNL     1      50.478  18.387  19.918  0.00  0.00    +0.027 C 
ATOM     19  C   UNL     1      50.736  19.706  20.504  0.00  0.00    -0.024 C 
ATOM     20  C   UNL     1      52.166  20.253  20.091  0.00  0.00    +0.019 C 
ATOM     21  C   UNL     1      50.864  19.542  22.040  0.00  0.00    +0.008 C 
ATOM     22  C   UNL     1      49.718  20.856  20.275  0.00  0.00    -0.031 C 
ATOM     35  C   UNL     1      48.917  20.723  18.977  0.00  0.00    +0.014 C 
ATOM     36  C   UNL     1      48.525  19.355  18.646  0.00  0.00    +0.035 C 
ATOM     37  C   UNL     1      49.818  18.508  18.526  0.00  0.00    -0.051 C 
ATOM     38  C   UNL     1      50.764  19.294  17.502  0.00  0.00    -0.000 C 
ATOM     39  C   UNL     1      49.564  17.109  17.862  0.00  0.00    +0.037 C 
ATOM     40  C   UNL     1      50.960  16.532  17.614  0.00  0.00    -0.014 C 
ATOM     41  C   UNL     1      50.959  15.077  17.104  0.00  0.00    +0.001 C 
ATOM     42  C   UNL     1      50.130  14.097  17.975  0.00  0.00    -0.015 C 
ATOM     43  C   UNL     1      49.861  12.940  16.990  0.00  0.00    +0.015 C 
ATOM     44  C   UNL     1      50.876  13.530  19.122  0.00  0.00    +0.057 C 
ENDROOT
BRANCH   3   2
ATOM      1  C   UNL     1      54.197  15.509  19.508  0.00  0.00    +0.065 C 
ATOM      2  C   UNL     1      53.239  14.346  19.512  0.00  0.00    -0.083 C 
ATOM     45  C   UNL     1      53.653  13.154  19.159  0.00  0.00    -0.046 C 
ENDBRANCH   3   2
BRANCH   6   7
ATOM      7  C   UNL     1      49.861  11.338  19.830  0.00  0.00    +0.507 C 
ATOM      8  O   UNL     1      48.853  10.769  20.215  0.00  0.00    -0.686 OA
ATOM      9  O   UNL     1      50.702  10.724  19.195  0.00  0.00    -0.698 OA
ENDBRANCH   6   7
BRANCH  22  23
ATOM     23  C   UNL     1      48.824  20.919  21.448  0.00  0.00    +0.402 C 
ATOM     34  O   UNL     1      49.238  21.349  22.505  0.00  0.00    -0.455 OA
BRANCH  23  24
ATOM     24  C   UNL     1      47.490  20.480  21.341  0.00  0.00    -0.108 C 
ATOM     25  C   UNL     1      47.023  19.522  22.178  0.00  0.00    +0.123 C 
BRANCH  25  26
ATOM     26  C   UNL     1      45.633  19.064  22.066  0.00  0.00    -0.088 A 
ATOM     27  C   UNL     1      44.584  19.891  22.490  0.00  0.00    +0.052 A 
ATOM     28  C   UNL     1      43.283  19.456  22.383  0.00  0.00    -0.016 A 
ATOM     29  C   UNL     1      43.007  18.199  21.855  0.00  0.00    +0.117 A 
ATOM     32  C   UNL     1      44.045  17.375  21.432  0.00  0.00    -0.016 A 
ATOM     33  C   UNL     1      45.349  17.802  21.529  0.00  0.00    +0.058 A 
BRANCH  29  30
ATOM     30  O   UNL     1      41.722  17.776  21.751  0.00  0.00    -0.499 OA
ATOM     31  H   UNL     1      41.574  17.136  21.042  0.00  0.00    +0.393 HD
ENDBRANCH  29  30
ENDBRANCH  25  26
ENDBRANCH  23  24
ENDBRANCH  22  23
TORSDOF 6
ENDMDL
MODEL 9
REMARK VINA RESULT:      -6.2      2.429      3.947
REMARK  Name = ZINC95485934
REMARK  13 active torsions:
REMARK  status: ('A' for Active; 'I' for Inactive)
REMARK    1  A    between atoms: C1_1  and  C2_2
REMARK    2  A    between atoms: C2_2  and  C4_4
REMARK    3  A    between atoms: C7_8  and  C40_47
REMARK    4  A    between atoms: C9_11  and  C39_46
REMARK    5  A    between atoms: C13_16  and  C38_45
REMARK    6  A    between atoms: C16_19  and  C29_34
REMARK    7  A    between atoms: C17_21  and  C27_32
REMARK    8  A    between atoms: C17_21  and  C28_33
REMARK    9  A    between atoms: C21_26  and  C26_31
REMARK   10  A    between atoms: C22_27  and  C25_30
REMARK   11  A    between atoms: C29_34  and  C30_36
REMARK   12  A    between atoms: C31_37  and  C32_38
REMARK   13  A    between atoms: C35_41  and  O2_44
REMARK                            x       y       z     vdW  Elec       q    Type
REMARK                         _______ _______ _______ _____ _____    ______ ____
ROOT
ATOM      3  C   UNL     1      49.713  14.229  20.035  0.00  0.00    +0.005 C 
ATOM      4  C   UNL     1      48.928  13.755  21.220  0.00  0.00    -0.006 C 
ATOM      5  C   UNL     1      48.272  12.420  20.738  0.00  0.00    +0.008 C 
ATOM      6  C   UNL     1      48.045  12.636  19.222  0.00  0.00    -0.117 C 
ATOM     10  C   UNL     1      46.674  13.284  19.106  0.00  0.00    +0.032 C 
ATOM     11  C   UNL     1      46.537  13.897  17.788  0.00  0.00    -0.020 C 
ATOM     12  C   UNL     1      47.644  14.898  17.355  0.00  0.00    -0.026 C 
ATOM     13  C   UNL     1      47.378  15.179  15.843  0.00  0.00    +0.001 C 
ATOM     14  C   UNL     1      47.404  16.287  18.079  0.00  0.00    -0.008 C 
ATOM     15  C   UNL     1      46.093  16.838  17.411  0.00  0.00    +0.001 C 
ATOM     16  C   UNL     1      47.147  16.021  19.511  0.00  0.00    +0.031 C 
ATOM     17  C   UNL     1      47.173  17.213  20.392  0.00  0.00    -0.005 C 
ATOM     18  C   UNL     1      48.469  18.091  20.198  0.00  0.00    +0.027 C 
ATOM     19  C   UNL     1      48.453  19.270  21.071  0.00  0.00    -0.024 C 
ATOM     20  C   UNL     1      49.923  19.779  21.381  0.00  0.00    +0.019 C 
ATOM     21  C   UNL     1      47.941  18.837  22.468  0.00  0.00    +0.008 C 
ATOM     22  C   UNL     1      47.611  20.509  20.666  0.00  0.00    -0.031 C 
ATOM     35  C   UNL     1      47.415  20.655  19.154  0.00  0.00    +0.014 C 
ATOM     36  C   UNL     1      47.203  19.394  18.447  0.00  0.00    +0.035 C 
ATOM     37  C   UNL     1      48.438  18.493  18.707  0.00  0.00    -0.051 C 
ATOM     38  C   UNL     1      49.715  19.376  18.318  0.00  0.00    -0.000 C 
ATOM     39  C   UNL     1      48.489  17.249  17.752  0.00  0.00    +0.037 C 
ATOM     40  C   UNL     1      49.868  16.628  17.988  0.00  0.00    -0.014 C 
ATOM     41  C   UNL     1      50.087  15.285  17.263  0.00  0.00    +0.001 C 
ATOM     42  C   UNL     1      48.981  14.230  17.528  0.00  0.00    -0.015 C 
ATOM     43  C   UNL     1      49.149  13.280  16.324  0.00  0.00    +0.015 C 
ATOM     44  C   UNL     1      49.194  13.426  18.753  0.00  0.00    +0.057 C 
ENDROOT
BRANCH   3   2
ATOM      1  C   UNL     1      51.782  12.661  19.853  0.00  0.00    +0.065 C 
ATOM      2  C   UNL     1      51.183  13.997  20.209  0.00  0.00    -0.083 C 
ATOM     45  C   UNL     1      51.947  14.956  20.670  0.00  0.00    -0.046 C 
ENDBRANCH   3   2
BRANCH   6   7
ATOM      7  C   UNL     1      47.995  11.220  18.572  0.00  0.00    +0.507 C 
ATOM      8  O   UNL     1      47.034  10.895  17.894  0.00  0.00    -0.686 OA
ATOM      9  O   UNL     1      48.914  10.437  18.740  0.00  0.00    -0.698 OA
ENDBRANCH   6   7
BRANCH  22  23
ATOM     23  C   UNL     1      46.314  20.433  21.366  0.00  0.00    +0.402 C 
ATOM     34  O   UNL     1      46.257  19.985  22.493  0.00  0.00    -0.455 OA
BRANCH  23  24
ATOM     24  C   UNL     1      45.141  20.878  20.725  0.00  0.00    -0.108 C 
ATOM     25  C   UNL     1      44.096  20.031  20.561  0.00  0.00    +0.123 C 
BRANCH  25  26
ATOM     26  C   UNL     1      42.874  20.495  19.893  0.00  0.00    -0.088 A 
ATOM     27  C   UNL     1      41.767  19.643  19.781  0.00  0.00    +0.052 A 
ATOM     28  C   UNL     1      40.624  20.083  19.154  0.00  0.00    -0.016 A 
ATOM     29  C   UNL     1      40.566  21.370  18.631  0.00  0.00    +0.117 A 
ATOM     32  C   UNL     1      41.661  22.220  18.740  0.00  0.00    -0.016 A 
ATOM     33  C   UNL     1      42.807  21.793  19.370  0.00  0.00    +0.058 A 
BRANCH  29  30
ATOM     30  O   UNL     1      39.436  21.799  18.014  0.00  0.00    -0.499 OA
ATOM     31  H   UNL     1      38.659  21.825  18.588  0.00  0.00    +0.393 HD
ENDBRANCH  29  30
ENDBRANCH  25  26
ENDBRANCH  23  24
ENDBRANCH  22  23
TORSDOF 6
ENDMDL
