MODEL 1
REMARK VINA RESULT:      -7.8      0.000      0.000
REMARK  Name = ZINC95486052
REMARK  9 active torsions:
REMARK  status: ('A' for Active; 'I' for Inactive)
REMARK    1  A    between atoms: C1_1  and  C2_2
REMARK    2  A    between atoms: C2_2  and  C25_31
REMARK    3  A    between atoms: C3_3  and  C4_4
REMARK    4  A    between atoms: C4_4  and  C5_5
REMARK    5  A    between atoms: C7_7  and  C16_17
REMARK    6  A    between atoms: C11_12  and  C14_15
REMARK    7  A    between atoms: C11_12  and  C15_16
REMARK    8  A    between atoms: C20_23  and  O5_30
REMARK    9  A    between atoms: C22_25  and  O4_29
REMARK                            x       y       z     vdW  Elec       q    Type
REMARK                         _______ _______ _______ _____ _____    ______ ____
ROOT
ATOM      6  C   UNL     1      48.053  18.261  18.149  0.00  0.00    -0.103 A 
ATOM      7  C   UNL     1      46.776  18.420  18.644  0.00  0.00    +0.078 A 
ATOM      8  C   UNL     1      46.533  19.339  19.648  0.00  0.00    -0.123 A 
ATOM     24  C   UNL     1      47.569  20.100  20.152  0.00  0.00    +0.056 A 
ATOM     25  C   UNL     1      48.854  19.945  19.658  0.00  0.00    -0.157 A 
ATOM     26  C   UNL     1      49.959  20.797  20.230  0.00  0.00    +0.085 C 
ATOM     27  C   UNL     1      51.317  20.165  19.902  0.00  0.00    +0.016 C 
ATOM     28  C   UNL     1      51.333  19.828  18.405  0.00  0.00    +0.111 C 
ATOM     29  C   UNL     1      52.715  19.303  18.010  0.00  0.00    +0.074 C 
ATOM     30  C   UNL     1      51.004  21.080  17.590  0.00  0.00    +0.029 C 
ATOM     31  O   UNL     1      50.349  18.822  18.160  0.00  0.00    -0.300 OA
ATOM     32  C   UNL     1      49.102  19.018  18.660  0.00  0.00    +0.153 A 
ENDROOT
BRANCH   8   9
ATOM      9  C   UNL     1      45.137  19.513  20.189  0.00  0.00    +0.241 C 
ATOM     10  C   UNL     1      44.577  18.146  20.608  0.00  0.00    +0.037 C 
ATOM     11  C   UNL     1      43.163  18.374  21.113  0.00  0.00    +0.403 C 
ATOM     12  C   UNL     1      42.347  19.337  20.364  0.00  0.00    -0.294 A 
ATOM     13  C   UNL     1      40.965  19.431  20.588  0.00  0.00    +0.222 A 
ATOM     16  C   UNL     1      40.221  20.355  19.876  0.00  0.00    -0.075 A 
ATOM     17  C   UNL     1      40.841  21.182  18.948  0.00  0.00    +0.198 A 
ATOM     20  C   UNL     1      42.208  21.091  18.719  0.00  0.00    -0.053 A 
ATOM     21  C   UNL     1      42.971  20.171  19.417  0.00  0.00    +0.216 A 
ATOM     22  O   UNL     1      42.730  17.791  22.085  0.00  0.00    -0.433 OA
ATOM     23  O   UNL     1      44.300  20.078  19.181  0.00  0.00    -0.297 OA
BRANCH  13  14
ATOM     14  O   UNL     1      40.363  18.620  21.493  0.00  0.00    -0.479 OA
ATOM     15  H   UNL     1      39.497  18.293  21.213  0.00  0.00    +0.403 HD
ENDBRANCH  13  14
BRANCH  17  18
ATOM     18  O   UNL     1      40.105  22.089  18.257  0.00  0.00    -0.490 OA
ATOM     19  H   UNL     1      39.609  22.702  18.818  0.00  0.00    +0.403 HD
ENDBRANCH  17  18
ENDBRANCH   8   9
BRANCH   6   5
ATOM      5  C   UNL     1      48.316  17.257  17.056  0.00  0.00    +0.118 C 
BRANCH   5   4
ATOM      1  C   UNL     1      49.114  14.555  16.929  0.00  0.00    +0.072 C 
ATOM      2  C   UNL     1      47.651  14.909  17.003  0.00  0.00    -0.135 C 
ATOM      3  C   UNL     1      46.609  13.821  16.942  0.00  0.00    +0.071 C 
ATOM      4  C   UNL     1      47.284  16.162  17.120  0.00  0.00    -0.045 C 
ENDBRANCH   5   4
ENDBRANCH   6   5
TORSDOF 5
ENDMDL
MODEL 2
REMARK VINA RESULT:      -7.6      2.421      5.346
REMARK  Name = ZINC95486052
REMARK  9 active torsions:
REMARK  status: ('A' for Active; 'I' for Inactive)
REMARK    1  A    between atoms: C1_1  and  C2_2
REMARK    2  A    between atoms: C2_2  and  C25_31
REMARK    3  A    between atoms: C3_3  and  C4_4
REMARK    4  A    between atoms: C4_4  and  C5_5
REMARK    5  A    between atoms: C7_7  and  C16_17
REMARK    6  A    between atoms: C11_12  and  C14_15
REMARK    7  A    between atoms: C11_12  and  C15_16
REMARK    8  A    between atoms: C20_23  and  O5_30
REMARK    9  A    between atoms: C22_25  and  O4_29
REMARK                            x       y       z     vdW  Elec       q    Type
REMARK                         _______ _______ _______ _____ _____    ______ ____
ROOT
ATOM      6  C   UNL     1      49.188  17.054  17.722  0.00  0.00    -0.103 A 
ATOM      7  C   UNL     1      48.398  17.997  18.348  0.00  0.00    +0.078 A 
ATOM      8  C   UNL     1      47.050  17.755  18.535  0.00  0.00    -0.123 A 
ATOM     24  C   UNL     1      46.495  16.568  18.100  0.00  0.00    +0.056 A 
ATOM     25  C   UNL     1      47.283  15.617  17.472  0.00  0.00    -0.157 A 
ATOM     26  C   UNL     1      46.642  14.331  17.015  0.00  0.00    +0.085 C 
ATOM     27  C   UNL     1      47.538  13.654  15.970  0.00  0.00    +0.016 C 
ATOM     28  C   UNL     1      48.968  13.620  16.525  0.00  0.00    +0.111 C 
ATOM     29  C   UNL     1      49.874  12.846  15.565  0.00  0.00    +0.074 C 
ATOM     30  C   UNL     1      48.974  12.943  17.897  0.00  0.00    +0.029 C 
ATOM     31  O   UNL     1      49.436  14.964  16.648  0.00  0.00    -0.300 OA
ATOM     32  C   UNL     1      48.631  15.861  17.274  0.00  0.00    +0.153 A 
ENDROOT
BRANCH   8   9
ATOM      9  C   UNL     1      46.188  18.785  19.217  0.00  0.00    +0.241 C 
ATOM     10  C   UNL     1      45.133  19.304  18.230  0.00  0.00    +0.037 C 
ATOM     11  C   UNL     1      44.317  20.359  18.957  0.00  0.00    +0.403 C 
ATOM     12  C   UNL     1      45.058  21.274  19.833  0.00  0.00    -0.294 A 
ATOM     13  C   UNL     1      44.446  22.429  20.344  0.00  0.00    +0.222 A 
ATOM     16  C   UNL     1      45.164  23.268  21.177  0.00  0.00    -0.075 A 
ATOM     17  C   UNL     1      46.482  22.966  21.502  0.00  0.00    +0.198 A 
ATOM     20  C   UNL     1      47.093  21.827  20.995  0.00  0.00    -0.053 A 
ATOM     21  C   UNL     1      46.394  20.976  20.158  0.00  0.00    +0.216 A 
ATOM     22  O   UNL     1      43.114  20.442  18.820  0.00  0.00    -0.433 OA
ATOM     23  O   UNL     1      47.000  19.873  19.657  0.00  0.00    -0.297 OA
BRANCH  13  14
ATOM     14  O   UNL     1      43.162  22.721  20.022  0.00  0.00    -0.479 OA
ATOM     15  H   UNL     1      42.523  22.058  20.315  0.00  0.00    +0.403 HD
ENDBRANCH  13  14
BRANCH  17  18
ATOM     18  O   UNL     1      47.177  23.792  22.323  0.00  0.00    -0.490 OA
ATOM     19  H   UNL     1      47.030  23.628  23.265  0.00  0.00    +0.403 HD
ENDBRANCH  17  18
ENDBRANCH   8   9
BRANCH   6   5
ATOM      5  C   UNL     1      50.657  17.320  17.518  0.00  0.00    +0.118 C 
BRANCH   5   4
ATOM      1  C   UNL     1      52.602  19.266  18.136  0.00  0.00    +0.072 C 
ATOM      2  C   UNL     1      51.695  19.454  16.947  0.00  0.00    -0.135 C 
ATOM      3  C   UNL     1      51.783  20.715  16.125  0.00  0.00    +0.071 C 
ATOM      4  C   UNL     1      50.831  18.522  16.627  0.00  0.00    -0.045 C 
ENDBRANCH   5   4
ENDBRANCH   6   5
TORSDOF 5
ENDMDL
MODEL 3
REMARK VINA RESULT:      -7.2      2.094      4.873
REMARK  Name = ZINC95486052
REMARK  9 active torsions:
REMARK  status: ('A' for Active; 'I' for Inactive)
REMARK    1  A    between atoms: C1_1  and  C2_2
REMARK    2  A    between atoms: C2_2  and  C25_31
REMARK    3  A    between atoms: C3_3  and  C4_4
REMARK    4  A    between atoms: C4_4  and  C5_5
REMARK    5  A    between atoms: C7_7  and  C16_17
REMARK    6  A    between atoms: C11_12  and  C14_15
REMARK    7  A    between atoms: C11_12  and  C15_16
REMARK    8  A    between atoms: C20_23  and  O5_30
REMARK    9  A    between atoms: C22_25  and  O4_29
REMARK                            x       y       z     vdW  Elec       q    Type
REMARK                         _______ _______ _______ _____ _____    ______ ____
ROOT
ATOM      6  C   UNL     1      50.144  16.936  17.599  0.00  0.00    -0.103 A 
ATOM      7  C   UNL     1      49.199  17.667  18.289  0.00  0.00    +0.078 A 
ATOM      8  C   UNL     1      47.942  17.136  18.511  0.00  0.00    -0.123 A 
ATOM     24  C   UNL     1      47.634  15.873  18.044  0.00  0.00    +0.056 A 
ATOM     25  C   UNL     1      48.579  15.134  17.352  0.00  0.00    -0.157 A 
ATOM     26  C   UNL     1      48.208  13.757  16.862  0.00  0.00    +0.085 C 
ATOM     27  C   UNL     1      49.184  13.323  15.762  0.00  0.00    +0.016 C 
ATOM     28  C   UNL     1      50.611  13.577  16.267  0.00  0.00    +0.111 C 
ATOM     29  C   UNL     1      51.620  13.048  15.246  0.00  0.00    +0.074 C 
ATOM     30  C   UNL     1      50.816  12.872  17.609  0.00  0.00    +0.029 C 
ATOM     31  O   UNL     1      50.786  14.985  16.431  0.00  0.00    -0.300 OA
ATOM     32  C   UNL     1      49.836  15.668  17.120  0.00  0.00    +0.153 A 
ENDROOT
BRANCH   8   9
ATOM      9  C   UNL     1      46.909  17.934  19.263  0.00  0.00    +0.241 C 
ATOM     10  C   UNL     1      45.585  17.157  19.296  0.00  0.00    +0.037 C 
ATOM     11  C   UNL     1      44.575  18.018  20.034  0.00  0.00    +0.403 C 
ATOM     12  C   UNL     1      44.609  19.458  19.749  0.00  0.00    -0.294 A 
ATOM     13  C   UNL     1      43.568  20.296  20.177  0.00  0.00    +0.222 A 
ATOM     16  C   UNL     1      43.630  21.651  19.906  0.00  0.00    -0.075 A 
ATOM     17  C   UNL     1      44.717  22.174  19.215  0.00  0.00    +0.198 A 
ATOM     20  C   UNL     1      45.747  21.348  18.786  0.00  0.00    -0.053 A 
ATOM     21  C   UNL     1      45.704  19.989  19.043  0.00  0.00    +0.216 A 
ATOM     22  O   UNL     1      43.781  17.541  20.818  0.00  0.00    -0.433 OA
ATOM     23  O   UNL     1      46.706  19.188  18.612  0.00  0.00    -0.297 OA
BRANCH  13  14
ATOM     14  O   UNL     1      42.508  19.782  20.848  0.00  0.00    -0.479 OA
ATOM     15  H   UNL     1      41.761  20.389  20.928  0.00  0.00    +0.403 HD
ENDBRANCH  13  14
BRANCH  17  18
ATOM     18  O   UNL     1      44.772  23.505  18.957  0.00  0.00    -0.490 OA
ATOM     19  H   UNL     1      45.435  23.751  18.298  0.00  0.00    +0.403 HD
ENDBRANCH  17  18
ENDBRANCH   8   9
BRANCH   6   5
ATOM      5  C   UNL     1      51.513  17.517  17.358  0.00  0.00    +0.118 C 
BRANCH   5   4
ATOM      1  C   UNL     1      52.616  19.950  18.264  0.00  0.00    +0.072 C 
ATOM      2  C   UNL     1      51.853  19.902  16.965  0.00  0.00    -0.135 C 
ATOM      3  C   UNL     1      51.621  21.169  16.181  0.00  0.00    +0.071 C 
ATOM      4  C   UNL     1      51.391  18.761  16.517  0.00  0.00    -0.045 C 
ENDBRANCH   5   4
ENDBRANCH   6   5
TORSDOF 5
ENDMDL
MODEL 4
REMARK VINA RESULT:      -7.0      2.297      4.741
REMARK  Name = ZINC95486052
REMARK  9 active torsions:
REMARK  status: ('A' for Active; 'I' for Inactive)
REMARK    1  A    between atoms: C1_1  and  C2_2
REMARK    2  A    between atoms: C2_2  and  C25_31
REMARK    3  A    between atoms: C3_3  and  C4_4
REMARK    4  A    between atoms: C4_4  and  C5_5
REMARK    5  A    between atoms: C7_7  and  C16_17
REMARK    6  A    between atoms: C11_12  and  C14_15
REMARK    7  A    between atoms: C11_12  and  C15_16
REMARK    8  A    between atoms: C20_23  and  O5_30
REMARK    9  A    between atoms: C22_25  and  O4_29
REMARK                            x       y       z     vdW  Elec       q    Type
REMARK                         _______ _______ _______ _____ _____    ______ ____
ROOT
ATOM      6  C   UNL     1      48.059  16.643  17.881  0.00  0.00    -0.103 A 
ATOM      7  C   UNL     1      47.411  17.861  17.916  0.00  0.00    +0.078 A 
ATOM      8  C   UNL     1      46.131  17.947  18.429  0.00  0.00    -0.123 A 
ATOM     24  C   UNL     1      45.501  16.815  18.908  0.00  0.00    +0.056 A 
ATOM     25  C   UNL     1      46.147  15.590  18.877  0.00  0.00    -0.157 A 
ATOM     26  C   UNL     1      45.430  14.378  19.414  0.00  0.00    +0.085 C 
ATOM     27  C   UNL     1      46.097  13.106  18.875  0.00  0.00    +0.016 C 
ATOM     28  C   UNL     1      47.610  13.236  19.093  0.00  0.00    +0.111 C 
ATOM     29  C   UNL     1      48.303  11.938  18.676  0.00  0.00    +0.074 C 
ATOM     30  C   UNL     1      47.896  13.524  20.568  0.00  0.00    +0.029 C 
ATOM     31  O   UNL     1      48.089  14.316  18.289  0.00  0.00    -0.300 OA
ATOM     32  C   UNL     1      47.426  15.499  18.355  0.00  0.00    +0.153 A 
ENDROOT
BRANCH   8   9
ATOM      9  C   UNL     1      45.422  19.277  18.466  0.00  0.00    +0.241 C 
ATOM     10  C   UNL     1      45.807  20.026  19.749  0.00  0.00    +0.037 C 
ATOM     11  C   UNL     1      45.042  21.338  19.751  0.00  0.00    +0.403 C 
ATOM     12  C   UNL     1      43.652  21.288  19.284  0.00  0.00    -0.294 A 
ATOM     13  C   UNL     1      42.790  22.377  19.483  0.00  0.00    +0.222 A 
ATOM     16  C   UNL     1      41.487  22.308  19.023  0.00  0.00    -0.075 A 
ATOM     17  C   UNL     1      41.039  21.165  18.369  0.00  0.00    +0.198 A 
ATOM     20  C   UNL     1      41.887  20.083  18.174  0.00  0.00    -0.053 A 
ATOM     21  C   UNL     1      43.193  20.130  18.629  0.00  0.00    +0.216 A 
ATOM     22  O   UNL     1      45.554  22.375  20.119  0.00  0.00    -0.433 OA
ATOM     23  O   UNL     1      44.010  19.067  18.446  0.00  0.00    -0.297 OA
BRANCH  13  14
ATOM     14  O   UNL     1      43.229  23.488  20.124  0.00  0.00    -0.479 OA
ATOM     15  H   UNL     1      42.526  24.101  20.376  0.00  0.00    +0.403 HD
ENDBRANCH  13  14
BRANCH  17  18
ATOM     18  O   UNL     1      39.762  21.107  17.917  0.00  0.00    -0.490 OA
ATOM     19  H   UNL     1      39.572  20.332  17.370  0.00  0.00    +0.403 HD
ENDBRANCH  17  18
ENDBRANCH   8   9
BRANCH   6   5
ATOM      5  C   UNL     1      49.456  16.551  17.322  0.00  0.00    +0.118 C 
BRANCH   5   4
ATOM      1  C   UNL     1      51.870  17.168  16.001  0.00  0.00    +0.072 C 
ATOM      2  C   UNL     1      51.385  18.034  17.136  0.00  0.00    -0.135 C 
ATOM      3  C   UNL     1      52.225  19.193  17.610  0.00  0.00    +0.071 C 
ATOM      4  C   UNL     1      50.236  17.780  17.710  0.00  0.00    -0.045 C 
ENDBRANCH   5   4
ENDBRANCH   6   5
TORSDOF 5
ENDMDL
MODEL 5
REMARK VINA RESULT:      -6.8      3.395      7.857
REMARK  Name = ZINC95486052
REMARK  9 active torsions:
REMARK  status: ('A' for Active; 'I' for Inactive)
REMARK    1  A    between atoms: C1_1  and  C2_2
REMARK    2  A    between atoms: C2_2  and  C25_31
REMARK    3  A    between atoms: C3_3  and  C4_4
REMARK    4  A    between atoms: C4_4  and  C5_5
REMARK    5  A    between atoms: C7_7  and  C16_17
REMARK    6  A    between atoms: C11_12  and  C14_15
REMARK    7  A    between atoms: C11_12  and  C15_16
REMARK    8  A    between atoms: C20_23  and  O5_30
REMARK    9  A    between atoms: C22_25  and  O4_29
REMARK                            x       y       z     vdW  Elec       q    Type
REMARK                         _______ _______ _______ _____ _____    ______ ____
ROOT
ATOM      6  C   UNL     1      48.502  18.199  18.563  0.00  0.00    -0.103 A 
ATOM      7  C   UNL     1      48.402  17.024  17.847  0.00  0.00    +0.078 A 
ATOM      8  C   UNL     1      47.166  16.436  17.653  0.00  0.00    -0.123 A 
ATOM     24  C   UNL     1      46.032  17.028  18.173  0.00  0.00    +0.056 A 
ATOM     25  C   UNL     1      46.125  18.208  18.891  0.00  0.00    -0.157 A 
ATOM     26  C   UNL     1      44.864  18.826  19.439  0.00  0.00    +0.085 C 
ATOM     27  C   UNL     1      45.220  19.819  20.553  0.00  0.00    +0.016 C 
ATOM     28  C   UNL     1      46.336  20.734  20.032  0.00  0.00    +0.111 C 
ATOM     29  C   UNL     1      46.641  21.816  21.070  0.00  0.00    +0.074 C 
ATOM     30  C   UNL     1      45.897  21.387  18.720  0.00  0.00    +0.029 C 
ATOM     31  O   UNL     1      47.502  19.940  19.809  0.00  0.00    -0.300 OA
ATOM     32  C   UNL     1      47.363  18.793  19.096  0.00  0.00    +0.153 A 
ENDROOT
BRANCH   8   9
ATOM      9  C   UNL     1      47.057  15.152  16.872  0.00  0.00    +0.241 C 
ATOM     10  C   UNL     1      46.315  14.103  17.712  0.00  0.00    +0.037 C 
ATOM     11  C   UNL     1      46.264  12.825  16.894  0.00  0.00    +0.403 C 
ATOM     12  C   UNL     1      47.473  12.481  16.138  0.00  0.00    -0.294 A 
ATOM     13  C   UNL     1      47.620  11.210  15.561  0.00  0.00    +0.222 A 
ATOM     16  C   UNL     1      48.765  10.916  14.843  0.00  0.00    -0.075 A 
ATOM     17  C   UNL     1      49.761  11.875  14.697  0.00  0.00    +0.198 A 
ATOM     20  C   UNL     1      49.623  13.132  15.269  0.00  0.00    -0.053 A 
ATOM     21  C   UNL     1      48.487  13.447  15.994  0.00  0.00    +0.216 A 
ATOM     22  O   UNL     1      45.274  12.124  16.867  0.00  0.00    -0.433 OA
ATOM     23  O   UNL     1      48.364  14.670  16.559  0.00  0.00    -0.297 OA
BRANCH  13  14
ATOM     14  O   UNL     1      46.648  10.277  15.709  0.00  0.00    -0.479 OA
ATOM     15  H   UNL     1      46.715   9.764  16.525  0.00  0.00    +0.403 HD
ENDBRANCH  13  14
BRANCH  17  18
ATOM     18  O   UNL     1      50.879  11.579  13.988  0.00  0.00    -0.490 OA
ATOM     19  H   UNL     1      50.746  10.910  13.303  0.00  0.00    +0.403 HD
ENDBRANCH  17  18
ENDBRANCH   8   9
BRANCH   6   5
ATOM      5  C   UNL     1      49.851  18.838  18.775  0.00  0.00    +0.118 C 
BRANCH   5   4
ATOM      1  C   UNL     1      51.210  21.034  17.643  0.00  0.00    +0.072 C 
ATOM      2  C   UNL     1      51.280  19.680  16.984  0.00  0.00    -0.135 C 
ATOM      3  C   UNL     1      52.023  19.512  15.683  0.00  0.00    +0.071 C 
ATOM      4  C   UNL     1      50.696  18.648  17.542  0.00  0.00    -0.045 C 
ENDBRANCH   5   4
ENDBRANCH   6   5
TORSDOF 5
ENDMDL
MODEL 6
REMARK VINA RESULT:      -6.5      2.919      7.605
REMARK  Name = ZINC95486052
REMARK  9 active torsions:
REMARK  status: ('A' for Active; 'I' for Inactive)
REMARK    1  A    between atoms: C1_1  and  C2_2
REMARK    2  A    between atoms: C2_2  and  C25_31
REMARK    3  A    between atoms: C3_3  and  C4_4
REMARK    4  A    between atoms: C4_4  and  C5_5
REMARK    5  A    between atoms: C7_7  and  C16_17
REMARK    6  A    between atoms: C11_12  and  C14_15
REMARK    7  A    between atoms: C11_12  and  C15_16
REMARK    8  A    between atoms: C20_23  and  O5_30
REMARK    9  A    between atoms: C22_25  and  O4_29
REMARK                            x       y       z     vdW  Elec       q    Type
REMARK                         _______ _______ _______ _____ _____    ______ ____
ROOT
ATOM      6  C   UNL     1      48.371  19.687  19.472  0.00  0.00    -0.103 A 
ATOM      7  C   UNL     1      48.742  18.455  18.975  0.00  0.00    +0.078 A 
ATOM      8  C   UNL     1      47.876  17.381  19.073  0.00  0.00    -0.123 A 
ATOM     24  C   UNL     1      46.640  17.544  19.666  0.00  0.00    +0.056 A 
ATOM     25  C   UNL     1      46.261  18.779  20.166  0.00  0.00    -0.157 A 
ATOM     26  C   UNL     1      44.901  18.919  20.802  0.00  0.00    +0.085 C 
ATOM     27  C   UNL     1      44.870  20.180  21.675  0.00  0.00    +0.016 C 
ATOM     28  C   UNL     1      45.431  21.343  20.847  0.00  0.00    +0.111 C 
ATOM     29  C   UNL     1      45.309  22.646  21.640  0.00  0.00    +0.074 C 
ATOM     30  C   UNL     1      44.654  21.464  19.534  0.00  0.00    +0.029 C 
ATOM     31  O   UNL     1      46.807  21.077  20.570  0.00  0.00    -0.300 OA
ATOM     32  C   UNL     1      47.130  19.853  20.078  0.00  0.00    +0.153 A 
ENDROOT
BRANCH   8   9
ATOM      9  C   UNL     1      48.281  16.035  18.532  0.00  0.00    +0.241 C 
ATOM     10  C   UNL     1      49.415  16.213  17.512  0.00  0.00    +0.037 C 
ATOM     11  C   UNL     1      49.759  14.835  16.976  0.00  0.00    +0.403 C 
ATOM     12  C   UNL     1      48.632  13.932  16.715  0.00  0.00    -0.294 A 
ATOM     13  C   UNL     1      48.818  12.745  15.989  0.00  0.00    +0.222 A 
ATOM     16  C   UNL     1      47.740  11.906  15.767  0.00  0.00    -0.075 A 
ATOM     17  C   UNL     1      46.485  12.240  16.260  0.00  0.00    +0.198 A 
ATOM     20  C   UNL     1      46.294  13.415  16.975  0.00  0.00    -0.053 A 
ATOM     21  C   UNL     1      47.358  14.271  17.206  0.00  0.00    +0.216 A 
ATOM     22  O   UNL     1      50.907  14.497  16.773  0.00  0.00    -0.433 OA
ATOM     23  O   UNL     1      47.163  15.420  17.893  0.00  0.00    -0.297 OA
BRANCH  13  14
ATOM     14  O   UNL     1      50.044  12.425  15.506  0.00  0.00    -0.479 OA
ATOM     15  H   UNL     1      50.720  13.094  15.674  0.00  0.00    +0.403 HD
ENDBRANCH  13  14
BRANCH  17  18
ATOM     18  O   UNL     1      45.435  11.410  16.042  0.00  0.00    -0.490 OA
ATOM     19  H   UNL     1      45.101  10.977  16.840  0.00  0.00    +0.403 HD
ENDBRANCH  17  18
ENDBRANCH   8   9
BRANCH   6   5
ATOM      5  C   UNL     1      49.316  20.856  19.364  0.00  0.00    +0.118 C 
BRANCH   5   4
ATOM      1  C   UNL     1      52.103  21.011  18.960  0.00  0.00    +0.072 C 
ATOM      2  C   UNL     1      51.164  21.055  17.782  0.00  0.00    -0.135 C 
ATOM      3  C   UNL     1      51.710  21.250  16.390  0.00  0.00    +0.071 C 
ATOM      4  C   UNL     1      49.873  20.925  17.966  0.00  0.00    -0.045 C 
ENDBRANCH   5   4
ENDBRANCH   6   5
TORSDOF 5
ENDMDL
MODEL 7
REMARK VINA RESULT:      -6.3      2.530      4.347
REMARK  Name = ZINC95486052
REMARK  9 active torsions:
REMARK  status: ('A' for Active; 'I' for Inactive)
REMARK    1  A    between atoms: C1_1  and  C2_2
REMARK    2  A    between atoms: C2_2  and  C25_31
REMARK    3  A    between atoms: C3_3  and  C4_4
REMARK    4  A    between atoms: C4_4  and  C5_5
REMARK    5  A    between atoms: C7_7  and  C16_17
REMARK    6  A    between atoms: C11_12  and  C14_15
REMARK    7  A    between atoms: C11_12  and  C15_16
REMARK    8  A    between atoms: C20_23  and  O5_30
REMARK    9  A    between atoms: C22_25  and  O4_29
REMARK                            x       y       z     vdW  Elec       q    Type
REMARK                         _______ _______ _______ _____ _____    ______ ____
ROOT
ATOM      6  C   UNL     1      50.377  19.022  19.491  0.00  0.00    -0.103 A 
ATOM      7  C   UNL     1      49.314  19.874  19.275  0.00  0.00    +0.078 A 
ATOM      8  C   UNL     1      48.029  19.468  19.580  0.00  0.00    -0.123 A 
ATOM     24  C   UNL     1      47.809  18.209  20.104  0.00  0.00    +0.056 A 
ATOM     25  C   UNL     1      48.872  17.349  20.325  0.00  0.00    -0.157 A 
ATOM     26  C   UNL     1      48.594  15.984  20.903  0.00  0.00    +0.085 C 
ATOM     27  C   UNL     1      49.787  15.060  20.634  0.00  0.00    +0.016 C 
ATOM     28  C   UNL     1      51.064  15.801  21.051  0.00  0.00    +0.111 C 
ATOM     29  C   UNL     1      52.270  14.870  20.910  0.00  0.00    +0.074 C 
ATOM     30  C   UNL     1      50.939  16.267  22.503  0.00  0.00    +0.029 C 
ATOM     31  O   UNL     1      51.228  16.932  20.194  0.00  0.00    -0.300 OA
ATOM     32  C   UNL     1      50.159  17.750  20.010  0.00  0.00    +0.153 A 
ENDROOT
BRANCH   8   9
ATOM      9  C   UNL     1      46.868  20.399  19.342  0.00  0.00    +0.241 C 
ATOM     10  C   UNL     1      46.730  21.359  20.532  0.00  0.00    +0.037 C 
ATOM     11  C   UNL     1      45.529  22.247  20.257  0.00  0.00    +0.403 C 
ATOM     12  C   UNL     1      44.357  21.599  19.659  0.00  0.00    -0.294 A 
ATOM     13  C   UNL     1      43.123  22.265  19.600  0.00  0.00    +0.222 A 
ATOM     16  C   UNL     1      42.036  21.635  19.020  0.00  0.00    -0.075 A 
ATOM     17  C   UNL     1      42.169  20.353  18.501  0.00  0.00    +0.198 A 
ATOM     20  C   UNL     1      43.387  19.688  18.560  0.00  0.00    -0.053 A 
ATOM     21  C   UNL     1      44.486  20.298  19.139  0.00  0.00    +0.216 A 
ATOM     22  O   UNL     1      45.539  23.432  20.518  0.00  0.00    -0.433 OA
ATOM     23  O   UNL     1      45.667  19.640  19.205  0.00  0.00    -0.297 OA
BRANCH  13  14
ATOM     14  O   UNL     1      42.996  23.515  20.110  0.00  0.00    -0.479 OA
ATOM     15  H   UNL     1      43.316  24.213  19.524  0.00  0.00    +0.403 HD
ENDBRANCH  13  14
BRANCH  17  18
ATOM     18  O   UNL     1      41.100  19.745  17.930  0.00  0.00    -0.490 OA
ATOM     19  H   UNL     1      40.643  20.286  17.271  0.00  0.00    +0.403 HD
ENDBRANCH  17  18
ENDBRANCH   8   9
BRANCH   6   5
ATOM      5  C   UNL     1      51.777  19.467  19.157  0.00  0.00    +0.118 C 
BRANCH   5   4
ATOM      1  C   UNL     1      51.627  21.158  16.906  0.00  0.00    +0.072 C 
ATOM      2  C   UNL     1      52.034  19.716  16.743  0.00  0.00    -0.135 C 
ATOM      3  C   UNL     1      52.297  19.158  15.367  0.00  0.00    +0.071 C 
ATOM      4  C   UNL     1      52.159  18.947  17.796  0.00  0.00    -0.045 C 
ENDBRANCH   5   4
ENDBRANCH   6   5
TORSDOF 5
ENDMDL
MODEL 8
REMARK VINA RESULT:      -6.1      3.170      7.724
REMARK  Name = ZINC95486052
REMARK  9 active torsions:
REMARK  status: ('A' for Active; 'I' for Inactive)
REMARK    1  A    between atoms: C1_1  and  C2_2
REMARK    2  A    between atoms: C2_2  and  C25_31
REMARK    3  A    between atoms: C3_3  and  C4_4
REMARK    4  A    between atoms: C4_4  and  C5_5
REMARK    5  A    between atoms: C7_7  and  C16_17
REMARK    6  A    between atoms: C11_12  and  C14_15
REMARK    7  A    between atoms: C11_12  and  C15_16
REMARK    8  A    between atoms: C20_23  and  O5_30
REMARK    9  A    between atoms: C22_25  and  O4_29
REMARK                            x       y       z     vdW  Elec       q    Type
REMARK                         _______ _______ _______ _____ _____    ______ ____
ROOT
ATOM      6  C   UNL     1      45.443  17.979  19.769  0.00  0.00    -0.103 A 
ATOM      7  C   UNL     1      45.464  16.845  18.983  0.00  0.00    +0.078 A 
ATOM      8  C   UNL     1      46.588  16.541  18.239  0.00  0.00    -0.123 A 
ATOM     24  C   UNL     1      47.692  17.370  18.286  0.00  0.00    +0.056 A 
ATOM     25  C   UNL     1      47.677  18.509  19.074  0.00  0.00    -0.157 A 
ATOM     26  C   UNL     1      48.902  19.387  19.103  0.00  0.00    +0.085 C 
ATOM     27  C   UNL     1      48.526  20.777  19.632  0.00  0.00    +0.016 C 
ATOM     28  C   UNL     1      47.711  20.588  20.918  0.00  0.00    +0.111 C 
ATOM     29  C   UNL     1      47.415  21.953  21.544  0.00  0.00    +0.074 C 
ATOM     30  C   UNL     1      48.499  19.727  21.907  0.00  0.00    +0.029 C 
ATOM     31  O   UNL     1      46.484  19.937  20.583  0.00  0.00    -0.300 OA
ATOM     32  C   UNL     1      46.548  18.822  19.812  0.00  0.00    +0.153 A 
ENDROOT
BRANCH   8   9
ATOM      9  C   UNL     1      46.611  15.303  17.380  0.00  0.00    +0.241 C 
ATOM     10  C   UNL     1      45.933  14.147  18.129  0.00  0.00    +0.037 C 
ATOM     11  C   UNL     1      46.014  12.922  17.235  0.00  0.00    +0.403 C 
ATOM     12  C   UNL     1      47.271  12.725  16.505  0.00  0.00    -0.294 A 
ATOM     13  C   UNL     1      47.541  11.508  15.860  0.00  0.00    +0.222 A 
ATOM     16  C   UNL     1      48.730  11.353  15.168  0.00  0.00    -0.075 A 
ATOM     17  C   UNL     1      49.646  12.397  15.116  0.00  0.00    +0.198 A 
ATOM     20  C   UNL     1      49.386  13.601  15.756  0.00  0.00    -0.053 A 
ATOM     21  C   UNL     1      48.205  13.777  16.456  0.00  0.00    +0.216 A 
ATOM     22  O   UNL     1      45.087  12.146  17.130  0.00  0.00    -0.433 OA
ATOM     23  O   UNL     1      47.963  14.949  17.088  0.00  0.00    -0.297 OA
BRANCH  13  14
ATOM     14  O   UNL     1      46.646  10.492  15.916  0.00  0.00    -0.479 OA
ATOM     15  H   UNL     1      47.049   9.617  15.999  0.00  0.00    +0.403 HD
ENDBRANCH  13  14
BRANCH  17  18
ATOM     18  O   UNL     1      50.807  12.237  14.432  0.00  0.00    -0.490 OA
ATOM     19  H   UNL     1      50.819  12.673  13.569  0.00  0.00    +0.403 HD
ENDBRANCH  17  18
ENDBRANCH   8   9
BRANCH   6   5
ATOM      5  C   UNL     1      44.215  18.310  20.578  0.00  0.00    +0.118 C 
BRANCH   5   4
ATOM      1  C   UNL     1      41.534  18.658  21.381  0.00  0.00    +0.072 C 
ATOM      2  C   UNL     1      42.026  19.278  20.098  0.00  0.00    -0.135 C 
ATOM      3  C   UNL     1      41.069  20.031  19.210  0.00  0.00    +0.071 C 
ATOM      4  C   UNL     1      43.286  19.165  19.756  0.00  0.00    -0.045 C 
ENDBRANCH   5   4
ENDBRANCH   6   5
TORSDOF 5
ENDMDL
MODEL 9
REMARK VINA RESULT:      -6.1      1.990      2.425
REMARK  Name = ZINC95486052
REMARK  9 active torsions:
REMARK  status: ('A' for Active; 'I' for Inactive)
REMARK    1  A    between atoms: C1_1  and  C2_2
REMARK    2  A    between atoms: C2_2  and  C25_31
REMARK    3  A    between atoms: C3_3  and  C4_4
REMARK    4  A    between atoms: C4_4  and  C5_5
REMARK    5  A    between atoms: C7_7  and  C16_17
REMARK    6  A    between atoms: C11_12  and  C14_15
REMARK    7  A    between atoms: C11_12  and  C15_16
REMARK    8  A    between atoms: C20_23  and  O5_30
REMARK    9  A    between atoms: C22_25  and  O4_29
REMARK                            x       y       z     vdW  Elec       q    Type
REMARK                         _______ _______ _______ _____ _____    ______ ____
ROOT
ATOM      6  C   UNL     1      48.762  17.236  18.327  0.00  0.00    -0.103 A 
ATOM      7  C   UNL     1      47.565  17.869  18.592  0.00  0.00    +0.078 A 
ATOM      8  C   UNL     1      47.502  18.848  19.566  0.00  0.00    -0.123 A 
ATOM     24  C   UNL     1      48.639  19.194  20.270  0.00  0.00    +0.056 A 
ATOM     25  C   UNL     1      49.843  18.563  20.008  0.00  0.00    -0.157 A 
ATOM     26  C   UNL     1      51.063  18.971  20.794  0.00  0.00    +0.085 C 
ATOM     27  C   UNL     1      52.131  17.875  20.692  0.00  0.00    +0.016 C 
ATOM     28  C   UNL     1      52.286  17.503  19.211  0.00  0.00    +0.111 C 
ATOM     29  C   UNL     1      53.427  16.495  19.051  0.00  0.00    +0.074 C 
ATOM     30  C   UNL     1      52.589  18.759  18.392  0.00  0.00    +0.029 C 
ATOM     31  O   UNL     1      51.062  16.919  18.763  0.00  0.00    -0.300 OA
ATOM     32  C   UNL     1      49.906  17.575  19.040  0.00  0.00    +0.153 A 
ENDROOT
BRANCH   8   9
ATOM      9  C   UNL     1      46.195  19.539  19.857  0.00  0.00    +0.241 C 
ATOM     10  C   UNL     1      45.041  18.725  19.255  0.00  0.00    +0.037 C 
ATOM     11  C   UNL     1      43.757  19.481  19.547  0.00  0.00    +0.403 C 
ATOM     12  C   UNL     1      43.811  20.941  19.416  0.00  0.00    -0.294 A 
ATOM     13  C   UNL     1      42.633  21.704  19.414  0.00  0.00    +0.222 A 
ATOM     16  C   UNL     1      42.712  23.080  19.301  0.00  0.00    -0.075 A 
ATOM     17  C   UNL     1      43.952  23.699  19.189  0.00  0.00    +0.198 A 
ATOM     20  C   UNL     1      45.121  22.949  19.185  0.00  0.00    -0.053 A 
ATOM     21  C   UNL     1      45.063  21.570  19.295  0.00  0.00    +0.216 A 
ATOM     22  O   UNL     1      42.738  18.907  19.873  0.00  0.00    -0.433 OA
ATOM     23  O   UNL     1      46.205  20.844  19.279  0.00  0.00    -0.297 OA
BRANCH  13  14
ATOM     14  O   UNL     1      41.425  21.096  19.521  0.00  0.00    -0.479 OA
ATOM     15  H   UNL     1      41.244  20.456  18.820  0.00  0.00    +0.403 HD
ENDBRANCH  13  14
BRANCH  17  18
ATOM     18  O   UNL     1      44.022  25.050  19.082  0.00  0.00    -0.490 OA
ATOM     19  H   UNL     1      44.918  25.389  18.951  0.00  0.00    +0.403 HD
ENDBRANCH  17  18
ENDBRANCH   8   9
BRANCH   6   5
ATOM      5  C   UNL     1      48.828  16.168  17.265  0.00  0.00    +0.118 C 
BRANCH   5   4
ATOM      1  C   UNL     1      48.696  13.517  18.218  0.00  0.00    +0.072 C 
ATOM      2  C   UNL     1      47.477  14.166  17.616  0.00  0.00    -0.135 C 
ATOM      3  C   UNL     1      46.202  13.375  17.461  0.00  0.00    +0.071 C 
ATOM      4  C   UNL     1      47.523  15.416  17.226  0.00  0.00    -0.045 C 
ENDBRANCH   5   4
ENDBRANCH   6   5
TORSDOF 5
ENDMDL
