MODEL 1
REMARK VINA RESULT:      -6.5      0.000      0.000
REMARK  Name = ZINC95486131
REMARK  14 active torsions:
REMARK  status: ('A' for Active; 'I' for Inactive)
REMARK    1  A    between atoms: C1_1  and  O1_2
REMARK    2  A    between atoms: O1_2  and  C2_3
REMARK    3  A    between atoms: C4_5  and  C15_28
REMARK    4  A    between atoms: C6_7  and  O8_26
REMARK    5  A    between atoms: C7_8  and  O2_9
REMARK    6  A    between atoms: O2_9  and  C8_10
REMARK    7  A    between atoms: C9_12  and  O7_25
REMARK    8  A    between atoms: C10_14  and  O6_24
REMARK    9  A    between atoms: C11_16  and  O5_23
REMARK   10  A    between atoms: C12_18  and  C13_21
REMARK   11  A    between atoms: C13_21  and  O4_22
REMARK   12  A    between atoms: O8_26  and  C14_27
REMARK   13  A    between atoms: C19_33  and  O12_40
REMARK   14  A    between atoms: C22_36  and  O11_39
REMARK                            x       y       z     vdW  Elec       q    Type
REMARK                         _______ _______ _______ _____ _____    ______ ____
ROOT
ATOM      3  C   UNL     1      48.500  16.391  18.346  0.00  0.00    +0.154 A 
ATOM      4  C   UNL     1      47.942  17.612  18.676  0.00  0.00    -0.051 A 
ATOM      5  C   UNL     1      46.578  17.701  18.964  0.00  0.00    +0.011 A 
ATOM     21  C   UNL     1      45.782  16.554  18.920  0.00  0.00    -0.054 A 
ATOM     22  C   UNL     1      46.344  15.335  18.589  0.00  0.00    +0.177 A 
ATOM     25  C   UNL     1      47.703  15.251  18.296  0.00  0.00    +0.043 A 
ENDROOT
BRANCH   5   6
ATOM      6  C   UNL     1      45.981  19.002  19.318  0.00  0.00    +0.204 A 
ATOM      7  C   UNL     1      44.712  19.274  18.905  0.00  0.00    -0.139 A 
ATOM      8  C   UNL     1      44.123  20.517  19.235  0.00  0.00    +0.423 A 
ATOM      9  C   UNL     1      44.934  21.464  20.021  0.00  0.00    -0.242 A 
ATOM     10  C   UNL     1      44.434  22.717  20.392  0.00  0.00    +0.194 A 
ATOM     13  C   UNL     1      45.228  23.578  21.130  0.00  0.00    -0.010 A 
ATOM     14  C   UNL     1      46.509  23.202  21.500  0.00  0.00    +0.090 A 
ATOM     15  C   UNL     1      47.015  21.966  21.138  0.00  0.00    +0.078 A 
ATOM     18  C   UNL     1      46.233  21.085  20.395  0.00  0.00    +0.138 A 
ATOM     19  O   UNL     1      42.989  20.794  18.881  0.00  0.00    -0.448 OA
ATOM     20  O   UNL     1      46.706  19.872  20.037  0.00  0.00    -0.209 OA
BRANCH  10  11
ATOM     11  O   UNL     1      43.179  23.087  20.030  0.00  0.00    -0.473 OA
ATOM     12  H   UNL     1      42.479  22.563  20.446  0.00  0.00    +0.402 HD
ENDBRANCH  10  11
BRANCH  15  16
ATOM     16  O   UNL     1      48.275  21.611  21.508  0.00  0.00    -0.479 OA
ATOM     17  H   UNL     1      48.682  20.949  20.934  0.00  0.00    +0.392 HD
ENDBRANCH  15  16
ENDBRANCH   5   6
BRANCH   3   2
ATOM      1  C   UNL     1      50.368  17.284  17.174  0.00  0.00    +0.251 C 
ATOM      2  O   UNL     1      49.828  16.305  18.064  0.00  0.00    -0.299 OA
ENDBRANCH   3   2
BRANCH  22  23
ATOM     23  O   UNL     1      45.569  14.218  18.544  0.00  0.00    -0.278 OA
ATOM     24  C   UNL     1      45.222  13.620  19.796  0.00  0.00    +0.246 C 
ENDBRANCH  22  23
BRANCH  25  26
ATOM     26  O   UNL     1      48.253  14.053  17.965  0.00  0.00    -0.284 OA
BRANCH  26  27
ATOM     27  C   UNL     1      48.520  13.821  16.581  0.00  0.00    +0.294 C 
ATOM     28  C   UNL     1      47.659  12.657  16.082  0.00  0.00    +0.148 C 
ATOM     31  C   UNL     1      47.994  12.377  14.615  0.00  0.00    +0.163 C 
ATOM     34  C   UNL     1      49.492  12.087  14.490  0.00  0.00    +0.170 C 
ATOM     37  C   UNL     1      50.282  13.274  15.049  0.00  0.00    +0.187 C 
ATOM     41  O   UNL     1      49.901  13.500  16.408  0.00  0.00    -0.364 OA
BRANCH  28  29
ATOM     29  O   UNL     1      46.277  12.999  16.201  0.00  0.00    -0.554 OA
ATOM     30  H   UNL     1      46.115  13.811  16.702  0.00  0.00    +0.396 HD
ENDBRANCH  28  29
BRANCH  31  32
ATOM     32  O   UNL     1      47.246  11.247  14.161  0.00  0.00    -0.555 OA
ATOM     33  H   UNL     1      46.288  11.361  14.215  0.00  0.00    +0.395 HD
ENDBRANCH  31  32
BRANCH  34  35
ATOM     35  O   UNL     1      49.829  11.895  13.115  0.00  0.00    -0.551 OA
ATOM     36  H   UNL     1      50.583  11.306  12.973  0.00  0.00    +0.394 HD
ENDBRANCH  34  35
BRANCH  37  38
ATOM     38  C   UNL     1      51.780  12.966  14.984  0.00  0.00    +0.225 C 
BRANCH  38  39
ATOM     39  O   UNL     1      52.296  13.386  13.718  0.00  0.00    -0.565 OA
ATOM     40  H   UNL     1      52.248  14.340  13.571  0.00  0.00    +0.382 HD
ENDBRANCH  38  39
ENDBRANCH  37  38
ENDBRANCH  26  27
ENDBRANCH  25  26
TORSDOF 12
ENDMDL
MODEL 2
REMARK VINA RESULT:      -6.5      0.068      2.158
REMARK  Name = ZINC95486131
REMARK  14 active torsions:
REMARK  status: ('A' for Active; 'I' for Inactive)
REMARK    1  A    between atoms: C1_1  and  O1_2
REMARK    2  A    between atoms: O1_2  and  C2_3
REMARK    3  A    between atoms: C4_5  and  C15_28
REMARK    4  A    between atoms: C6_7  and  O8_26
REMARK    5  A    between atoms: C7_8  and  O2_9
REMARK    6  A    between atoms: O2_9  and  C8_10
REMARK    7  A    between atoms: C9_12  and  O7_25
REMARK    8  A    between atoms: C10_14  and  O6_24
REMARK    9  A    between atoms: C11_16  and  O5_23
REMARK   10  A    between atoms: C12_18  and  C13_21
REMARK   11  A    between atoms: C13_21  and  O4_22
REMARK   12  A    between atoms: O8_26  and  C14_27
REMARK   13  A    between atoms: C19_33  and  O12_40
REMARK   14  A    between atoms: C22_36  and  O11_39
REMARK                            x       y       z     vdW  Elec       q    Type
REMARK                         _______ _______ _______ _____ _____    ______ ____
ROOT
ATOM      3  C   UNL     1      46.361  15.322  18.602  0.00  0.00    +0.154 A 
ATOM      4  C   UNL     1      45.791  16.536  18.936  0.00  0.00    -0.051 A 
ATOM      5  C   UNL     1      46.569  17.697  18.928  0.00  0.00    +0.011 A 
ATOM     21  C   UNL     1      47.920  17.627  18.582  0.00  0.00    -0.054 A 
ATOM     22  C   UNL     1      48.485  16.410  18.249  0.00  0.00    +0.177 A 
ATOM     25  C   UNL     1      47.710  15.254  18.263  0.00  0.00    +0.043 A 
ENDROOT
BRANCH   5   6
ATOM      6  C   UNL     1      45.962  18.994  19.283  0.00  0.00    +0.204 A 
ATOM      7  C   UNL     1      44.694  19.260  18.863  0.00  0.00    -0.139 A 
ATOM      8  C   UNL     1      44.097  20.498  19.193  0.00  0.00    +0.423 A 
ATOM      9  C   UNL     1      44.898  21.448  19.988  0.00  0.00    -0.242 A 
ATOM     10  C   UNL     1      44.388  22.696  20.360  0.00  0.00    +0.194 A 
ATOM     13  C   UNL     1      45.172  23.558  21.107  0.00  0.00    -0.010 A 
ATOM     14  C   UNL     1      46.453  23.188  21.483  0.00  0.00    +0.090 A 
ATOM     15  C   UNL     1      46.968  21.956  21.120  0.00  0.00    +0.078 A 
ATOM     18  C   UNL     1      46.195  21.074  20.369  0.00  0.00    +0.138 A 
ATOM     19  O   UNL     1      42.964  20.771  18.833  0.00  0.00    -0.448 OA
ATOM     20  O   UNL     1      46.678  19.865  20.010  0.00  0.00    -0.209 OA
BRANCH  10  11
ATOM     11  O   UNL     1      43.133  23.060  19.991  0.00  0.00    -0.473 OA
ATOM     12  H   UNL     1      42.570  23.334  20.729  0.00  0.00    +0.402 HD
ENDBRANCH  10  11
BRANCH  15  16
ATOM     16  O   UNL     1      48.227  21.608  21.497  0.00  0.00    -0.479 OA
ATOM     17  H   UNL     1      48.443  20.679  21.337  0.00  0.00    +0.392 HD
ENDBRANCH  15  16
ENDBRANCH   5   6
BRANCH   3   2
ATOM      1  C   UNL     1      45.275  13.640  19.887  0.00  0.00    +0.251 C 
ATOM      2  O   UNL     1      45.605  14.191  18.610  0.00  0.00    -0.299 OA
ENDBRANCH   3   2
BRANCH  22  23
ATOM     23  O   UNL     1      49.801  16.341  17.912  0.00  0.00    -0.278 OA
ATOM     24  C   UNL     1      50.338  17.436  17.166  0.00  0.00    +0.246 C 
ENDBRANCH  22  23
BRANCH  25  26
ATOM     26  O   UNL     1      48.269  14.057  17.941  0.00  0.00    -0.284 OA
BRANCH  26  27
ATOM     27  C   UNL     1      48.519  13.810  16.556  0.00  0.00    +0.294 C 
ATOM     28  C   UNL     1      47.672  12.623  16.088  0.00  0.00    +0.148 C 
ATOM     31  C   UNL     1      47.990  12.327  14.620  0.00  0.00    +0.163 C 
ATOM     34  C   UNL     1      49.491  12.062  14.477  0.00  0.00    +0.170 C 
ATOM     37  C   UNL     1      50.268  13.271  15.007  0.00  0.00    +0.187 C 
ATOM     41  O   UNL     1      49.902  13.510  16.367  0.00  0.00    -0.364 OA
BRANCH  28  29
ATOM     29  O   UNL     1      46.286  12.942  16.224  0.00  0.00    -0.554 OA
ATOM     30  H   UNL     1      45.709  12.452  15.622  0.00  0.00    +0.396 HD
ENDBRANCH  28  29
BRANCH  31  32
ATOM     32  O   UNL     1      47.256  11.176  14.195  0.00  0.00    -0.555 OA
ATOM     33  H   UNL     1      47.608  10.340  14.529  0.00  0.00    +0.395 HD
ENDBRANCH  31  32
BRANCH  34  35
ATOM     35  O   UNL     1      49.811  11.855  13.100  0.00  0.00    -0.551 OA
ATOM     36  H   UNL     1      49.063  11.555  12.564  0.00  0.00    +0.394 HD
ENDBRANCH  34  35
BRANCH  37  38
ATOM     38  C   UNL     1      51.769  12.989  14.922  0.00  0.00    +0.225 C 
BRANCH  38  39
ATOM     39  O   UNL     1      52.269  13.448  13.664  0.00  0.00    -0.565 OA
ATOM     40  H   UNL     1      53.074  12.997  13.373  0.00  0.00    +0.382 HD
ENDBRANCH  38  39
ENDBRANCH  37  38
ENDBRANCH  26  27
ENDBRANCH  25  26
TORSDOF 12
ENDMDL
MODEL 3
REMARK VINA RESULT:      -6.4      1.663      9.729
REMARK  Name = ZINC95486131
REMARK  14 active torsions:
REMARK  status: ('A' for Active; 'I' for Inactive)
REMARK    1  A    between atoms: C1_1  and  O1_2
REMARK    2  A    between atoms: O1_2  and  C2_3
REMARK    3  A    between atoms: C4_5  and  C15_28
REMARK    4  A    between atoms: C6_7  and  O8_26
REMARK    5  A    between atoms: C7_8  and  O2_9
REMARK    6  A    between atoms: O2_9  and  C8_10
REMARK    7  A    between atoms: C9_12  and  O7_25
REMARK    8  A    between atoms: C10_14  and  O6_24
REMARK    9  A    between atoms: C11_16  and  O5_23
REMARK   10  A    between atoms: C12_18  and  C13_21
REMARK   11  A    between atoms: C13_21  and  O4_22
REMARK   12  A    between atoms: O8_26  and  C14_27
REMARK   13  A    between atoms: C19_33  and  O12_40
REMARK   14  A    between atoms: C22_36  and  O11_39
REMARK                            x       y       z     vdW  Elec       q    Type
REMARK                         _______ _______ _______ _____ _____    ______ ____
ROOT
ATOM      3  C   UNL     1      45.446  16.617  19.611  0.00  0.00    +0.154 A 
ATOM      4  C   UNL     1      45.947  15.567  18.863  0.00  0.00    -0.051 A 
ATOM      5  C   UNL     1      47.032  15.776  18.008  0.00  0.00    +0.011 A 
ATOM     21  C   UNL     1      47.609  17.044  17.913  0.00  0.00    -0.054 A 
ATOM     22  C   UNL     1      47.104  18.090  18.662  0.00  0.00    +0.177 A 
ATOM     25  C   UNL     1      46.018  17.881  19.509  0.00  0.00    +0.043 A 
ENDROOT
BRANCH   5   6
ATOM      6  C   UNL     1      47.569  14.658  17.210  0.00  0.00    +0.204 A 
ATOM      7  C   UNL     1      46.732  13.642  16.861  0.00  0.00    -0.139 A 
ATOM      8  C   UNL     1      47.229  12.561  16.097  0.00  0.00    +0.423 A 
ATOM      9  C   UNL     1      48.653  12.598  15.716  0.00  0.00    -0.242 A 
ATOM     10  C   UNL     1      49.231  11.571  14.961  0.00  0.00    +0.194 A 
ATOM     13  C   UNL     1      50.572  11.644  14.624  0.00  0.00    -0.010 A 
ATOM     14  C   UNL     1      51.337  12.725  15.031  0.00  0.00    +0.090 A 
ATOM     15  C   UNL     1      50.776  13.746  15.779  0.00  0.00    +0.078 A 
ATOM     18  C   UNL     1      49.429  13.692  16.128  0.00  0.00    +0.138 A 
ATOM     19  O   UNL     1      46.508  11.634  15.766  0.00  0.00    -0.448 OA
ATOM     20  O   UNL     1      48.862  14.681  16.853  0.00  0.00    -0.209 OA
BRANCH  10  11
ATOM     11  O   UNL     1      48.483  10.511  14.561  0.00  0.00    -0.473 OA
ATOM     12  H   UNL     1      48.144  10.588  13.658  0.00  0.00    +0.402 HD
ENDBRANCH  10  11
BRANCH  15  16
ATOM     16  O   UNL     1      51.540  14.800  16.172  0.00  0.00    -0.479 OA
ATOM     17  H   UNL     1      51.240  15.220  16.988  0.00  0.00    +0.392 HD
ENDBRANCH  15  16
ENDBRANCH   5   6
BRANCH   3   2
ATOM      1  C   UNL     1      44.662  15.795  21.701  0.00  0.00    +0.251 C 
ATOM      2  O   UNL     1      44.389  16.414  20.442  0.00  0.00    -0.299 OA
ENDBRANCH   3   2
BRANCH  22  23
ATOM     23  O   UNL     1      47.664  19.327  18.569  0.00  0.00    -0.278 OA
ATOM     24  C   UNL     1      49.054  19.433  18.886  0.00  0.00    +0.246 C 
ENDBRANCH  22  23
BRANCH  25  26
ATOM     26  O   UNL     1      45.520  18.912  20.241  0.00  0.00    -0.284 OA
BRANCH  26  27
ATOM     27  C   UNL     1      44.781  19.911  19.535  0.00  0.00    +0.294 C 
ATOM     28  C   UNL     1      44.963  21.265  20.227  0.00  0.00    +0.148 C 
ATOM     31  C   UNL     1      44.121  22.318  19.500  0.00  0.00    +0.163 C 
ATOM     34  C   UNL     1      42.658  21.865  19.484  0.00  0.00    +0.170 C 
ATOM     37  C   UNL     1      42.566  20.488  18.820  0.00  0.00    +0.187 C 
ATOM     41  O   UNL     1      43.396  19.564  19.526  0.00  0.00    -0.364 OA
BRANCH  28  29
ATOM     29  O   UNL     1      46.340  21.642  20.186  0.00  0.00    -0.554 OA
ATOM     30  H   UNL     1      46.679  21.799  19.294  0.00  0.00    +0.396 HD
ENDBRANCH  28  29
BRANCH  31  32
ATOM     32  O   UNL     1      44.229  23.570  20.181  0.00  0.00    -0.555 OA
ATOM     33  H   UNL     1      44.933  23.598  20.842  0.00  0.00    +0.395 HD
ENDBRANCH  31  32
BRANCH  34  35
ATOM     35  O   UNL     1      41.876  22.805  18.746  0.00  0.00    -0.551 OA
ATOM     36  H   UNL     1      42.300  23.120  17.936  0.00  0.00    +0.394 HD
ENDBRANCH  34  35
BRANCH  37  38
ATOM     38  C   UNL     1      41.115  20.002  18.854  0.00  0.00    +0.225 C 
BRANCH  38  39
ATOM     39  O   UNL     1      40.408  20.691  19.888  0.00  0.00    -0.565 OA
ATOM     40  H   UNL     1      39.782  20.136  20.372  0.00  0.00    +0.382 HD
ENDBRANCH  38  39
ENDBRANCH  37  38
ENDBRANCH  26  27
ENDBRANCH  25  26
TORSDOF 12
ENDMDL
MODEL 4
REMARK VINA RESULT:      -6.4      1.660      9.508
REMARK  Name = ZINC95486131
REMARK  14 active torsions:
REMARK  status: ('A' for Active; 'I' for Inactive)
REMARK    1  A    between atoms: C1_1  and  O1_2
REMARK    2  A    between atoms: O1_2  and  C2_3
REMARK    3  A    between atoms: C4_5  and  C15_28
REMARK    4  A    between atoms: C6_7  and  O8_26
REMARK    5  A    between atoms: C7_8  and  O2_9
REMARK    6  A    between atoms: O2_9  and  C8_10
REMARK    7  A    between atoms: C9_12  and  O7_25
REMARK    8  A    between atoms: C10_14  and  O6_24
REMARK    9  A    between atoms: C11_16  and  O5_23
REMARK   10  A    between atoms: C12_18  and  C13_21
REMARK   11  A    between atoms: C13_21  and  O4_22
REMARK   12  A    between atoms: O8_26  and  C14_27
REMARK   13  A    between atoms: C19_33  and  O12_40
REMARK   14  A    between atoms: C22_36  and  O11_39
REMARK                            x       y       z     vdW  Elec       q    Type
REMARK                         _______ _______ _______ _____ _____    ______ ____
ROOT
ATOM      3  C   UNL     1      47.110  18.097  18.625  0.00  0.00    +0.154 A 
ATOM      4  C   UNL     1      47.621  17.051  17.880  0.00  0.00    -0.051 A 
ATOM      5  C   UNL     1      47.052  15.779  17.982  0.00  0.00    +0.011 A 
ATOM     21  C   UNL     1      45.968  15.568  18.837  0.00  0.00    -0.054 A 
ATOM     22  C   UNL     1      45.461  16.618  19.580  0.00  0.00    +0.177 A 
ATOM     25  C   UNL     1      46.033  17.883  19.481  0.00  0.00    +0.043 A 
ENDROOT
BRANCH   5   6
ATOM      6  C   UNL     1      47.595  14.661  17.187  0.00  0.00    +0.204 A 
ATOM      7  C   UNL     1      46.762  13.642  16.838  0.00  0.00    -0.139 A 
ATOM      8  C   UNL     1      47.265  12.562  16.076  0.00  0.00    +0.423 A 
ATOM      9  C   UNL     1      48.689  12.604  15.696  0.00  0.00    -0.242 A 
ATOM     10  C   UNL     1      49.273  11.579  14.943  0.00  0.00    +0.194 A 
ATOM     13  C   UNL     1      50.613  11.657  14.607  0.00  0.00    -0.010 A 
ATOM     14  C   UNL     1      51.373  12.742  15.014  0.00  0.00    +0.090 A 
ATOM     15  C   UNL     1      50.807  13.762  15.759  0.00  0.00    +0.078 A 
ATOM     18  C   UNL     1      49.460  13.702  16.108  0.00  0.00    +0.138 A 
ATOM     19  O   UNL     1      46.549  11.631  15.746  0.00  0.00    -0.448 OA
ATOM     20  O   UNL     1      48.888  14.690  16.830  0.00  0.00    -0.209 OA
BRANCH  10  11
ATOM     11  O   UNL     1      48.529  10.515  14.545  0.00  0.00    -0.473 OA
ATOM     12  H   UNL     1      49.042   9.814  14.119  0.00  0.00    +0.402 HD
ENDBRANCH  10  11
BRANCH  15  16
ATOM     16  O   UNL     1      51.566  14.820  16.151  0.00  0.00    -0.479 OA
ATOM     17  H   UNL     1      51.768  14.831  17.096  0.00  0.00    +0.392 HD
ENDBRANCH  15  16
ENDBRANCH   5   6
BRANCH   3   2
ATOM      1  C   UNL     1      48.976  19.505  19.067  0.00  0.00    +0.251 C 
ATOM      2  O   UNL     1      47.664  19.336  18.527  0.00  0.00    -0.299 OA
ENDBRANCH   3   2
BRANCH  22  23
ATOM     23  O   UNL     1      44.405  16.414  20.413  0.00  0.00    -0.278 OA
ATOM     24  C   UNL     1      44.684  15.799  21.674  0.00  0.00    +0.246 C 
ENDBRANCH  22  23
BRANCH  25  26
ATOM     26  O   UNL     1      45.537  18.913  20.217  0.00  0.00    -0.284 OA
BRANCH  26  27
ATOM     27  C   UNL     1      44.792  19.911  19.517  0.00  0.00    +0.294 C 
ATOM     28  C   UNL     1      44.973  21.264  20.211  0.00  0.00    +0.148 C 
ATOM     31  C   UNL     1      44.125  22.315  19.490  0.00  0.00    +0.163 C 
ATOM     34  C   UNL     1      42.664  21.858  19.480  0.00  0.00    +0.170 C 
ATOM     37  C   UNL     1      42.572  20.482  18.813  0.00  0.00    +0.187 C 
ATOM     41  O   UNL     1      43.408  19.559  19.514  0.00  0.00    -0.364 OA
BRANCH  28  29
ATOM     29  O   UNL     1      46.349  21.644  20.165  0.00  0.00    -0.554 OA
ATOM     30  H   UNL     1      46.509  22.489  19.721  0.00  0.00    +0.396 HD
ENDBRANCH  28  29
BRANCH  31  32
ATOM     32  O   UNL     1      44.232  23.566  20.174  0.00  0.00    -0.555 OA
ATOM     33  H   UNL     1      44.471  23.485  21.107  0.00  0.00    +0.395 HD
ENDBRANCH  31  32
BRANCH  34  35
ATOM     35  O   UNL     1      41.875  22.797  18.747  0.00  0.00    -0.551 OA
ATOM     36  H   UNL     1      40.959  22.518  18.608  0.00  0.00    +0.394 HD
ENDBRANCH  34  35
BRANCH  37  38
ATOM     38  C   UNL     1      41.123  19.992  18.853  0.00  0.00    +0.225 C 
BRANCH  38  39
ATOM     39  O   UNL     1      40.425  20.658  19.908  0.00  0.00    -0.565 OA
ATOM     40  H   UNL     1      40.987  20.912  20.652  0.00  0.00    +0.382 HD
ENDBRANCH  38  39
ENDBRANCH  37  38
ENDBRANCH  26  27
ENDBRANCH  25  26
TORSDOF 12
ENDMDL
MODEL 5
REMARK VINA RESULT:      -6.4      1.742      9.708
REMARK  Name = ZINC95486131
REMARK  14 active torsions:
REMARK  status: ('A' for Active; 'I' for Inactive)
REMARK    1  A    between atoms: C1_1  and  O1_2
REMARK    2  A    between atoms: O1_2  and  C2_3
REMARK    3  A    between atoms: C4_5  and  C15_28
REMARK    4  A    between atoms: C6_7  and  O8_26
REMARK    5  A    between atoms: C7_8  and  O2_9
REMARK    6  A    between atoms: O2_9  and  C8_10
REMARK    7  A    between atoms: C9_12  and  O7_25
REMARK    8  A    between atoms: C10_14  and  O6_24
REMARK    9  A    between atoms: C11_16  and  O5_23
REMARK   10  A    between atoms: C12_18  and  C13_21
REMARK   11  A    between atoms: C13_21  and  O4_22
REMARK   12  A    between atoms: O8_26  and  C14_27
REMARK   13  A    between atoms: C19_33  and  O12_40
REMARK   14  A    between atoms: C22_36  and  O11_39
REMARK                            x       y       z     vdW  Elec       q    Type
REMARK                         _______ _______ _______ _____ _____    ______ ____
ROOT
ATOM      3  C   UNL     1      47.070  18.401  18.831  0.00  0.00    +0.154 A 
ATOM      4  C   UNL     1      47.689  17.387  18.124  0.00  0.00    -0.051 A 
ATOM      5  C   UNL     1      47.189  16.084  18.190  0.00  0.00    +0.011 A 
ATOM     21  C   UNL     1      46.064  15.810  18.970  0.00  0.00    -0.054 A 
ATOM     22  C   UNL     1      45.449  16.827  19.676  0.00  0.00    +0.177 A 
ATOM     25  C   UNL     1      45.953  18.123  19.613  0.00  0.00    +0.043 A 
ENDROOT
BRANCH   5   6
ATOM      6  C   UNL     1      47.847  15.001  17.435  0.00  0.00    +0.204 A 
ATOM      7  C   UNL     1      49.182  15.096  17.184  0.00  0.00    -0.139 A 
ATOM      8  C   UNL     1      49.830  14.068  16.461  0.00  0.00    +0.423 A 
ATOM      9  C   UNL     1      49.006  12.931  16.012  0.00  0.00    -0.242 A 
ATOM     10  C   UNL     1      49.561  11.869  15.291  0.00  0.00    +0.194 A 
ATOM     13  C   UNL     1      48.753  10.821  14.888  0.00  0.00    -0.010 A 
ATOM     14  C   UNL     1      47.402  10.822  15.196  0.00  0.00    +0.090 A 
ATOM     15  C   UNL     1      46.841  11.867  15.909  0.00  0.00    +0.078 A 
ATOM     18  C   UNL     1      47.637  12.932  16.323  0.00  0.00    +0.138 A 
ATOM     19  O   UNL     1      51.024  14.120  16.218  0.00  0.00    -0.448 OA
ATOM     20  O   UNL     1      47.109  13.958  17.025  0.00  0.00    -0.209 OA
BRANCH  10  11
ATOM     11  O   UNL     1      50.885  11.867  14.988  0.00  0.00    -0.473 OA
ATOM     12  H   UNL     1      51.465  11.847  15.761  0.00  0.00    +0.402 HD
ENDBRANCH  10  11
BRANCH  15  16
ATOM     16  O   UNL     1      45.513  11.854  16.203  0.00  0.00    -0.479 OA
ATOM     17  H   UNL     1      45.252  11.151  16.812  0.00  0.00    +0.392 HD
ENDBRANCH  15  16
ENDBRANCH   5   6
BRANCH   3   2
ATOM      1  C   UNL     1      48.899  19.872  19.215  0.00  0.00    +0.251 C 
ATOM      2  O   UNL     1      47.557  19.669  18.768  0.00  0.00    -0.299 OA
ENDBRANCH   3   2
BRANCH  22  23
ATOM     23  O   UNL     1      44.353  16.561  20.438  0.00  0.00    -0.278 OA
ATOM     24  C   UNL     1      44.580  15.944  21.707  0.00  0.00    +0.246 C 
ENDBRANCH  22  23
BRANCH  25  26
ATOM     26  O   UNL     1      45.350  19.121  20.313  0.00  0.00    -0.284 OA
BRANCH  26  27
ATOM     27  C   UNL     1      44.624  20.094  19.560  0.00  0.00    +0.294 C 
ATOM     28  C   UNL     1      44.769  21.467  20.223  0.00  0.00    +0.148 C 
ATOM     31  C   UNL     1      43.941  22.492  19.444  0.00  0.00    +0.163 C 
ATOM     34  C   UNL     1      42.484  22.023  19.393  0.00  0.00    +0.170 C 
ATOM     37  C   UNL     1      42.427  20.629  18.760  0.00  0.00    +0.187 C 
ATOM     41  O   UNL     1      43.243  19.732  19.515  0.00  0.00    -0.364 OA
BRANCH  28  29
ATOM     29  O   UNL     1      46.144  21.857  20.217  0.00  0.00    -0.554 OA
ATOM     30  H   UNL     1      46.557  21.829  19.343  0.00  0.00    +0.396 HD
ENDBRANCH  28  29
BRANCH  31  32
ATOM     32  O   UNL     1      44.014  23.761  20.098  0.00  0.00    -0.555 OA
ATOM     33  H   UNL     1      43.627  23.771  20.983  0.00  0.00    +0.395 HD
ENDBRANCH  31  32
BRANCH  34  35
ATOM     35  O   UNL     1      41.716  22.936  18.607  0.00  0.00    -0.551 OA
ATOM     36  H   UNL     1      40.770  22.735  18.585  0.00  0.00    +0.394 HD
ENDBRANCH  34  35
BRANCH  37  38
ATOM     38  C   UNL     1      40.981  20.128  18.760  0.00  0.00    +0.225 C 
BRANCH  38  39
ATOM     39  O   UNL     1      40.273  20.720  19.852  0.00  0.00    -0.565 OA
ATOM     40  H   UNL     1      40.730  21.470  20.257  0.00  0.00    +0.382 HD
ENDBRANCH  38  39
ENDBRANCH  37  38
ENDBRANCH  26  27
ENDBRANCH  25  26
TORSDOF 12
ENDMDL
MODEL 6
REMARK VINA RESULT:      -6.4      1.744      9.924
REMARK  Name = ZINC95486131
REMARK  14 active torsions:
REMARK  status: ('A' for Active; 'I' for Inactive)
REMARK    1  A    between atoms: C1_1  and  O1_2
REMARK    2  A    between atoms: O1_2  and  C2_3
REMARK    3  A    between atoms: C4_5  and  C15_28
REMARK    4  A    between atoms: C6_7  and  O8_26
REMARK    5  A    between atoms: C7_8  and  O2_9
REMARK    6  A    between atoms: O2_9  and  C8_10
REMARK    7  A    between atoms: C9_12  and  O7_25
REMARK    8  A    between atoms: C10_14  and  O6_24
REMARK    9  A    between atoms: C11_16  and  O5_23
REMARK   10  A    between atoms: C12_18  and  C13_21
REMARK   11  A    between atoms: C13_21  and  O4_22
REMARK   12  A    between atoms: O8_26  and  C14_27
REMARK   13  A    between atoms: C19_33  and  O12_40
REMARK   14  A    between atoms: C22_36  and  O11_39
REMARK                            x       y       z     vdW  Elec       q    Type
REMARK                         _______ _______ _______ _____ _____    ______ ____
ROOT
ATOM      3  C   UNL     1      45.446  16.858  19.700  0.00  0.00    +0.154 A 
ATOM      4  C   UNL     1      46.054  15.836  18.995  0.00  0.00    -0.051 A 
ATOM      5  C   UNL     1      47.195  16.099  18.232  0.00  0.00    +0.011 A 
ATOM     21  C   UNL     1      47.717  17.393  18.183  0.00  0.00    -0.054 A 
ATOM     22  C   UNL     1      47.104  18.411  18.890  0.00  0.00    +0.177 A 
ATOM     25  C   UNL     1      45.965  18.149  19.645  0.00  0.00    +0.043 A 
ENDROOT
BRANCH   5   6
ATOM      6  C   UNL     1      47.846  15.010  17.480  0.00  0.00    +0.204 A 
ATOM      7  C   UNL     1      49.187  15.084  17.250  0.00  0.00    -0.139 A 
ATOM      8  C   UNL     1      49.828  14.049  16.531  0.00  0.00    +0.423 A 
ATOM      9  C   UNL     1      48.992  12.929  16.063  0.00  0.00    -0.242 A 
ATOM     10  C   UNL     1      49.541  11.862  15.344  0.00  0.00    +0.194 A 
ATOM     13  C   UNL     1      48.722  10.829  14.923  0.00  0.00    -0.010 A 
ATOM     14  C   UNL     1      47.367  10.851  15.211  0.00  0.00    +0.090 A 
ATOM     15  C   UNL     1      46.812  11.901  15.921  0.00  0.00    +0.078 A 
ATOM     18  C   UNL     1      47.619  12.950  16.353  0.00  0.00    +0.138 A 
ATOM     19  O   UNL     1      51.027  14.083  16.306  0.00  0.00    -0.448 OA
ATOM     20  O   UNL     1      47.098  13.981  17.053  0.00  0.00    -0.209 OA
BRANCH  10  11
ATOM     11  O   UNL     1      50.869  11.839  15.061  0.00  0.00    -0.473 OA
ATOM     12  H   UNL     1      51.437  11.806  15.843  0.00  0.00    +0.402 HD
ENDBRANCH  10  11
BRANCH  15  16
ATOM     16  O   UNL     1      45.480  11.908  16.195  0.00  0.00    -0.479 OA
ATOM     17  H   UNL     1      45.246  11.459  17.018  0.00  0.00    +0.392 HD
ENDBRANCH  15  16
ENDBRANCH   5   6
BRANCH   3   2
ATOM      1  C   UNL     1      44.534  15.984  21.716  0.00  0.00    +0.251 C 
ATOM      2  O   UNL     1      44.335  16.604  20.444  0.00  0.00    -0.299 OA
ENDBRANCH   3   2
BRANCH  22  23
ATOM     23  O   UNL     1      47.612  19.673  18.843  0.00  0.00    -0.278 OA
ATOM     24  C   UNL     1      48.957  19.847  19.295  0.00  0.00    +0.246 C 
ENDBRANCH  22  23
BRANCH  25  26
ATOM     26  O   UNL     1      45.361  19.153  20.335  0.00  0.00    -0.284 OA
BRANCH  26  27
ATOM     27  C   UNL     1      44.629  20.114  19.572  0.00  0.00    +0.294 C 
ATOM     28  C   UNL     1      44.770  21.494  20.219  0.00  0.00    +0.148 C 
ATOM     31  C   UNL     1      43.935  22.507  19.431  0.00  0.00    +0.163 C 
ATOM     34  C   UNL     1      42.480  22.031  19.389  0.00  0.00    +0.170 C 
ATOM     37  C   UNL     1      42.427  20.630  18.773  0.00  0.00    +0.187 C 
ATOM     41  O   UNL     1      43.250  19.745  19.536  0.00  0.00    -0.364 OA
BRANCH  28  29
ATOM     29  O   UNL     1      46.143  21.891  20.205  0.00  0.00    -0.554 OA
ATOM     30  H   UNL     1      46.352  22.560  19.539  0.00  0.00    +0.396 HD
ENDBRANCH  28  29
BRANCH  31  32
ATOM     32  O   UNL     1      44.005  23.784  20.069  0.00  0.00    -0.555 OA
ATOM     33  H   UNL     1      43.939  24.532  19.461  0.00  0.00    +0.395 HD
ENDBRANCH  31  32
BRANCH  34  35
ATOM     35  O   UNL     1      41.706  22.932  18.595  0.00  0.00    -0.551 OA
ATOM     36  H   UNL     1      42.008  23.850  18.634  0.00  0.00    +0.394 HD
ENDBRANCH  34  35
BRANCH  37  38
ATOM     38  C   UNL     1      40.984  20.123  18.783  0.00  0.00    +0.225 C 
BRANCH  38  39
ATOM     39  O   UNL     1      40.261  20.767  19.835  0.00  0.00    -0.565 OA
ATOM     40  H   UNL     1      39.300  20.729  19.732  0.00  0.00    +0.382 HD
ENDBRANCH  38  39
ENDBRANCH  37  38
ENDBRANCH  26  27
ENDBRANCH  25  26
TORSDOF 12
ENDMDL
MODEL 7
REMARK VINA RESULT:      -6.3      0.946      3.070
REMARK  Name = ZINC95486131
REMARK  14 active torsions:
REMARK  status: ('A' for Active; 'I' for Inactive)
REMARK    1  A    between atoms: C1_1  and  O1_2
REMARK    2  A    between atoms: O1_2  and  C2_3
REMARK    3  A    between atoms: C4_5  and  C15_28
REMARK    4  A    between atoms: C6_7  and  O8_26
REMARK    5  A    between atoms: C7_8  and  O2_9
REMARK    6  A    between atoms: O2_9  and  C8_10
REMARK    7  A    between atoms: C9_12  and  O7_25
REMARK    8  A    between atoms: C10_14  and  O6_24
REMARK    9  A    between atoms: C11_16  and  O5_23
REMARK   10  A    between atoms: C12_18  and  C13_21
REMARK   11  A    between atoms: C13_21  and  O4_22
REMARK   12  A    between atoms: O8_26  and  C14_27
REMARK   13  A    between atoms: C19_33  and  O12_40
REMARK   14  A    between atoms: C22_36  and  O11_39
REMARK                            x       y       z     vdW  Elec       q    Type
REMARK                         _______ _______ _______ _____ _____    ______ ____
ROOT
ATOM      3  C   UNL     1      47.003  15.800  18.650  0.00  0.00    +0.154 A 
ATOM      4  C   UNL     1      46.728  17.052  19.169  0.00  0.00    -0.051 A 
ATOM      5  C   UNL     1      47.770  17.955  19.400  0.00  0.00    +0.011 A 
ATOM     21  C   UNL     1      49.086  17.589  19.106  0.00  0.00    -0.054 A 
ATOM     22  C   UNL     1      49.354  16.336  18.588  0.00  0.00    +0.177 A 
ATOM     25  C   UNL     1      48.315  15.436  18.364  0.00  0.00    +0.043 A 
ENDROOT
BRANCH   5   6
ATOM      6  C   UNL     1      47.480  19.291  19.952  0.00  0.00    +0.204 A 
ATOM      7  C   UNL     1      48.368  19.847  20.823  0.00  0.00    -0.139 A 
ATOM      8  C   UNL     1      48.106  21.127  21.362  0.00  0.00    +0.423 A 
ATOM      9  C   UNL     1      46.862  21.799  20.942  0.00  0.00    -0.242 A 
ATOM     10  C   UNL     1      46.521  23.067  21.425  0.00  0.00    +0.194 A 
ATOM     13  C   UNL     1      45.345  23.664  21.006  0.00  0.00    -0.010 A 
ATOM     14  C   UNL     1      44.510  23.010  20.114  0.00  0.00    +0.090 A 
ATOM     15  C   UNL     1      44.836  21.755  19.630  0.00  0.00    +0.078 A 
ATOM     18  C   UNL     1      46.015  21.138  20.040  0.00  0.00    +0.138 A 
ATOM     19  O   UNL     1      48.878  21.655  22.145  0.00  0.00    -0.448 OA
ATOM     20  O   UNL     1      46.354  19.916  19.574  0.00  0.00    -0.209 OA
BRANCH  10  11
ATOM     11  O   UNL     1      47.339  23.709  22.299  0.00  0.00    -0.473 OA
ATOM     12  H   UNL     1      47.574  24.607  22.030  0.00  0.00    +0.402 HD
ENDBRANCH  10  11
BRANCH  15  16
ATOM     16  O   UNL     1      44.006  21.126  18.755  0.00  0.00    -0.479 OA
ATOM     17  H   UNL     1      44.290  21.182  17.834  0.00  0.00    +0.392 HD
ENDBRANCH  15  16
ENDBRANCH   5   6
BRANCH   3   2
ATOM      1  C   UNL     1      45.463  14.232  19.561  0.00  0.00    +0.251 C 
ATOM      2  O   UNL     1      45.989  14.921  18.425  0.00  0.00    -0.299 OA
ENDBRANCH   3   2
BRANCH  22  23
ATOM     23  O   UNL     1      50.635  15.978  18.302  0.00  0.00    -0.278 OA
ATOM     24  C   UNL     1      51.338  16.787  17.356  0.00  0.00    +0.246 C 
ENDBRANCH  22  23
BRANCH  25  26
ATOM     26  O   UNL     1      48.582  14.202  17.860  0.00  0.00    -0.284 OA
BRANCH  26  27
ATOM     27  C   UNL     1      48.742  14.101  16.444  0.00  0.00    +0.294 C 
ATOM     28  C   UNL     1      47.782  13.041  15.896  0.00  0.00    +0.148 C 
ATOM     31  C   UNL     1      48.000  12.895  14.388  0.00  0.00    +0.163 C 
ATOM     34  C   UNL     1      49.467  12.541  14.127  0.00  0.00    +0.170 C 
ATOM     37  C   UNL     1      50.362  13.622  14.742  0.00  0.00    +0.187 C 
ATOM     41  O   UNL     1      50.086  13.727  16.140  0.00  0.00    -0.364 OA
BRANCH  28  29
ATOM     29  O   UNL     1      46.434  13.441  16.149  0.00  0.00    -0.554 OA
ATOM     30  H   UNL     1      46.219  13.528  17.088  0.00  0.00    +0.396 HD
ENDBRANCH  28  29
BRANCH  31  32
ATOM     32  O   UNL     1      47.158  11.858  13.881  0.00  0.00    -0.555 OA
ATOM     33  H   UNL     1      46.607  12.128  13.135  0.00  0.00    +0.395 HD
ENDBRANCH  31  32
BRANCH  34  35
ATOM     35  O   UNL     1      49.699  12.474  12.718  0.00  0.00    -0.551 OA
ATOM     36  H   UNL     1      49.493  13.293  12.247  0.00  0.00    +0.394 HD
ENDBRANCH  34  35
BRANCH  37  38
ATOM     38  C   UNL     1      51.831  13.244  14.537  0.00  0.00    +0.225 C 
BRANCH  38  39
ATOM     39  O   UNL     1      52.249  13.652  13.233  0.00  0.00    -0.565 OA
ATOM     40  H   UNL     1      51.571  14.125  12.732  0.00  0.00    +0.382 HD
ENDBRANCH  38  39
ENDBRANCH  37  38
ENDBRANCH  26  27
ENDBRANCH  25  26
TORSDOF 12
ENDMDL
MODEL 8
REMARK VINA RESULT:      -6.2      1.038      2.260
REMARK  Name = ZINC95486131
REMARK  14 active torsions:
REMARK  status: ('A' for Active; 'I' for Inactive)
REMARK    1  A    between atoms: C1_1  and  O1_2
REMARK    2  A    between atoms: O1_2  and  C2_3
REMARK    3  A    between atoms: C4_5  and  C15_28
REMARK    4  A    between atoms: C6_7  and  O8_26
REMARK    5  A    between atoms: C7_8  and  O2_9
REMARK    6  A    between atoms: O2_9  and  C8_10
REMARK    7  A    between atoms: C9_12  and  O7_25
REMARK    8  A    between atoms: C10_14  and  O6_24
REMARK    9  A    between atoms: C11_16  and  O5_23
REMARK   10  A    between atoms: C12_18  and  C13_21
REMARK   11  A    between atoms: C13_21  and  O4_22
REMARK   12  A    between atoms: O8_26  and  C14_27
REMARK   13  A    between atoms: C19_33  and  O12_40
REMARK   14  A    between atoms: C22_36  and  O11_39
REMARK                            x       y       z     vdW  Elec       q    Type
REMARK                         _______ _______ _______ _____ _____    ______ ____
ROOT
ATOM      3  C   UNL     1      48.245  16.662  18.026  0.00  0.00    +0.154 A 
ATOM      4  C   UNL     1      47.649  17.881  18.294  0.00  0.00    -0.051 A 
ATOM      5  C   UNL     1      46.330  17.925  18.753  0.00  0.00    +0.011 A 
ATOM     21  C   UNL     1      45.618  16.738  18.940  0.00  0.00    -0.054 A 
ATOM     22  C   UNL     1      46.219  15.523  18.671  0.00  0.00    +0.177 A 
ATOM     25  C   UNL     1      47.532  15.481  18.208  0.00  0.00    +0.043 A 
ENDROOT
BRANCH   5   6
ATOM      6  C   UNL     1      45.693  19.224  19.041  0.00  0.00    +0.204 A 
ATOM      7  C   UNL     1      46.439  20.205  19.620  0.00  0.00    -0.139 A 
ATOM      8  C   UNL     1      45.844  21.456  19.903  0.00  0.00    +0.423 A 
ATOM      9  C   UNL     1      44.423  21.628  19.549  0.00  0.00    -0.242 A 
ATOM     10  C   UNL     1      43.753  22.832  19.793  0.00  0.00    +0.194 A 
ATOM     13  C   UNL     1      42.419  22.953  19.445  0.00  0.00    -0.010 A 
ATOM     14  C   UNL     1      41.751  21.890  18.859  0.00  0.00    +0.090 A 
ATOM     15  C   UNL     1      42.404  20.694  18.613  0.00  0.00    +0.078 A 
ATOM     18  C   UNL     1      43.746  20.552  18.956  0.00  0.00    +0.138 A 
ATOM     19  O   UNL     1      46.482  22.358  20.422  0.00  0.00    -0.448 OA
ATOM     20  O   UNL     1      44.402  19.396  18.718  0.00  0.00    -0.209 OA
BRANCH  10  11
ATOM     11  O   UNL     1      44.406  23.874  20.368  0.00  0.00    -0.473 OA
ATOM     12  H   UNL     1      43.836  24.625  20.584  0.00  0.00    +0.402 HD
ENDBRANCH  10  11
BRANCH  15  16
ATOM     16  O   UNL     1      41.734  19.660  18.037  0.00  0.00    -0.479 OA
ATOM     17  H   UNL     1      40.823  19.869  17.792  0.00  0.00    +0.392 HD
ENDBRANCH  15  16
ENDBRANCH   5   6
BRANCH   3   2
ATOM      1  C   UNL     1      50.418  17.631  18.055  0.00  0.00    +0.251 C 
ATOM      2  O   UNL     1      49.529  16.618  17.578  0.00  0.00    -0.299 OA
ENDBRANCH   3   2
BRANCH  22  23
ATOM     23  O   UNL     1      45.526  14.366  18.852  0.00  0.00    -0.278 OA
ATOM     24  C   UNL     1      45.506  13.824  20.175  0.00  0.00    +0.246 C 
ENDBRANCH  22  23
BRANCH  25  26
ATOM     26  O   UNL     1      48.119  14.285  17.937  0.00  0.00    -0.284 OA
BRANCH  26  27
ATOM     27  C   UNL     1      48.415  14.003  16.569  0.00  0.00    +0.294 C 
ATOM     28  C   UNL     1      47.506  12.874  16.072  0.00  0.00    +0.148 C 
ATOM     31  C   UNL     1      47.870  12.537  14.624  0.00  0.00    +0.163 C 
ATOM     34  C   UNL     1      49.353  12.162  14.554  0.00  0.00    +0.170 C 
ATOM     37  C   UNL     1      50.190  13.318  15.109  0.00  0.00    +0.187 C 
ATOM     41  O   UNL     1      49.780  13.601  16.448  0.00  0.00    -0.364 OA
BRANCH  28  29
ATOM     29  O   UNL     1      46.142  13.295  16.138  0.00  0.00    -0.554 OA
ATOM     30  H   UNL     1      46.018  14.247  16.024  0.00  0.00    +0.396 HD
ENDBRANCH  28  29
BRANCH  31  32
ATOM     32  O   UNL     1      47.075  11.437  14.175  0.00  0.00    -0.555 OA
ATOM     33  H   UNL     1      46.560  11.622  13.379  0.00  0.00    +0.395 HD
ENDBRANCH  31  32
BRANCH  34  35
ATOM     35  O   UNL     1      49.720  11.915  13.196  0.00  0.00    -0.551 OA
ATOM     36  H   UNL     1      50.018  11.010  13.028  0.00  0.00    +0.394 HD
ENDBRANCH  34  35
BRANCH  37  38
ATOM     38  C   UNL     1      51.669  12.927  15.099  0.00  0.00    +0.225 C 
BRANCH  38  39
ATOM     39  O   UNL     1      52.242  13.263  13.833  0.00  0.00    -0.565 OA
ATOM     40  H   UNL     1      53.204  13.349  13.847  0.00  0.00    +0.382 HD
ENDBRANCH  38  39
ENDBRANCH  37  38
ENDBRANCH  26  27
ENDBRANCH  25  26
TORSDOF 12
ENDMDL
MODEL 9
REMARK VINA RESULT:      -6.1      1.003      2.246
REMARK  Name = ZINC95486131
REMARK  14 active torsions:
REMARK  status: ('A' for Active; 'I' for Inactive)
REMARK    1  A    between atoms: C1_1  and  O1_2
REMARK    2  A    between atoms: O1_2  and  C2_3
REMARK    3  A    between atoms: C4_5  and  C15_28
REMARK    4  A    between atoms: C6_7  and  O8_26
REMARK    5  A    between atoms: C7_8  and  O2_9
REMARK    6  A    between atoms: O2_9  and  C8_10
REMARK    7  A    between atoms: C9_12  and  O7_25
REMARK    8  A    between atoms: C10_14  and  O6_24
REMARK    9  A    between atoms: C11_16  and  O5_23
REMARK   10  A    between atoms: C12_18  and  C13_21
REMARK   11  A    between atoms: C13_21  and  O4_22
REMARK   12  A    between atoms: O8_26  and  C14_27
REMARK   13  A    between atoms: C19_33  and  O12_40
REMARK   14  A    between atoms: C22_36  and  O11_39
REMARK                            x       y       z     vdW  Elec       q    Type
REMARK                         _______ _______ _______ _____ _____    ______ ____
ROOT
ATOM      3  C   UNL     1      49.484  16.344  18.417  0.00  0.00    +0.154 A 
ATOM      4  C   UNL     1      49.182  17.590  18.936  0.00  0.00    -0.051 A 
ATOM      5  C   UNL     1      47.904  17.842  19.443  0.00  0.00    +0.011 A 
ATOM     21  C   UNL     1      46.937  16.834  19.424  0.00  0.00    -0.054 A 
ATOM     22  C   UNL     1      47.245  15.592  18.903  0.00  0.00    +0.177 A 
ATOM     25  C   UNL     1      48.517  15.344  18.393  0.00  0.00    +0.043 A 
ENDROOT
BRANCH   5   6
ATOM      6  C   UNL     1      47.579  19.169  19.999  0.00  0.00    +0.204 A 
ATOM      7  C   UNL     1      48.430  19.724  20.906  0.00  0.00    -0.139 A 
ATOM      8  C   UNL     1      48.135  20.996  21.450  0.00  0.00    +0.423 A 
ATOM      9  C   UNL     1      46.899  21.658  20.995  0.00  0.00    -0.242 A 
ATOM     10  C   UNL     1      46.527  22.917  21.480  0.00  0.00    +0.194 A 
ATOM     13  C   UNL     1      45.359  23.505  21.026  0.00  0.00    -0.010 A 
ATOM     14  C   UNL     1      44.562  22.852  20.099  0.00  0.00    +0.090 A 
ATOM     15  C   UNL     1      44.920  21.606  19.613  0.00  0.00    +0.078 A 
ATOM     18  C   UNL     1      46.091  20.998  20.056  0.00  0.00    +0.138 A 
ATOM     19  O   UNL     1      48.874  21.523  22.265  0.00  0.00    -0.448 OA
ATOM     20  O   UNL     1      46.460  19.785  19.590  0.00  0.00    -0.209 OA
BRANCH  10  11
ATOM     11  O   UNL     1      47.306  23.557  22.389  0.00  0.00    -0.473 OA
ATOM     12  H   UNL     1      46.869  23.721  23.236  0.00  0.00    +0.402 HD
ENDBRANCH  10  11
BRANCH  15  16
ATOM     16  O   UNL     1      44.128  20.978  18.704  0.00  0.00    -0.479 OA
ATOM     17  H   UNL     1      43.626  21.579  18.137  0.00  0.00    +0.392 HD
ENDBRANCH  15  16
ENDBRANCH   5   6
BRANCH   3   2
ATOM      1  C   UNL     1      51.489  17.228  17.490  0.00  0.00    +0.251 C 
ATOM      2  O   UNL     1      50.728  16.099  17.923  0.00  0.00    -0.299 OA
ENDBRANCH   3   2
BRANCH  22  23
ATOM     23  O   UNL     1      46.303  14.610  18.883  0.00  0.00    -0.278 OA
ATOM     24  C   UNL     1      45.257  14.696  19.854  0.00  0.00    +0.246 C 
ENDBRANCH  22  23
BRANCH  25  26
ATOM     26  O   UNL     1      48.816  14.123  17.876  0.00  0.00    -0.284 OA
BRANCH  26  27
ATOM     27  C   UNL     1      48.893  14.023  16.453  0.00  0.00    +0.294 C 
ATOM     28  C   UNL     1      47.886  12.980  15.959  0.00  0.00    +0.148 C 
ATOM     31  C   UNL     1      48.016  12.836  14.441  0.00  0.00    +0.163 C 
ATOM     34  C   UNL     1      49.459  12.457  14.096  0.00  0.00    +0.170 C 
ATOM     37  C   UNL     1      50.406  13.521  14.662  0.00  0.00    +0.187 C 
ATOM     41  O   UNL     1      50.211  13.627  16.073  0.00  0.00    -0.364 OA
BRANCH  28  29
ATOM     29  O   UNL     1      46.561  13.403  16.289  0.00  0.00    -0.554 OA
ATOM     30  H   UNL     1      46.450  14.363  16.319  0.00  0.00    +0.396 HD
ENDBRANCH  28  29
BRANCH  31  32
ATOM     32  O   UNL     1      47.129  11.814  13.980  0.00  0.00    -0.555 OA
ATOM     33  H   UNL     1      46.630  12.053  13.188  0.00  0.00    +0.395 HD
ENDBRANCH  31  32
BRANCH  34  35
ATOM     35  O   UNL     1      49.610  12.390  12.677  0.00  0.00    -0.551 OA
ATOM     36  H   UNL     1      50.526  12.459  12.375  0.00  0.00    +0.394 HD
ENDBRANCH  34  35
BRANCH  37  38
ATOM     38  C   UNL     1      51.854  13.119  14.374  0.00  0.00    +0.225 C 
BRANCH  38  39
ATOM     39  O   UNL     1      52.303  13.778  13.187  0.00  0.00    -0.565 OA
ATOM     40  H   UNL     1      53.265  13.838  13.111  0.00  0.00    +0.382 HD
ENDBRANCH  38  39
ENDBRANCH  37  38
ENDBRANCH  26  27
ENDBRANCH  25  26
TORSDOF 12
ENDMDL
