MODEL 1
REMARK VINA RESULT:      -5.6      0.000      0.000
REMARK  Name = ZINC95485919
REMARK  6 active torsions:
REMARK  status: ('A' for Active; 'I' for Inactive)
REMARK    1  A    between atoms: C1_1  and  O1_2
REMARK    2  A    between atoms: O1_2  and  C2_3
REMARK    3  A    between atoms: C12_15  and  O5_22
REMARK    4  A    between atoms: C13_16  and  C15_19
REMARK    5  A    between atoms: C14_17  and  O4_18
REMARK    6  A    between atoms: C15_19  and  C16_20
REMARK                            x       y       z     vdW  Elec       q    Type
REMARK                         _______ _______ _______ _____ _____    ______ ____
ROOT
ATOM      3  C   UNL     1      50.023  18.481  18.307  0.00  0.00    +0.103 A 
ATOM      4  C   UNL     1      50.395  19.820  18.359  0.00  0.00    +0.003 A 
ATOM      5  C   UNL     1      49.500  20.786  18.766  0.00  0.00    +0.050 A 
ATOM      6  C   UNL     1      48.205  20.429  19.130  0.00  0.00    +0.116 A 
ATOM      7  C   UNL     1      47.830  19.079  19.072  0.00  0.00    -0.181 A 
ATOM      8  C   UNL     1      46.445  18.715  19.448  0.00  0.00    +0.443 A 
ATOM      9  C   UNL     1      45.497  19.837  19.573  0.00  0.00    -0.267 A 
ATOM     10  C   UNL     1      46.008  21.147  19.600  0.00  0.00    +0.193 A 
ATOM     11  C   UNL     1      45.124  22.211  19.699  0.00  0.00    -0.031 A 
ATOM     12  C   UNL     1      43.759  21.981  19.778  0.00  0.00    +0.196 A 
ATOM     15  C   UNL     1      43.254  20.686  19.762  0.00  0.00    -0.168 A 
ATOM     19  C   UNL     1      44.118  19.608  19.661  0.00  0.00    +0.225 A 
ATOM     22  O   UNL     1      46.109  17.561  19.642  0.00  0.00    -0.429 OA
ATOM     23  O   UNL     1      47.335  21.377  19.535  0.00  0.00    -0.222 OA
ATOM     24  C   UNL     1      48.739  18.107  18.659  0.00  0.00    +0.087 A 
ENDROOT
BRANCH   3   2
ATOM      1  C   UNL     1      51.495  17.705  16.609  0.00  0.00    +0.246 C 
ATOM      2  O   UNL     1      50.919  17.541  17.906  0.00  0.00    -0.311 OA
ENDBRANCH   3   2
BRANCH  12  13
ATOM     13  O   UNL     1      42.906  23.032  19.875  0.00  0.00    -0.484 OA
ATOM     14  H   UNL     1      43.300  23.824  20.266  0.00  0.00    +0.402 HD
ENDBRANCH  12  13
BRANCH  19  20
ATOM     20  O   UNL     1      43.631  18.343  19.647  0.00  0.00    -0.471 OA
ATOM     21  H   UNL     1      43.647  17.924  18.775  0.00  0.00    +0.403 HD
ENDBRANCH  19  20
BRANCH  15  16
ATOM     16  C   UNL     1      41.768  20.453  19.854  0.00  0.00    +0.130 C 
BRANCH  16  17
ATOM     17  C   UNL     1      41.148  20.623  18.491  0.00  0.00    -0.050 C 
ATOM     18  C   UNL     1      40.058  21.336  18.353  0.00  0.00    +0.019 C 
ENDBRANCH  16  17
ENDBRANCH  15  16
TORSDOF 5
ENDMDL
MODEL 2
REMARK VINA RESULT:      -5.5      3.878      4.869
REMARK  Name = ZINC95485919
REMARK  6 active torsions:
REMARK  status: ('A' for Active; 'I' for Inactive)
REMARK    1  A    between atoms: C1_1  and  O1_2
REMARK    2  A    between atoms: O1_2  and  C2_3
REMARK    3  A    between atoms: C12_15  and  O5_22
REMARK    4  A    between atoms: C13_16  and  C15_19
REMARK    5  A    between atoms: C14_17  and  O4_18
REMARK    6  A    between atoms: C15_19  and  C16_20
REMARK                            x       y       z     vdW  Elec       q    Type
REMARK                         _______ _______ _______ _____ _____    ______ ____
ROOT
ATOM      3  C   UNL     1      46.689  12.512  17.538  0.00  0.00    +0.103 A 
ATOM      4  C   UNL     1      47.242  13.225  16.480  0.00  0.00    +0.003 A 
ATOM      5  C   UNL     1      47.222  14.603  16.471  0.00  0.00    +0.050 A 
ATOM      6  C   UNL     1      46.642  15.300  17.526  0.00  0.00    +0.116 A 
ATOM      7  C   UNL     1      46.079  14.580  18.590  0.00  0.00    -0.181 A 
ATOM      8  C   UNL     1      45.452  15.334  19.698  0.00  0.00    +0.443 A 
ATOM      9  C   UNL     1      45.218  16.768  19.449  0.00  0.00    -0.267 A 
ATOM     10  C   UNL     1      45.831  17.363  18.332  0.00  0.00    +0.193 A 
ATOM     11  C   UNL     1      45.603  18.707  18.077  0.00  0.00    -0.031 A 
ATOM     12  C   UNL     1      44.789  19.449  18.919  0.00  0.00    +0.196 A 
ATOM     15  C   UNL     1      44.192  18.864  20.030  0.00  0.00    -0.168 A 
ATOM     19  C   UNL     1      44.403  17.523  20.302  0.00  0.00    +0.225 A 
ATOM     22  O   UNL     1      45.149  14.803  20.752  0.00  0.00    -0.429 OA
ATOM     23  O   UNL     1      46.632  16.649  17.516  0.00  0.00    -0.222 OA
ATOM     24  C   UNL     1      46.102  13.186  18.593  0.00  0.00    +0.087 A 
ENDROOT
BRANCH   3   2
ATOM      1  C   UNL     1      46.322  10.499  16.326  0.00  0.00    +0.246 C 
ATOM      2  O   UNL     1      46.719  11.153  17.533  0.00  0.00    -0.311 OA
ENDBRANCH   3   2
BRANCH  12  13
ATOM     13  O   UNL     1      44.574  20.764  18.659  0.00  0.00    -0.484 OA
ATOM     14  H   UNL     1      43.685  21.070  18.888  0.00  0.00    +0.402 HD
ENDBRANCH  12  13
BRANCH  19  20
ATOM     20  O   UNL     1      43.825  16.947  21.385  0.00  0.00    -0.471 OA
ATOM     21  H   UNL     1      44.416  16.854  22.144  0.00  0.00    +0.403 HD
ENDBRANCH  19  20
BRANCH  15  16
ATOM     16  C   UNL     1      43.315  19.687  20.938  0.00  0.00    +0.130 C 
BRANCH  16  17
ATOM     17  C   UNL     1      41.893  19.640  20.440  0.00  0.00    -0.050 C 
ATOM     18  C   UNL     1      40.997  18.935  21.085  0.00  0.00    +0.019 C 
ENDBRANCH  16  17
ENDBRANCH  15  16
TORSDOF 5
ENDMDL
MODEL 3
REMARK VINA RESULT:      -5.4      3.608      6.662
REMARK  Name = ZINC95485919
REMARK  6 active torsions:
REMARK  status: ('A' for Active; 'I' for Inactive)
REMARK    1  A    between atoms: C1_1  and  O1_2
REMARK    2  A    between atoms: O1_2  and  C2_3
REMARK    3  A    between atoms: C12_15  and  O5_22
REMARK    4  A    between atoms: C13_16  and  C15_19
REMARK    5  A    between atoms: C14_17  and  O4_18
REMARK    6  A    between atoms: C15_19  and  C16_20
REMARK                            x       y       z     vdW  Elec       q    Type
REMARK                         _______ _______ _______ _____ _____    ______ ____
ROOT
ATOM      3  C   UNL     1      45.041  20.839  20.870  0.00  0.00    +0.103 A 
ATOM      4  C   UNL     1      45.564  21.406  19.712  0.00  0.00    +0.003 A 
ATOM      5  C   UNL     1      45.897  20.619  18.631  0.00  0.00    +0.050 A 
ATOM      6  C   UNL     1      45.717  19.241  18.686  0.00  0.00    +0.116 A 
ATOM      7  C   UNL     1      45.195  18.670  19.856  0.00  0.00    -0.181 A 
ATOM      8  C   UNL     1      45.022  17.201  19.908  0.00  0.00    +0.443 A 
ATOM      9  C   UNL     1      45.682  16.438  18.833  0.00  0.00    -0.267 A 
ATOM     10  C   UNL     1      46.179  17.140  17.720  0.00  0.00    +0.193 A 
ATOM     11  C   UNL     1      46.817  16.434  16.711  0.00  0.00    -0.031 A 
ATOM     12  C   UNL     1      46.954  15.057  16.800  0.00  0.00    +0.196 A 
ATOM     15  C   UNL     1      46.454  14.362  17.895  0.00  0.00    -0.168 A 
ATOM     19  C   UNL     1      45.816  15.046  18.915  0.00  0.00    +0.225 A 
ATOM     22  O   UNL     1      44.375  16.656  20.784  0.00  0.00    -0.429 OA
ATOM     23  O   UNL     1      46.038  18.477  17.622  0.00  0.00    -0.222 OA
ATOM     24  C   UNL     1      44.860  19.470  20.947  0.00  0.00    +0.087 A 
ENDROOT
BRANCH   3   2
ATOM      1  C   UNL     1      44.738  23.041  21.713  0.00  0.00    +0.246 C 
ATOM      2  O   UNL     1      44.714  21.628  21.927  0.00  0.00    -0.311 OA
ENDBRANCH   3   2
BRANCH  12  13
ATOM     13  O   UNL     1      47.582  14.379  15.805  0.00  0.00    -0.484 OA
ATOM     14  H   UNL     1      48.476  14.697  15.618  0.00  0.00    +0.402 HD
ENDBRANCH  12  13
BRANCH  19  20
ATOM     20  O   UNL     1      45.324  14.373  19.985  0.00  0.00    -0.471 OA
ATOM     21  H   UNL     1      44.386  14.150  19.913  0.00  0.00    +0.403 HD
ENDBRANCH  19  20
BRANCH  15  16
ATOM     16  C   UNL     1      46.607  12.865  17.973  0.00  0.00    +0.130 C 
BRANCH  16  17
ATOM     17  C   UNL     1      45.480  12.206  17.220  0.00  0.00    -0.050 C 
ATOM     18  C   UNL     1      45.743  11.341  16.272  0.00  0.00    +0.019 C 
ENDBRANCH  16  17
ENDBRANCH  15  16
TORSDOF 5
ENDMDL
MODEL 4
REMARK VINA RESULT:      -5.3      3.748      4.919
REMARK  Name = ZINC95485919
REMARK  6 active torsions:
REMARK  status: ('A' for Active; 'I' for Inactive)
REMARK    1  A    between atoms: C1_1  and  O1_2
REMARK    2  A    between atoms: O1_2  and  C2_3
REMARK    3  A    between atoms: C12_15  and  O5_22
REMARK    4  A    between atoms: C13_16  and  C15_19
REMARK    5  A    between atoms: C14_17  and  O4_18
REMARK    6  A    between atoms: C15_19  and  C16_20
REMARK                            x       y       z     vdW  Elec       q    Type
REMARK                         _______ _______ _______ _____ _____    ______ ____
ROOT
ATOM      3  C   UNL     1      47.728  13.386  20.933  0.00  0.00    +0.103 A 
ATOM      4  C   UNL     1      47.068  13.049  22.110  0.00  0.00    +0.003 A 
ATOM      5  C   UNL     1      45.938  13.732  22.505  0.00  0.00    +0.050 A 
ATOM      6  C   UNL     1      45.444  14.774  21.728  0.00  0.00    +0.116 A 
ATOM      7  C   UNL     1      46.113  15.117  20.545  0.00  0.00    -0.181 A 
ATOM      8  C   UNL     1      45.586  16.238  19.735  0.00  0.00    +0.443 A 
ATOM      9  C   UNL     1      44.571  17.083  20.391  0.00  0.00    -0.267 A 
ATOM     10  C   UNL     1      43.990  16.626  21.588  0.00  0.00    +0.193 A 
ATOM     11  C   UNL     1      43.048  17.421  22.222  0.00  0.00    -0.031 A 
ATOM     12  C   UNL     1      42.681  18.642  21.677  0.00  0.00    +0.196 A 
ATOM     15  C   UNL     1      43.248  19.089  20.489  0.00  0.00    -0.168 A 
ATOM     19  C   UNL     1      44.192  18.314  19.839  0.00  0.00    +0.225 A 
ATOM     22  O   UNL     1      45.966  16.450  18.597  0.00  0.00    -0.429 OA
ATOM     23  O   UNL     1      44.333  15.435  22.116  0.00  0.00    -0.222 OA
ATOM     24  C   UNL     1      47.256  14.423  20.150  0.00  0.00    +0.087 A 
ENDROOT
BRANCH   3   2
ATOM      1  C   UNL     1      48.741  11.910  19.368  0.00  0.00    +0.246 C 
ATOM      2  O   UNL     1      48.839  12.700  20.555  0.00  0.00    -0.311 OA
ENDBRANCH   3   2
BRANCH  12  13
ATOM     13  O   UNL     1      41.758  19.410  22.309  0.00  0.00    -0.484 OA
ATOM     14  H   UNL     1      41.924  20.361  22.240  0.00  0.00    +0.402 HD
ENDBRANCH  12  13
BRANCH  19  20
ATOM     20  O   UNL     1      44.747  18.743  18.678  0.00  0.00    -0.471 OA
ATOM     21  H   UNL     1      44.742  18.083  17.971  0.00  0.00    +0.403 HD
ENDBRANCH  19  20
BRANCH  15  16
ATOM     16  C   UNL     1      42.834  20.416  19.907  0.00  0.00    +0.130 C 
BRANCH  16  17
ATOM     17  C   UNL     1      41.684  20.210  18.955  0.00  0.00    -0.050 C 
ATOM     18  C   UNL     1      40.524  20.766  19.201  0.00  0.00    +0.019 C 
ENDBRANCH  16  17
ENDBRANCH  15  16
TORSDOF 5
ENDMDL
MODEL 5
REMARK VINA RESULT:      -5.2      3.239      7.396
REMARK  Name = ZINC95485919
REMARK  6 active torsions:
REMARK  status: ('A' for Active; 'I' for Inactive)
REMARK    1  A    between atoms: C1_1  and  O1_2
REMARK    2  A    between atoms: O1_2  and  C2_3
REMARK    3  A    between atoms: C12_15  and  O5_22
REMARK    4  A    between atoms: C13_16  and  C15_19
REMARK    5  A    between atoms: C14_17  and  O4_18
REMARK    6  A    between atoms: C15_19  and  C16_20
REMARK                            x       y       z     vdW  Elec       q    Type
REMARK                         _______ _______ _______ _____ _____    ______ ____
ROOT
ATOM      3  C   UNL     1      43.588  20.511  19.754  0.00  0.00    +0.103 A 
ATOM      4  C   UNL     1      43.076  19.743  20.795  0.00  0.00    +0.003 A 
ATOM      5  C   UNL     1      43.477  18.437  20.970  0.00  0.00    +0.050 A 
ATOM      6  C   UNL     1      44.402  17.867  20.101  0.00  0.00    +0.116 A 
ATOM      7  C   UNL     1      44.913  18.640  19.049  0.00  0.00    -0.181 A 
ATOM      8  C   UNL     1      45.885  18.017  18.123  0.00  0.00    +0.443 A 
ATOM      9  C   UNL     1      46.012  16.551  18.216  0.00  0.00    -0.267 A 
ATOM     10  C   UNL     1      45.434  15.896  19.318  0.00  0.00    +0.193 A 
ATOM     11  C   UNL     1      45.532  14.516  19.406  0.00  0.00    -0.031 A 
ATOM     12  C   UNL     1      46.198  13.798  18.423  0.00  0.00    +0.196 A 
ATOM     15  C   UNL     1      46.778  14.447  17.339  0.00  0.00    -0.168 A 
ATOM     19  C   UNL     1      46.690  15.824  17.229  0.00  0.00    +0.225 A 
ATOM     22  O   UNL     1      46.539  18.674  17.334  0.00  0.00    -0.429 OA
ATOM     23  O   UNL     1      44.796  16.589  20.282  0.00  0.00    -0.222 OA
ATOM     24  C   UNL     1      44.503  19.961  18.876  0.00  0.00    +0.087 A 
ENDROOT
BRANCH   3   2
ATOM      1  C   UNL     1      44.122  22.820  19.946  0.00  0.00    +0.246 C 
ATOM      2  O   UNL     1      43.184  21.800  19.597  0.00  0.00    -0.311 OA
ENDBRANCH   3   2
BRANCH  12  13
ATOM     13  O   UNL     1      46.286  12.448  18.522  0.00  0.00    -0.484 OA
ATOM     14  H   UNL     1      45.560  11.974  18.092  0.00  0.00    +0.402 HD
ENDBRANCH  12  13
BRANCH  19  20
ATOM     20  O   UNL     1      47.256  16.462  16.175  0.00  0.00    -0.471 OA
ATOM     21  H   UNL     1      48.198  16.651  16.288  0.00  0.00    +0.403 HD
ENDBRANCH  19  20
BRANCH  15  16
ATOM     16  C   UNL     1      47.502  13.652  16.283  0.00  0.00    +0.130 C 
BRANCH  16  17
ATOM     17  C   UNL     1      48.968  13.582  16.626  0.00  0.00    -0.050 C 
ATOM     18  C   UNL     1      49.850  13.364  15.682  0.00  0.00    +0.019 C 
ENDBRANCH  16  17
ENDBRANCH  15  16
TORSDOF 5
ENDMDL
MODEL 6
REMARK VINA RESULT:      -5.1      4.198      8.278
REMARK  Name = ZINC95485919
REMARK  6 active torsions:
REMARK  status: ('A' for Active; 'I' for Inactive)
REMARK    1  A    between atoms: C1_1  and  O1_2
REMARK    2  A    between atoms: O1_2  and  C2_3
REMARK    3  A    between atoms: C12_15  and  O5_22
REMARK    4  A    between atoms: C13_16  and  C15_19
REMARK    5  A    between atoms: C14_17  and  O4_18
REMARK    6  A    between atoms: C15_19  and  C16_20
REMARK                            x       y       z     vdW  Elec       q    Type
REMARK                         _______ _______ _______ _____ _____    ______ ____
ROOT
ATOM      3  C   UNL     1      43.618  18.053  21.140  0.00  0.00    +0.103 A 
ATOM      4  C   UNL     1      43.671  17.072  22.125  0.00  0.00    +0.003 A 
ATOM      5  C   UNL     1      44.412  15.925  21.938  0.00  0.00    +0.050 A 
ATOM      6  C   UNL     1      45.116  15.733  20.754  0.00  0.00    +0.116 A 
ATOM      7  C   UNL     1      45.056  16.720  19.759  0.00  0.00    -0.181 A 
ATOM      8  C   UNL     1      45.798  16.496  18.498  0.00  0.00    +0.443 A 
ATOM      9  C   UNL     1      46.300  15.127  18.282  0.00  0.00    -0.267 A 
ATOM     10  C   UNL     1      46.286  14.229  19.364  0.00  0.00    +0.193 A 
ATOM     11  C   UNL     1      46.739  12.933  19.168  0.00  0.00    -0.031 A 
ATOM     12  C   UNL     1      47.205  12.536  17.923  0.00  0.00    +0.196 A 
ATOM     15  C   UNL     1      47.229  13.427  16.856  0.00  0.00    -0.168 A 
ATOM     19  C   UNL     1      46.779  14.725  17.028  0.00  0.00    +0.225 A 
ATOM     22  O   UNL     1      45.983  17.387  17.689  0.00  0.00    -0.429 OA
ATOM     23  O   UNL     1      45.845  14.611  20.579  0.00  0.00    -0.222 OA
ATOM     24  C   UNL     1      44.305  17.878  19.953  0.00  0.00    +0.087 A 
ENDROOT
BRANCH   3   2
ATOM      1  C   UNL     1      41.492  19.114  21.028  0.00  0.00    +0.246 C 
ATOM      2  O   UNL     1      42.885  19.180  21.341  0.00  0.00    -0.311 OA
ENDBRANCH   3   2
BRANCH  12  13
ATOM     13  O   UNL     1      47.645  11.265  17.745  0.00  0.00    -0.484 OA
ATOM     14  H   UNL     1      48.202  10.937  18.466  0.00  0.00    +0.402 HD
ENDBRANCH  12  13
BRANCH  19  20
ATOM     20  O   UNL     1      46.802  15.598  15.992  0.00  0.00    -0.471 OA
ATOM     21  H   UNL     1      46.827  16.528  16.260  0.00  0.00    +0.403 HD
ENDBRANCH  19  20
BRANCH  15  16
ATOM     16  C   UNL     1      47.744  12.981  15.512  0.00  0.00    +0.130 C 
BRANCH  16  17
ATOM     17  C   UNL     1      49.237  13.178  15.456  0.00  0.00    -0.050 C 
ATOM     18  C   UNL     1      49.904  12.823  14.387  0.00  0.00    +0.019 C 
ENDBRANCH  16  17
ENDBRANCH  15  16
TORSDOF 5
ENDMDL
MODEL 7
REMARK VINA RESULT:      -5.0      1.412      6.884
REMARK  Name = ZINC95485919
REMARK  6 active torsions:
REMARK  status: ('A' for Active; 'I' for Inactive)
REMARK    1  A    between atoms: C1_1  and  O1_2
REMARK    2  A    between atoms: O1_2  and  C2_3
REMARK    3  A    between atoms: C12_15  and  O5_22
REMARK    4  A    between atoms: C13_16  and  C15_19
REMARK    5  A    between atoms: C14_17  and  O4_18
REMARK    6  A    between atoms: C15_19  and  C16_20
REMARK                            x       y       z     vdW  Elec       q    Type
REMARK                         _______ _______ _______ _____ _____    ______ ____
ROOT
ATOM      3  C   UNL     1      42.957  20.689  19.100  0.00  0.00    +0.103 A 
ATOM      4  C   UNL     1      43.425  21.885  19.636  0.00  0.00    +0.003 A 
ATOM      5  C   UNL     1      44.777  22.132  19.734  0.00  0.00    +0.050 A 
ATOM      6  C   UNL     1      45.695  21.182  19.299  0.00  0.00    +0.116 A 
ATOM      7  C   UNL     1      45.223  19.974  18.765  0.00  0.00    -0.181 A 
ATOM      8  C   UNL     1      46.210  18.966  18.319  0.00  0.00    +0.443 A 
ATOM      9  C   UNL     1      47.603  19.200  18.742  0.00  0.00    -0.267 A 
ATOM     10  C   UNL     1      47.938  20.455  19.281  0.00  0.00    +0.193 A 
ATOM     11  C   UNL     1      49.242  20.679  19.699  0.00  0.00    -0.031 A 
ATOM     12  C   UNL     1      50.197  19.682  19.578  0.00  0.00    +0.196 A 
ATOM     15  C   UNL     1      49.867  18.444  19.035  0.00  0.00    -0.168 A 
ATOM     19  C   UNL     1      48.573  18.197  18.614  0.00  0.00    +0.225 A 
ATOM     22  O   UNL     1      45.892  18.003  17.645  0.00  0.00    -0.429 OA
ATOM     23  O   UNL     1      47.017  21.433  19.391  0.00  0.00    -0.222 OA
ATOM     24  C   UNL     1      43.854  19.729  18.668  0.00  0.00    +0.087 A 
ENDROOT
BRANCH   3   2
ATOM      1  C   UNL     1      40.795  21.576  18.663  0.00  0.00    +0.246 C 
ATOM      2  O   UNL     1      41.621  20.461  19.007  0.00  0.00    -0.311 OA
ENDBRANCH   3   2
BRANCH  12  13
ATOM     13  O   UNL     1      51.468  19.915  19.991  0.00  0.00    -0.484 OA
ATOM     14  H   UNL     1      51.718  20.850  19.983  0.00  0.00    +0.402 HD
ENDBRANCH  12  13
BRANCH  19  20
ATOM     20  O   UNL     1      48.246  16.993  18.082  0.00  0.00    -0.471 OA
ATOM     21  H   UNL     1      48.429  16.242  18.665  0.00  0.00    +0.403 HD
ENDBRANCH  19  20
BRANCH  15  16
ATOM     16  C   UNL     1      50.919  17.373  18.906  0.00  0.00    +0.130 C 
BRANCH  16  17
ATOM     17  C   UNL     1      51.655  17.548  17.602  0.00  0.00    -0.050 C 
ATOM     18  C   UNL     1      51.639  16.591  16.708  0.00  0.00    +0.019 C 
ENDBRANCH  16  17
ENDBRANCH  15  16
TORSDOF 5
ENDMDL
MODEL 8
REMARK VINA RESULT:      -5.0      1.821      2.957
REMARK  Name = ZINC95485919
REMARK  6 active torsions:
REMARK  status: ('A' for Active; 'I' for Inactive)
REMARK    1  A    between atoms: C1_1  and  O1_2
REMARK    2  A    between atoms: O1_2  and  C2_3
REMARK    3  A    between atoms: C12_15  and  O5_22
REMARK    4  A    between atoms: C13_16  and  C15_19
REMARK    5  A    between atoms: C14_17  and  O4_18
REMARK    6  A    between atoms: C15_19  and  C16_20
REMARK                            x       y       z     vdW  Elec       q    Type
REMARK                         _______ _______ _______ _____ _____    ______ ____
ROOT
ATOM      3  C   UNL     1      49.824  20.204  19.614  0.00  0.00    +0.103 A 
ATOM      4  C   UNL     1      49.913  19.032  20.358  0.00  0.00    +0.003 A 
ATOM      5  C   UNL     1      48.781  18.321  20.692  0.00  0.00    +0.050 A 
ATOM      6  C   UNL     1      47.528  18.772  20.288  0.00  0.00    +0.116 A 
ATOM      7  C   UNL     1      47.439  19.956  19.543  0.00  0.00    -0.181 A 
ATOM      8  C   UNL     1      46.099  20.432  19.133  0.00  0.00    +0.443 A 
ATOM      9  C   UNL     1      44.955  19.774  19.789  0.00  0.00    -0.267 A 
ATOM     10  C   UNL     1      45.188  18.598  20.524  0.00  0.00    +0.193 A 
ATOM     11  C   UNL     1      44.121  17.981  21.161  0.00  0.00    -0.031 A 
ATOM     12  C   UNL     1      42.846  18.516  21.064  0.00  0.00    +0.196 A 
ATOM     15  C   UNL     1      42.613  19.673  20.329  0.00  0.00    -0.168 A 
ATOM     19  C   UNL     1      43.662  20.307  19.687  0.00  0.00    +0.225 A 
ATOM     22  O   UNL     1      45.951  21.312  18.304  0.00  0.00    -0.429 OA
ATOM     23  O   UNL     1      46.424  18.067  20.612  0.00  0.00    -0.222 OA
ATOM     24  C   UNL     1      48.587  20.672  19.209  0.00  0.00    +0.087 A 
ENDROOT
BRANCH   3   2
ATOM      1  C   UNL     1      51.855  21.193  20.354  0.00  0.00    +0.246 C 
ATOM      2  O   UNL     1      50.950  20.892  19.290  0.00  0.00    -0.311 OA
ENDBRANCH   3   2
BRANCH  12  13
ATOM     13  O   UNL     1      41.811  17.902  21.693  0.00  0.00    -0.484 OA
ATOM     14  H   UNL     1      41.760  16.950  21.526  0.00  0.00    +0.402 HD
ENDBRANCH  12  13
BRANCH  19  20
ATOM     20  O   UNL     1      43.441  21.435  18.968  0.00  0.00    -0.471 OA
ATOM     21  H   UNL     1      43.241  22.213  19.506  0.00  0.00    +0.403 HD
ENDBRANCH  19  20
BRANCH  15  16
ATOM     16  C   UNL     1      41.219  20.237  20.231  0.00  0.00    +0.130 C 
BRANCH  16  17
ATOM     17  C   UNL     1      40.708  20.067  18.823  0.00  0.00    -0.050 C 
ATOM     18  C   UNL     1      39.970  21.002  18.278  0.00  0.00    +0.019 C 
ENDBRANCH  16  17
ENDBRANCH  15  16
TORSDOF 5
ENDMDL
MODEL 9
REMARK VINA RESULT:      -5.0      2.056      2.445
REMARK  Name = ZINC95485919
REMARK  6 active torsions:
REMARK  status: ('A' for Active; 'I' for Inactive)
REMARK    1  A    between atoms: C1_1  and  O1_2
REMARK    2  A    between atoms: O1_2  and  C2_3
REMARK    3  A    between atoms: C12_15  and  O5_22
REMARK    4  A    between atoms: C13_16  and  C15_19
REMARK    5  A    between atoms: C14_17  and  O4_18
REMARK    6  A    between atoms: C15_19  and  C16_20
REMARK                            x       y       z     vdW  Elec       q    Type
REMARK                         _______ _______ _______ _____ _____    ______ ____
ROOT
ATOM      3  C   UNL     1      48.516  15.210  17.602  0.00  0.00    +0.103 A 
ATOM      4  C   UNL     1      49.432  16.197  17.253  0.00  0.00    +0.003 A 
ATOM      5  C   UNL     1      49.178  17.524  17.528  0.00  0.00    +0.050 A 
ATOM      6  C   UNL     1      47.993  17.892  18.159  0.00  0.00    +0.116 A 
ATOM      7  C   UNL     1      47.068  16.896  18.504  0.00  0.00    -0.181 A 
ATOM      8  C   UNL     1      45.806  17.303  19.161  0.00  0.00    +0.443 A 
ATOM      9  C   UNL     1      45.504  18.746  19.134  0.00  0.00    -0.267 A 
ATOM     10  C   UNL     1      46.521  19.637  18.749  0.00  0.00    +0.193 A 
ATOM     11  C   UNL     1      46.242  20.995  18.702  0.00  0.00    -0.031 A 
ATOM     12  C   UNL     1      44.980  21.462  19.039  0.00  0.00    +0.196 A 
ATOM     15  C   UNL     1      43.978  20.581  19.429  0.00  0.00    -0.168 A 
ATOM     19  C   UNL     1      44.232  19.222  19.481  0.00  0.00    +0.225 A 
ATOM     22  O   UNL     1      45.064  16.497  19.692  0.00  0.00    -0.429 OA
ATOM     23  O   UNL     1      47.753  19.191  18.432  0.00  0.00    -0.222 OA
ATOM     24  C   UNL     1      47.331  15.557  18.224  0.00  0.00    +0.087 A 
ENDROOT
BRANCH   3   2
ATOM      1  C   UNL     1      49.299  13.609  16.027  0.00  0.00    +0.246 C 
ATOM      2  O   UNL     1      48.784  13.906  17.327  0.00  0.00    -0.311 OA
ENDBRANCH   3   2
BRANCH  12  13
ATOM     13  O   UNL     1      44.721  22.793  18.989  0.00  0.00    -0.484 OA
ATOM     14  H   UNL     1      44.338  23.149  19.802  0.00  0.00    +0.402 HD
ENDBRANCH  12  13
BRANCH  19  20
ATOM     20  O   UNL     1      43.259  18.359  19.863  0.00  0.00    -0.471 OA
ATOM     21  H   UNL     1      43.589  17.557  20.293  0.00  0.00    +0.403 HD
ENDBRANCH  19  20
BRANCH  15  16
ATOM     16  C   UNL     1      42.614  21.106  19.797  0.00  0.00    +0.130 C 
BRANCH  16  17
ATOM     17  C   UNL     1      41.721  21.077  18.583  0.00  0.00    -0.050 C 
ATOM     18  C   UNL     1      40.474  21.466  18.679  0.00  0.00    +0.019 C 
ENDBRANCH  16  17
ENDBRANCH  15  16
TORSDOF 5
ENDMDL
