MODEL 1
REMARK VINA RESULT:      -6.7      0.000      0.000
REMARK  Name = ZINC95486301
REMARK  5 active torsions:
REMARK  status: ('A' for Active; 'I' for Inactive)
REMARK    1  A    between atoms: C1_1  and  C2_2
REMARK    2  A    between atoms: C11_12  and  O3_31
REMARK    3  A    between atoms: C15_16  and  C24_30
REMARK    4  A    between atoms: C20_24  and  C22_27
REMARK    5  A    between atoms: C22_27  and  C23_29
REMARK                            x       y       z     vdW  Elec       q    Type
REMARK                         _______ _______ _______ _____ _____    ______ ____
ROOT
ATOM      1  C   UNL     1      49.968  19.325  20.106  0.00  0.00    +0.090 C 
ATOM      2  C   UNL     1      49.149  18.182  19.563  0.00  0.00    +0.056 C 
ATOM      3  C   UNL     1      48.104  17.744  20.234  0.00  0.00    -0.189 C 
ATOM      4  C   UNL     1      47.386  16.467  19.837  0.00  0.00    +0.312 C 
ATOM      5  N   UNL     1      45.932  16.629  19.947  0.00  0.00    -0.363 N 
ATOM      6  H   UNL     1      45.525  15.683  19.866  0.00  0.00    +0.429 HD
ATOM      7  C   UNL     1      45.460  17.390  18.793  0.00  0.00    +0.253 C 
ATOM      8  C   UNL     1      45.896  18.850  18.895  0.00  0.00    +0.095 C 
ATOM      9  C   UNL     1      45.553  19.430  20.236  0.00  0.00    -0.048 C 
ATOM     10  C   UNL     1      44.820  20.761  20.080  0.00  0.00    +0.110 C 
ATOM     11  C   UNL     1      43.372  20.588  19.727  0.00  0.00    -0.055 A 
ATOM     12  C   UNL     1      42.718  21.665  19.142  0.00  0.00    -0.014 A 
ATOM     13  C   UNL     1      41.384  21.569  18.788  0.00  0.00    +0.122 A 
ATOM     16  C   UNL     1      40.700  20.383  19.012  0.00  0.00    -0.006 A 
ATOM     17  C   UNL     1      41.353  19.318  19.593  0.00  0.00    +0.036 A 
ATOM     18  C   UNL     1      42.688  19.420  19.971  0.00  0.00    -0.092 A 
ATOM     19  C   UNL     1      43.321  18.246  20.657  0.00  0.00    +0.050 C 
ATOM     20  C   UNL     1      42.472  17.915  21.894  0.00  0.00    +0.058 C 
ATOM     21  C   UNL     1      46.752  19.682  21.178  0.00  0.00    -0.131 C 
ATOM     25  C   UNL     1      45.946  19.941  22.499  0.00  0.00    +0.238 C 
ATOM     26  O   UNL     1      44.778  19.105  22.420  0.00  0.00    -0.332 OA
ATOM     27  C   UNL     1      44.732  18.479  21.120  0.00  0.00    +0.134 C 
ATOM     28  C   UNL     1      45.496  17.150  21.229  0.00  0.00    +0.146 C 
ATOM     29  C   UNL     1      46.688  17.386  22.167  0.00  0.00    +0.092 C 
ATOM     30  C   UNL     1      47.580  18.438  21.472  0.00  0.00    +0.078 C 
ENDROOT
BRANCH  21  22
ATOM     22  C   UNL     1      47.592  20.874  20.787  0.00  0.00    +0.380 C 
ATOM     23  C   UNL     1      48.238  21.722  21.851  0.00  0.00    +0.076 C 
ATOM     24  O   UNL     1      47.746  21.147  19.620  0.00  0.00    -0.428 OA
ENDBRANCH  21  22
BRANCH  13  14
ATOM     14  O   UNL     1      40.747  22.630  18.227  0.00  0.00    -0.496 OA
ATOM     15  H   UNL     1      41.335  23.353  17.970  0.00  0.00    +0.397 HD
ENDBRANCH  13  14
TORSDOF 2
ENDMDL
MODEL 2
REMARK VINA RESULT:      -6.3      4.390      6.863
REMARK  Name = ZINC95486301
REMARK  5 active torsions:
REMARK  status: ('A' for Active; 'I' for Inactive)
REMARK    1  A    between atoms: C1_1  and  C2_2
REMARK    2  A    between atoms: C11_12  and  O3_31
REMARK    3  A    between atoms: C15_16  and  C24_30
REMARK    4  A    between atoms: C20_24  and  C22_27
REMARK    5  A    between atoms: C22_27  and  C23_29
REMARK                            x       y       z     vdW  Elec       q    Type
REMARK                         _______ _______ _______ _____ _____    ______ ____
ROOT
ATOM      1  C   UNL     1      47.490  12.694  17.038  0.00  0.00    +0.090 C 
ATOM      2  C   UNL     1      46.562  13.844  17.337  0.00  0.00    +0.056 C 
ATOM      3  C   UNL     1      46.814  14.647  18.350  0.00  0.00    -0.189 C 
ATOM      4  C   UNL     1      45.799  15.676  18.814  0.00  0.00    +0.312 C 
ATOM      5  N   UNL     1      46.458  16.944  19.149  0.00  0.00    -0.363 N 
ATOM      6  H   UNL     1      45.755  17.517  19.644  0.00  0.00    +0.429 HD
ATOM      7  C   UNL     1      46.773  17.646  17.907  0.00  0.00    +0.253 C 
ATOM      8  C   UNL     1      47.911  16.946  17.166  0.00  0.00    +0.095 C 
ATOM      9  C   UNL     1      49.075  16.686  18.076  0.00  0.00    -0.048 C 
ATOM     10  C   UNL     1      50.377  17.174  17.442  0.00  0.00    +0.110 C 
ATOM     11  C   UNL     1      50.556  18.659  17.555  0.00  0.00    -0.055 A 
ATOM     12  C   UNL     1      51.437  19.272  16.672  0.00  0.00    -0.014 A 
ATOM     13  C   UNL     1      51.643  20.638  16.720  0.00  0.00    +0.122 A 
ATOM     16  C   UNL     1      50.955  21.402  17.653  0.00  0.00    -0.006 A 
ATOM     17  C   UNL     1      50.083  20.790  18.527  0.00  0.00    +0.036 A 
ATOM     18  C   UNL     1      49.892  19.413  18.495  0.00  0.00    -0.092 A 
ATOM     19  C   UNL     1      48.978  18.802  19.516  0.00  0.00    +0.050 C 
ATOM     20  C   UNL     1      49.493  19.207  20.906  0.00  0.00    +0.058 C 
ATOM     21  C   UNL     1      49.292  15.208  18.472  0.00  0.00    -0.131 C 
ATOM     25  C   UNL     1      50.329  15.437  19.628  0.00  0.00    +0.238 C 
ATOM     26  O   UNL     1      49.969  16.689  20.238  0.00  0.00    -0.332 OA
ATOM     27  C   UNL     1      48.908  17.300  19.473  0.00  0.00    +0.134 C 
ATOM     28  C   UNL     1      47.578  16.800  20.059  0.00  0.00    +0.146 C 
ATOM     29  C   UNL     1      47.782  15.333  20.462  0.00  0.00    +0.092 C 
ATOM     30  C   UNL     1      48.091  14.568  19.156  0.00  0.00    +0.078 C 
ENDROOT
BRANCH  21  22
ATOM     22  C   UNL     1      49.864  14.358  17.362  0.00  0.00    +0.380 C 
ATOM     23  C   UNL     1      50.802  13.226  17.687  0.00  0.00    +0.076 C 
ATOM     24  O   UNL     1      49.568  14.588  16.214  0.00  0.00    -0.428 OA
ENDBRANCH  21  22
BRANCH  13  14
ATOM     14  O   UNL     1      52.514  21.230  15.862  0.00  0.00    -0.496 OA
ATOM     15  H   UNL     1      53.444  21.081  16.080  0.00  0.00    +0.397 HD
ENDBRANCH  13  14
TORSDOF 2
ENDMDL
MODEL 3
REMARK VINA RESULT:      -6.2      2.168      6.127
REMARK  Name = ZINC95486301
REMARK  5 active torsions:
REMARK  status: ('A' for Active; 'I' for Inactive)
REMARK    1  A    between atoms: C1_1  and  C2_2
REMARK    2  A    between atoms: C11_12  and  O3_31
REMARK    3  A    between atoms: C15_16  and  C24_30
REMARK    4  A    between atoms: C20_24  and  C22_27
REMARK    5  A    between atoms: C22_27  and  C23_29
REMARK                            x       y       z     vdW  Elec       q    Type
REMARK                         _______ _______ _______ _____ _____    ______ ____
ROOT
ATOM      1  C   UNL     1      43.307  18.080  21.423  0.00  0.00    +0.090 C 
ATOM      2  C   UNL     1      44.373  17.105  21.853  0.00  0.00    +0.056 C 
ATOM      3  C   UNL     1      45.156  16.548  20.953  0.00  0.00    -0.189 C 
ATOM      4  C   UNL     1      46.090  15.407  21.315  0.00  0.00    +0.312 C 
ATOM      5  N   UNL     1      47.391  15.568  20.656  0.00  0.00    -0.363 N 
ATOM      6  H   UNL     1      47.892  14.673  20.775  0.00  0.00    +0.429 HD
ATOM      7  C   UNL     1      48.157  16.578  21.382  0.00  0.00    +0.253 C 
ATOM      8  C   UNL     1      47.571  17.969  21.150  0.00  0.00    +0.095 C 
ATOM      9  C   UNL     1      47.367  18.239  19.688  0.00  0.00    -0.048 C 
ATOM     10  C   UNL     1      47.973  19.585  19.295  0.00  0.00    +0.110 C 
ATOM     11  C   UNL     1      49.463  19.524  19.128  0.00  0.00    -0.055 A 
ATOM     12  C   UNL     1      50.169  20.718  19.206  0.00  0.00    -0.014 A 
ATOM     13  C   UNL     1      51.545  20.730  19.065  0.00  0.00    +0.122 A 
ATOM     16  C   UNL     1      52.222  19.537  18.855  0.00  0.00    -0.006 A 
ATOM     17  C   UNL     1      51.517  18.356  18.778  0.00  0.00    +0.036 A 
ATOM     18  C   UNL     1      50.131  18.345  18.896  0.00  0.00    -0.092 A 
ATOM     19  C   UNL     1      49.418  17.034  18.738  0.00  0.00    +0.050 C 
ATOM     20  C   UNL     1      49.812  16.449  17.373  0.00  0.00    +0.058 C 
ATOM     21  C   UNL     1      45.896  18.249  19.212  0.00  0.00    -0.131 C 
ATOM     25  C   UNL     1      46.162  18.220  17.667  0.00  0.00    +0.238 C 
ATOM     26  O   UNL     1      47.361  17.446  17.486  0.00  0.00    -0.332 OA
ATOM     27  C   UNL     1      47.918  17.129  18.780  0.00  0.00    +0.134 C 
ATOM     28  C   UNL     1      47.300  15.795  19.226  0.00  0.00    +0.146 C 
ATOM     29  C   UNL     1      45.839  15.791  18.756  0.00  0.00    +0.092 C 
ATOM     30  C   UNL     1      45.145  16.955  19.497  0.00  0.00    +0.078 C 
ENDROOT
BRANCH  21  22
ATOM     22  C   UNL     1      45.131  19.482  19.630  0.00  0.00    +0.380 C 
ATOM     23  C   UNL     1      44.028  20.017  18.756  0.00  0.00    +0.076 C 
ATOM     24  O   UNL     1      45.404  20.039  20.667  0.00  0.00    -0.428 OA
ENDBRANCH  21  22
BRANCH  13  14
ATOM     14  O   UNL     1      52.230  21.901  19.130  0.00  0.00    -0.496 OA
ATOM     15  H   UNL     1      51.982  22.541  18.450  0.00  0.00    +0.397 HD
ENDBRANCH  13  14
TORSDOF 2
ENDMDL
MODEL 4
REMARK VINA RESULT:      -6.2      3.201      6.481
REMARK  Name = ZINC95486301
REMARK  5 active torsions:
REMARK  status: ('A' for Active; 'I' for Inactive)
REMARK    1  A    between atoms: C1_1  and  C2_2
REMARK    2  A    between atoms: C11_12  and  O3_31
REMARK    3  A    between atoms: C15_16  and  C24_30
REMARK    4  A    between atoms: C20_24  and  C22_27
REMARK    5  A    between atoms: C22_27  and  C23_29
REMARK                            x       y       z     vdW  Elec       q    Type
REMARK                         _______ _______ _______ _____ _____    ______ ____
ROOT
ATOM      1  C   UNL     1      45.155  15.248  20.209  0.00  0.00    +0.090 C 
ATOM      2  C   UNL     1      44.861  16.720  20.068  0.00  0.00    +0.056 C 
ATOM      3  C   UNL     1      45.660  17.607  20.624  0.00  0.00    -0.189 C 
ATOM      4  C   UNL     1      45.285  19.077  20.690  0.00  0.00    +0.312 C 
ATOM      5  N   UNL     1      46.447  19.925  20.404  0.00  0.00    -0.363 N 
ATOM      6  H   UNL     1      46.179  20.888  20.666  0.00  0.00    +0.429 HD
ATOM      7  C   UNL     1      46.675  19.930  18.961  0.00  0.00    +0.253 C 
ATOM      8  C   UNL     1      47.215  18.579  18.496  0.00  0.00    +0.095 C 
ATOM      9  C   UNL     1      48.379  18.139  19.333  0.00  0.00    -0.048 C 
ATOM     10  C   UNL     1      49.554  17.722  18.450  0.00  0.00    +0.110 C 
ATOM     11  C   UNL     1      50.319  18.894  17.910  0.00  0.00    -0.055 A 
ATOM     12  C   UNL     1      51.106  18.687  16.783  0.00  0.00    -0.014 A 
ATOM     13  C   UNL     1      51.832  19.728  16.233  0.00  0.00    +0.122 A 
ATOM     16  C   UNL     1      51.765  20.989  16.808  0.00  0.00    -0.006 A 
ATOM     17  C   UNL     1      50.984  21.189  17.926  0.00  0.00    +0.036 A 
ATOM     18  C   UNL     1      50.271  20.139  18.494  0.00  0.00    -0.092 A 
ATOM     19  C   UNL     1      49.493  20.409  19.747  0.00  0.00    +0.050 C 
ATOM     20  C   UNL     1      50.467  20.978  20.790  0.00  0.00    +0.058 C 
ATOM     21  C   UNL     1      48.100  16.965  20.298  0.00  0.00    -0.131 C 
ATOM     25  C   UNL     1      49.406  17.068  21.160  0.00  0.00    +0.238 C 
ATOM     26  O   UNL     1      49.734  18.468  21.212  0.00  0.00    -0.332 OA
ATOM     27  C   UNL     1      48.836  19.197  20.349  0.00  0.00    +0.134 C 
ATOM     28  C   UNL     1      47.619  19.601  21.196  0.00  0.00    +0.146 C 
ATOM     29  C   UNL     1      47.333  18.443  22.163  0.00  0.00    +0.092 C 
ATOM     30  C   UNL     1      46.967  17.228  21.281  0.00  0.00    +0.078 C 
ENDROOT
BRANCH  21  22
ATOM     22  C   UNL     1      47.984  15.626  19.608  0.00  0.00    +0.380 C 
ATOM     23  C   UNL     1      48.389  14.369  20.331  0.00  0.00    +0.076 C 
ATOM     24  O   UNL     1      47.567  15.565  18.475  0.00  0.00    -0.428 OA
ENDBRANCH  21  22
BRANCH  13  14
ATOM     14  O   UNL     1      52.608  19.517  15.138  0.00  0.00    -0.496 OA
ATOM     15  H   UNL     1      53.078  18.672  15.145  0.00  0.00    +0.397 HD
ENDBRANCH  13  14
TORSDOF 2
ENDMDL
MODEL 5
REMARK VINA RESULT:      -6.2      2.749      4.013
REMARK  Name = ZINC95486301
REMARK  5 active torsions:
REMARK  status: ('A' for Active; 'I' for Inactive)
REMARK    1  A    between atoms: C1_1  and  C2_2
REMARK    2  A    between atoms: C11_12  and  O3_31
REMARK    3  A    between atoms: C15_16  and  C24_30
REMARK    4  A    between atoms: C20_24  and  C22_27
REMARK    5  A    between atoms: C22_27  and  C23_29
REMARK                            x       y       z     vdW  Elec       q    Type
REMARK                         _______ _______ _______ _____ _____    ______ ____
ROOT
ATOM      1  C   UNL     1      52.043  19.425  16.622  0.00  0.00    +0.090 C 
ATOM      2  C   UNL     1      50.835  18.530  16.516  0.00  0.00    +0.056 C 
ATOM      3  C   UNL     1      50.357  17.940  17.591  0.00  0.00    -0.189 C 
ATOM      4  C   UNL     1      49.284  16.869  17.496  0.00  0.00    +0.312 C 
ATOM      5  N   UNL     1      48.286  17.034  18.558  0.00  0.00    -0.363 N 
ATOM      6  H   UNL     1      47.717  16.172  18.562  0.00  0.00    +0.429 HD
ATOM      7  C   UNL     1      47.390  18.127  18.188  0.00  0.00    +0.253 C 
ATOM      8  C   UNL     1      48.109  19.471  18.292  0.00  0.00    +0.095 C 
ATOM      9  C   UNL     1      48.799  19.621  19.615  0.00  0.00    -0.048 C 
ATOM     10  C   UNL     1      48.444  20.958  20.264  0.00  0.00    +0.110 C 
ATOM     11  C   UNL     1      47.092  20.946  20.913  0.00  0.00    -0.055 A 
ATOM     12  C   UNL     1      46.477  22.171  21.144  0.00  0.00    -0.014 A 
ATOM     13  C   UNL     1      45.228  22.229  21.735  0.00  0.00    +0.122 A 
ATOM     16  C   UNL     1      44.582  21.053  22.089  0.00  0.00    -0.006 A 
ATOM     17  C   UNL     1      45.196  19.841  21.859  0.00  0.00    +0.036 A 
ATOM     18  C   UNL     1      46.462  19.782  21.286  0.00  0.00    -0.092 A 
ATOM     19  C   UNL     1      47.102  18.435  21.122  0.00  0.00    +0.050 C 
ATOM     20  C   UNL     1      47.142  17.765  22.505  0.00  0.00    +0.058 C 
ATOM     21  C   UNL     1      50.342  19.534  19.574  0.00  0.00    -0.131 C 
ATOM     25  C   UNL     1      50.599  19.399  21.116  0.00  0.00    +0.238 C 
ATOM     26  O   UNL     1      49.478  18.665  21.640  0.00  0.00    -0.332 OA
ATOM     27  C   UNL     1      48.507  18.470  20.590  0.00  0.00    +0.134 C 
ATOM     28  C   UNL     1      48.857  17.149  19.887  0.00  0.00    +0.146 C 
ATOM     29  C   UNL     1      50.388  17.048  19.843  0.00  0.00    +0.092 C 
ATOM     30  C   UNL     1      50.873  18.235  18.982  0.00  0.00    +0.078 C 
ENDROOT
BRANCH  21  22
ATOM     22  C   UNL     1      51.005  20.762  18.997  0.00  0.00    +0.380 C 
ATOM     23  C   UNL     1      52.349  21.205  19.512  0.00  0.00    +0.076 C 
ATOM     24  O   UNL     1      50.456  21.389  18.122  0.00  0.00    -0.428 OA
ENDBRANCH  21  22
BRANCH  13  14
ATOM     14  O   UNL     1      44.637  23.430  21.969  0.00  0.00    -0.496 OA
ATOM     15  H   UNL     1      44.824  23.798  22.843  0.00  0.00    +0.397 HD
ENDBRANCH  13  14
TORSDOF 2
ENDMDL
MODEL 6
REMARK VINA RESULT:      -6.1      2.261      5.579
REMARK  Name = ZINC95486301
REMARK  5 active torsions:
REMARK  status: ('A' for Active; 'I' for Inactive)
REMARK    1  A    between atoms: C1_1  and  C2_2
REMARK    2  A    between atoms: C11_12  and  O3_31
REMARK    3  A    between atoms: C15_16  and  C24_30
REMARK    4  A    between atoms: C20_24  and  C22_27
REMARK    5  A    between atoms: C22_27  and  C23_29
REMARK                            x       y       z     vdW  Elec       q    Type
REMARK                         _______ _______ _______ _____ _____    ______ ____
ROOT
ATOM      1  C   UNL     1      42.888  22.623  19.688  0.00  0.00    +0.090 C 
ATOM      2  C   UNL     1      44.376  22.823  19.821  0.00  0.00    +0.056 C 
ATOM      3  C   UNL     1      45.082  22.019  20.588  0.00  0.00    -0.189 C 
ATOM      4  C   UNL     1      46.534  22.314  20.919  0.00  0.00    +0.312 C 
ATOM      5  N   UNL     1      47.338  21.088  20.878  0.00  0.00    -0.363 N 
ATOM      6  H   UNL     1      48.249  21.320  21.307  0.00  0.00    +0.429 HD
ATOM      7  C   UNL     1      47.605  20.753  19.481  0.00  0.00    +0.253 C 
ATOM      8  C   UNL     1      46.334  20.257  18.794  0.00  0.00    +0.095 C 
ATOM      9  C   UNL     1      45.661  19.185  19.599  0.00  0.00    -0.048 C 
ATOM     10  C   UNL     1      45.340  17.972  18.726  0.00  0.00    +0.110 C 
ATOM     11  C   UNL     1      46.539  17.105  18.476  0.00  0.00    -0.055 A 
ATOM     12  C   UNL     1      46.498  16.249  17.382  0.00  0.00    -0.014 A 
ATOM     13  C   UNL     1      47.571  15.427  17.093  0.00  0.00    +0.122 A 
ATOM     16  C   UNL     1      48.700  15.466  17.899  0.00  0.00    -0.006 A 
ATOM     17  C   UNL     1      48.735  16.315  18.983  0.00  0.00    +0.036 A 
ATOM     18  C   UNL     1      47.648  17.126  19.289  0.00  0.00    -0.092 A 
ATOM     19  C   UNL     1      47.725  17.980  20.520  0.00  0.00    +0.050 C 
ATOM     20  C   UNL     1      48.014  17.055  21.712  0.00  0.00    +0.058 C 
ATOM     21  C   UNL     1      44.346  19.601  20.295  0.00  0.00    -0.131 C 
ATOM     25  C   UNL     1      44.190  18.359  21.240  0.00  0.00    +0.238 C 
ATOM     26  O   UNL     1      45.528  17.958  21.587  0.00  0.00    -0.332 OA
ATOM     27  C   UNL     1      46.470  18.747  20.829  0.00  0.00    +0.134 C 
ATOM     28  C   UNL     1      46.787  19.999  21.662  0.00  0.00    +0.146 C 
ATOM     29  C   UNL     1      45.488  20.421  22.362  0.00  0.00    +0.092 C 
ATOM     30  C   UNL     1      44.494  20.787  21.239  0.00  0.00    +0.078 C 
ENDROOT
BRANCH  21  22
ATOM     22  C   UNL     1      43.176  19.740  19.349  0.00  0.00    +0.380 C 
ATOM     23  C   UNL     1      41.775  19.486  19.841  0.00  0.00    +0.076 C 
ATOM     24  O   UNL     1      43.364  20.054  18.198  0.00  0.00    -0.428 OA
ENDBRANCH  21  22
BRANCH  13  14
ATOM     14  O   UNL     1      47.521  14.584  16.028  0.00  0.00    -0.496 OA
ATOM     15  H   UNL     1      47.894  13.709  16.200  0.00  0.00    +0.397 HD
ENDBRANCH  13  14
TORSDOF 2
ENDMDL
MODEL 7
REMARK VINA RESULT:      -5.8      4.208      7.427
REMARK  Name = ZINC95486301
REMARK  5 active torsions:
REMARK  status: ('A' for Active; 'I' for Inactive)
REMARK    1  A    between atoms: C1_1  and  C2_2
REMARK    2  A    between atoms: C11_12  and  O3_31
REMARK    3  A    between atoms: C15_16  and  C24_30
REMARK    4  A    between atoms: C20_24  and  C22_27
REMARK    5  A    between atoms: C22_27  and  C23_29
REMARK                            x       y       z     vdW  Elec       q    Type
REMARK                         _______ _______ _______ _____ _____    ______ ____
ROOT
ATOM      1  C   UNL     1      49.204  21.122  19.449  0.00  0.00    +0.090 C 
ATOM      2  C   UNL     1      50.327  20.776  18.506  0.00  0.00    +0.056 C 
ATOM      3  C   UNL     1      51.045  19.691  18.707  0.00  0.00    -0.189 C 
ATOM      4  C   UNL     1      52.312  19.423  17.915  0.00  0.00    +0.312 C 
ATOM      5  N   UNL     1      52.401  18.008  17.536  0.00  0.00    -0.363 N 
ATOM      6  H   UNL     1      53.363  17.857  17.191  0.00  0.00    +0.429 HD
ATOM      7  C   UNL     1      51.507  17.774  16.405  0.00  0.00    +0.253 C 
ATOM      8  C   UNL     1      50.047  17.835  16.850  0.00  0.00    +0.095 C 
ATOM      9  C   UNL     1      49.807  16.973  18.054  0.00  0.00    -0.048 C 
ATOM     10  C   UNL     1      48.599  16.062  17.836  0.00  0.00    +0.110 C 
ATOM     11  C   UNL     1      48.920  14.870  16.983  0.00  0.00    -0.055 A 
ATOM     12  C   UNL     1      47.861  14.221  16.360  0.00  0.00    -0.014 A 
ATOM     13  C   UNL     1      48.088  13.118  15.556  0.00  0.00    +0.122 A 
ATOM     16  C   UNL     1      49.387  12.666  15.366  0.00  0.00    -0.006 A 
ATOM     17  C   UNL     1      50.433  13.313  15.986  0.00  0.00    +0.036 A 
ATOM     18  C   UNL     1      50.204  14.408  16.813  0.00  0.00    -0.092 A 
ATOM     19  C   UNL     1      51.379  15.026  17.510  0.00  0.00    +0.050 C 
ATOM     20  C   UNL     1      52.077  13.922  18.318  0.00  0.00    +0.058 C 
ATOM     21  C   UNL     1      49.567  17.733  19.378  0.00  0.00    -0.131 C 
ATOM     25  C   UNL     1      49.703  16.517  20.360  0.00  0.00    +0.238 C 
ATOM     26  O   UNL     1      50.675  15.638  19.768  0.00  0.00    -0.332 OA
ATOM     27  C   UNL     1      51.029  16.137  18.461  0.00  0.00    +0.134 C 
ATOM     28  C   UNL     1      52.220  17.091  18.646  0.00  0.00    +0.146 C 
ATOM     29  C   UNL     1      51.995  17.849  19.961  0.00  0.00    +0.092 C 
ATOM     30  C   UNL     1      50.701  18.671  19.768  0.00  0.00    +0.078 C 
ENDROOT
BRANCH  21  22
ATOM     22  C   UNL     1      48.206  18.381  19.469  0.00  0.00    +0.380 C 
ATOM     23  C   UNL     1      47.539  18.550  20.809  0.00  0.00    +0.076 C 
ATOM     24  O   UNL     1      47.652  18.764  18.466  0.00  0.00    -0.428 OA
ENDBRANCH  21  22
BRANCH  13  14
ATOM     14  O   UNL     1      47.048  12.480  14.959  0.00  0.00    -0.496 OA
ATOM     15  H   UNL     1      47.214  11.547  14.772  0.00  0.00    +0.397 HD
ENDBRANCH  13  14
TORSDOF 2
ENDMDL
MODEL 8
REMARK VINA RESULT:      -5.7      2.377      4.937
REMARK  Name = ZINC95486301
REMARK  5 active torsions:
REMARK  status: ('A' for Active; 'I' for Inactive)
REMARK    1  A    between atoms: C1_1  and  C2_2
REMARK    2  A    between atoms: C11_12  and  O3_31
REMARK    3  A    between atoms: C15_16  and  C24_30
REMARK    4  A    between atoms: C20_24  and  C22_27
REMARK    5  A    between atoms: C22_27  and  C23_29
REMARK                            x       y       z     vdW  Elec       q    Type
REMARK                         _______ _______ _______ _____ _____    ______ ____
ROOT
ATOM      1  C   UNL     1      50.793  20.243  18.669  0.00  0.00    +0.090 C 
ATOM      2  C   UNL     1      50.039  20.764  19.866  0.00  0.00    +0.056 C 
ATOM      3  C   UNL     1      48.724  20.829  19.839  0.00  0.00    -0.189 C 
ATOM      4  C   UNL     1      47.944  21.543  20.927  0.00  0.00    +0.312 C 
ATOM      5  N   UNL     1      46.742  20.785  21.291  0.00  0.00    -0.363 N 
ATOM      6  H   UNL     1      46.164  21.414  21.872  0.00  0.00    +0.429 HD
ATOM      7  C   UNL     1      47.137  19.669  22.146  0.00  0.00    +0.253 C 
ATOM      8  C   UNL     1      47.882  18.608  21.338  0.00  0.00    +0.095 C 
ATOM      9  C   UNL     1      47.125  18.236  20.098  0.00  0.00    -0.048 C 
ATOM     10  C   UNL     1      46.994  16.718  19.977  0.00  0.00    +0.110 C 
ATOM     11  C   UNL     1      45.920  16.157  20.862  0.00  0.00    -0.055 A 
ATOM     12  C   UNL     1      45.985  14.806  21.177  0.00  0.00    -0.014 A 
ATOM     13  C   UNL     1      45.028  14.227  21.992  0.00  0.00    +0.122 A 
ATOM     16  C   UNL     1      44.003  15.009  22.505  0.00  0.00    -0.006 A 
ATOM     17  C   UNL     1      43.943  16.349  22.190  0.00  0.00    +0.036 A 
ATOM     18  C   UNL     1      44.890  16.927  21.352  0.00  0.00    -0.092 A 
ATOM     19  C   UNL     1      44.731  18.376  20.996  0.00  0.00    +0.050 C 
ATOM     20  C   UNL     1      43.336  18.554  20.377  0.00  0.00    +0.058 C 
ATOM     21  C   UNL     1      47.733  18.743  18.770  0.00  0.00    -0.131 C 
ATOM     25  C   UNL     1      46.509  18.443  17.835  0.00  0.00    +0.238 C 
ATOM     26  O   UNL     1      45.337  18.641  18.644  0.00  0.00    -0.332 OA
ATOM     27  C   UNL     1      45.739  18.892  20.008  0.00  0.00    +0.134 C 
ATOM     28  C   UNL     1      45.919  20.411  20.156  0.00  0.00    +0.146 C 
ATOM     29  C   UNL     1      46.519  20.929  18.841  0.00  0.00    +0.092 C 
ATOM     30  C   UNL     1      47.903  20.255  18.706  0.00  0.00    +0.078 C 
ENDROOT
BRANCH  21  22
ATOM     22  C   UNL     1      48.969  17.990  18.341  0.00  0.00    +0.380 C 
ATOM     23  C   UNL     1      49.233  17.746  16.878  0.00  0.00    +0.076 C 
ATOM     24  O   UNL     1      49.746  17.582  19.171  0.00  0.00    -0.428 OA
ENDBRANCH  21  22
BRANCH  13  14
ATOM     14  O   UNL     1      45.090  12.902  22.286  0.00  0.00    -0.496 OA
ATOM     15  H   UNL     1      44.511  12.633  23.011  0.00  0.00    +0.397 HD
ENDBRANCH  13  14
TORSDOF 2
ENDMDL
MODEL 9
REMARK VINA RESULT:      -5.5      5.011      9.046
REMARK  Name = ZINC95486301
REMARK  5 active torsions:
REMARK  status: ('A' for Active; 'I' for Inactive)
REMARK    1  A    between atoms: C1_1  and  C2_2
REMARK    2  A    between atoms: C11_12  and  O3_31
REMARK    3  A    between atoms: C15_16  and  C24_30
REMARK    4  A    between atoms: C20_24  and  C22_27
REMARK    5  A    between atoms: C22_27  and  C23_29
REMARK                            x       y       z     vdW  Elec       q    Type
REMARK                         _______ _______ _______ _____ _____    ______ ____
ROOT
ATOM      1  C   UNL     1      49.330  20.834  19.018  0.00  0.00    +0.090 C 
ATOM      2  C   UNL     1      48.811  19.605  19.719  0.00  0.00    +0.056 C 
ATOM      3  C   UNL     1      48.861  18.434  19.119  0.00  0.00    -0.189 C 
ATOM      4  C   UNL     1      48.158  17.218  19.695  0.00  0.00    +0.312 C 
ATOM      5  N   UNL     1      48.995  16.020  19.566  0.00  0.00    -0.363 N 
ATOM      6  H   UNL     1      48.387  15.213  19.782  0.00  0.00    +0.429 HD
ATOM      7  C   UNL     1      50.025  16.059  20.601  0.00  0.00    +0.253 C 
ATOM      8  C   UNL     1      51.061  17.139  20.291  0.00  0.00    +0.095 C 
ATOM      9  C   UNL     1      51.563  17.024  18.883  0.00  0.00    -0.048 C 
ATOM     10  C   UNL     1      53.091  17.040  18.849  0.00  0.00    +0.110 C 
ATOM     11  C   UNL     1      53.693  15.718  19.226  0.00  0.00    -0.055 A 
ATOM     12  C   UNL     1      55.015  15.711  19.653  0.00  0.00    -0.014 A 
ATOM     13  C   UNL     1      55.628  14.526  20.019  0.00  0.00    +0.122 A 
ATOM     16  C   UNL     1      54.910  13.339  19.968  0.00  0.00    -0.006 A 
ATOM     17  C   UNL     1      53.600  13.352  19.543  0.00  0.00    +0.036 A 
ATOM     18  C   UNL     1      52.989  14.539  19.152  0.00  0.00    -0.092 A 
ATOM     19  C   UNL     1      51.581  14.474  18.638  0.00  0.00    +0.050 C 
ATOM     20  C   UNL     1      51.558  13.485  17.463  0.00  0.00    +0.058 C 
ATOM     21  C   UNL     1      51.079  18.124  17.911  0.00  0.00    -0.131 C 
ATOM     25  C   UNL     1      51.534  17.453  16.568  0.00  0.00    +0.238 C 
ATOM     26  O   UNL     1      51.393  16.036  16.768  0.00  0.00    -0.332 OA
ATOM     27  C   UNL     1      51.035  15.785  18.144  0.00  0.00    +0.134 C 
ATOM     28  C   UNL     1      49.500  15.800  18.224  0.00  0.00    +0.146 C 
ATOM     29  C   UNL     1      49.005  16.888  17.259  0.00  0.00    +0.092 C 
ATOM     30  C   UNL     1      49.564  18.224  17.796  0.00  0.00    +0.078 C 
ENDROOT
BRANCH  21  22
ATOM     22  C   UNL     1      51.745  19.462  18.128  0.00  0.00    +0.380 C 
ATOM     23  C   UNL     1      51.953  20.397  16.965  0.00  0.00    +0.076 C 
ATOM     24  O   UNL     1      52.112  19.782  19.233  0.00  0.00    -0.428 OA
ENDBRANCH  21  22
BRANCH  13  14
ATOM     14  O   UNL     1      56.925  14.523  20.425  0.00  0.00    -0.496 OA
ATOM     15  H   UNL     1      57.197  15.331  20.881  0.00  0.00    +0.397 HD
ENDBRANCH  13  14
TORSDOF 2
ENDMDL
