MODEL 1
REMARK VINA RESULT:      -5.1      0.000      0.000
REMARK  Name = ZINC95486288
REMARK  7 active torsions:
REMARK  status: ('A' for Active; 'I' for Inactive)
REMARK    1  A    between atoms: C1_1  and  C2_2
REMARK    2  A    between atoms: C2_2  and  O2_4
REMARK    3  A    between atoms: O2_4  and  C3_5
REMARK    4  A    between atoms: C4_7  and  C17_26
REMARK    5  A    between atoms: C8_12  and  C16_24
REMARK    6  A    between atoms: C17_26  and  O6_27
REMARK    7  A    between atoms: O6_27  and  C18_28
REMARK                            x       y       z     vdW  Elec       q    Type
REMARK                         _______ _______ _______ _____ _____    ______ ____
ROOT
ATOM      4  C   UNL     1      44.114  20.150  20.029  0.00  0.00    +0.212 C 
ATOM      5  C   UNL     1      44.938  18.915  20.398  0.00  0.00    +0.014 C 
ATOM     10  C   UNL     1      44.636  17.794  19.439  0.00  0.00    +0.005 C 
ATOM     11  C   UNL     1      45.593  16.975  19.019  0.00  0.00    +0.008 C 
ATOM     12  C   UNL     1      46.987  17.102  19.406  0.00  0.00    +0.126 C 
ATOM     13  C   UNL     1      47.672  18.265  19.346  0.00  0.00    -0.230 C 
ATOM     16  C   UNL     1      47.033  19.514  18.798  0.00  0.00    +0.087 C 
ATOM     17  C   UNL     1      47.507  20.730  19.597  0.00  0.00    +0.060 C 
ATOM     18  C   UNL     1      46.345  21.275  20.428  0.00  0.00    +0.186 C 
ATOM     19  O   UNL     1      46.585  22.638  20.794  0.00  0.00    -0.317 OA
ATOM     20  C   UNL     1      45.469  23.371  20.646  0.00  0.00    +0.510 C 
ATOM     21  O   UNL     1      45.319  24.493  21.088  0.00  0.00    -0.449 OA
ATOM     22  C   UNL     1      44.450  22.638  19.879  0.00  0.00    -0.232 C 
ATOM     23  C   UNL     1      43.247  23.077  19.515  0.00  0.00    +0.205 C 
ATOM     24  C   UNL     1      45.054  21.274  19.588  0.00  0.00    +0.040 C 
ENDROOT
BRANCH  13  14
ATOM     14  C   UNL     1      49.007  18.312  19.802  0.00  0.00    +0.464 C 
ATOM     15  O   UNL     1      49.922  18.308  19.002  0.00  0.00    -0.452 OA
ENDBRANCH  13  14
BRANCH   4   3
ATOM      3  O   UNL     1      43.223  19.827  18.960  0.00  0.00    -0.336 OA
BRANCH   3   2
ATOM      1  C   UNL     1      40.967  20.413  18.146  0.00  0.00    +0.162 C 
ATOM      2  C   UNL     1      41.908  19.919  19.214  0.00  0.00    +0.457 C 
ATOM     25  O   UNL     1      41.479  19.606  20.299  0.00  0.00    -0.503 OA
ENDBRANCH   3   2
ENDBRANCH   4   3
BRANCH   5   6
ATOM      6  C   UNL     1      44.585  18.475  21.820  0.00  0.00    +0.229 C 
BRANCH   6   7
ATOM      7  O   UNL     1      43.478  17.572  21.778  0.00  0.00    -0.359 OA
BRANCH   7   8
ATOM      8  C   UNL     1      43.579  16.448  22.505  0.00  0.00    +0.586 C 
ATOM      9  O   UNL     1      44.381  15.598  22.197  0.00  0.00    -0.471 OA
ENDBRANCH   7   8
ENDBRANCH   6   7
ENDBRANCH   5   6
TORSDOF 6
ENDMDL
MODEL 2
REMARK VINA RESULT:      -4.8      2.056      5.309
REMARK  Name = ZINC95486288
REMARK  7 active torsions:
REMARK  status: ('A' for Active; 'I' for Inactive)
REMARK    1  A    between atoms: C1_1  and  C2_2
REMARK    2  A    between atoms: C2_2  and  O2_4
REMARK    3  A    between atoms: O2_4  and  C3_5
REMARK    4  A    between atoms: C4_7  and  C17_26
REMARK    5  A    between atoms: C8_12  and  C16_24
REMARK    6  A    between atoms: C17_26  and  O6_27
REMARK    7  A    between atoms: O6_27  and  C18_28
REMARK                            x       y       z     vdW  Elec       q    Type
REMARK                         _______ _______ _______ _____ _____    ______ ____
ROOT
ATOM      4  C   UNL     1      45.889  17.881  19.668  0.00  0.00    +0.212 C 
ATOM      5  C   UNL     1      46.295  19.354  19.585  0.00  0.00    +0.014 C 
ATOM     10  C   UNL     1      46.448  19.920  20.972  0.00  0.00    +0.005 C 
ATOM     11  C   UNL     1      47.413  20.788  21.256  0.00  0.00    +0.008 C 
ATOM     12  C   UNL     1      48.405  21.229  20.293  0.00  0.00    +0.126 C 
ATOM     13  C   UNL     1      49.113  20.383  19.513  0.00  0.00    -0.230 C 
ATOM     16  C   UNL     1      48.958  18.891  19.648  0.00  0.00    +0.087 C 
ATOM     17  C   UNL     1      49.042  18.236  18.267  0.00  0.00    +0.060 C 
ATOM     18  C   UNL     1      47.667  17.694  17.878  0.00  0.00    +0.186 C 
ATOM     19  O   UNL     1      47.790  16.687  16.869  0.00  0.00    -0.317 OA
ATOM     20  C   UNL     1      46.979  15.649  17.135  0.00  0.00    +0.510 C 
ATOM     21  O   UNL     1      46.713  14.764  16.346  0.00  0.00    -0.449 OA
ATOM     22  C   UNL     1      46.455  15.724  18.507  0.00  0.00    -0.232 C 
ATOM     23  C   UNL     1      45.659  14.845  19.112  0.00  0.00    +0.205 C 
ATOM     24  C   UNL     1      47.008  17.012  19.092  0.00  0.00    +0.040 C 
ENDROOT
BRANCH  13  14
ATOM     14  C   UNL     1      50.012  20.903  18.557  0.00  0.00    +0.464 C 
ATOM     15  O   UNL     1      51.134  21.230  18.894  0.00  0.00    -0.452 OA
ENDBRANCH  13  14
BRANCH   4   3
ATOM      3  O   UNL     1      45.663  17.524  21.034  0.00  0.00    -0.336 OA
BRANCH   3   2
ATOM      1  C   UNL     1      44.179  16.020  22.310  0.00  0.00    +0.162 C 
ATOM      2  C   UNL     1      44.412  17.178  21.374  0.00  0.00    +0.457 C 
ATOM     25  O   UNL     1      43.472  17.793  20.930  0.00  0.00    -0.503 OA
ENDBRANCH   3   2
ENDBRANCH   4   3
BRANCH   5   6
ATOM      6  C   UNL     1      45.217  20.137  18.834  0.00  0.00    +0.229 C 
BRANCH   6   7
ATOM      7  O   UNL     1      44.283  20.679  19.769  0.00  0.00    -0.359 OA
BRANCH   7   8
ATOM      8  C   UNL     1      43.045  20.936  19.316  0.00  0.00    +0.586 C 
ATOM      9  O   UNL     1      42.514  20.175  18.542  0.00  0.00    -0.471 OA
ENDBRANCH   7   8
ENDBRANCH   6   7
ENDBRANCH   5   6
TORSDOF 6
ENDMDL
MODEL 3
REMARK VINA RESULT:      -4.8      2.079      6.026
REMARK  Name = ZINC95486288
REMARK  7 active torsions:
REMARK  status: ('A' for Active; 'I' for Inactive)
REMARK    1  A    between atoms: C1_1  and  C2_2
REMARK    2  A    between atoms: C2_2  and  O2_4
REMARK    3  A    between atoms: O2_4  and  C3_5
REMARK    4  A    between atoms: C4_7  and  C17_26
REMARK    5  A    between atoms: C8_12  and  C16_24
REMARK    6  A    between atoms: C17_26  and  O6_27
REMARK    7  A    between atoms: O6_27  and  C18_28
REMARK                            x       y       z     vdW  Elec       q    Type
REMARK                         _______ _______ _______ _____ _____    ______ ____
ROOT
ATOM      4  C   UNL     1      48.130  19.737  20.006  0.00  0.00    +0.212 C 
ATOM      5  C   UNL     1      46.971  20.287  20.840  0.00  0.00    +0.014 C 
ATOM     10  C   UNL     1      47.124  21.776  21.007  0.00  0.00    +0.005 C 
ATOM     11  C   UNL     1      46.068  22.581  20.982  0.00  0.00    +0.008 C 
ATOM     12  C   UNL     1      44.710  22.118  20.759  0.00  0.00    +0.126 C 
ATOM     13  C   UNL     1      44.362  21.292  19.748  0.00  0.00    -0.230 C 
ATOM     16  C   UNL     1      45.377  20.844  18.729  0.00  0.00    +0.087 C 
ATOM     17  C   UNL     1      45.109  19.390  18.337  0.00  0.00    +0.060 C 
ATOM     18  C   UNL     1      46.226  18.503  18.888  0.00  0.00    +0.186 C 
ATOM     19  O   UNL     1      46.287  17.267  18.169  0.00  0.00    -0.317 OA
ATOM     20  C   UNL     1      47.562  16.935  17.906  0.00  0.00    +0.510 C 
ATOM     21  O   UNL     1      47.922  15.844  17.512  0.00  0.00    -0.449 OA
ATOM     22  C   UNL     1      48.468  18.067  18.158  0.00  0.00    -0.232 C 
ATOM     23  C   UNL     1      49.785  18.100  17.966  0.00  0.00    +0.205 C 
ATOM     24  C   UNL     1      47.590  19.189  18.684  0.00  0.00    +0.040 C 
ENDROOT
BRANCH  13  14
ATOM     14  C   UNL     1      43.029  20.840  19.643  0.00  0.00    +0.464 C 
ATOM     15  O   UNL     1      42.203  21.516  19.062  0.00  0.00    -0.452 OA
ENDBRANCH  13  14
BRANCH   4   3
ATOM      3  O   UNL     1      49.066  20.784  19.742  0.00  0.00    -0.336 OA
BRANCH   3   2
ATOM      1  C   UNL     1      51.483  21.153  19.398  0.00  0.00    +0.162 C 
ATOM      2  C   UNL     1      50.321  20.607  20.185  0.00  0.00    +0.457 C 
ATOM     25  O   UNL     1      50.518  20.008  21.216  0.00  0.00    -0.503 OA
ENDBRANCH   3   2
ENDBRANCH   4   3
BRANCH   5   6
ATOM      6  C   UNL     1      46.972  19.620  22.216  0.00  0.00    +0.229 C 
BRANCH   6   7
ATOM      7  O   UNL     1      46.096  18.491  22.199  0.00  0.00    -0.359 OA
BRANCH   7   8
ATOM      8  C   UNL     1      44.787  18.732  22.377  0.00  0.00    +0.586 C 
ATOM      9  O   UNL     1      43.969  18.160  21.697  0.00  0.00    -0.471 OA
ENDBRANCH   7   8
ENDBRANCH   6   7
ENDBRANCH   5   6
TORSDOF 6
ENDMDL
MODEL 4
REMARK VINA RESULT:      -4.8      3.313      5.996
REMARK  Name = ZINC95486288
REMARK  7 active torsions:
REMARK  status: ('A' for Active; 'I' for Inactive)
REMARK    1  A    between atoms: C1_1  and  C2_2
REMARK    2  A    between atoms: C2_2  and  O2_4
REMARK    3  A    between atoms: O2_4  and  C3_5
REMARK    4  A    between atoms: C4_7  and  C17_26
REMARK    5  A    between atoms: C8_12  and  C16_24
REMARK    6  A    between atoms: C17_26  and  O6_27
REMARK    7  A    between atoms: O6_27  and  C18_28
REMARK                            x       y       z     vdW  Elec       q    Type
REMARK                         _______ _______ _______ _____ _____    ______ ____
ROOT
ATOM      4  C   UNL     1      48.458  17.655  18.508  0.00  0.00    +0.212 C 
ATOM      5  C   UNL     1      49.961  17.937  18.471  0.00  0.00    +0.014 C 
ATOM     10  C   UNL     1      50.429  18.023  17.042  0.00  0.00    +0.005 C 
ATOM     11  C   UNL     1      51.349  18.907  16.674  0.00  0.00    +0.008 C 
ATOM     12  C   UNL     1      51.946  19.870  17.581  0.00  0.00    +0.126 C 
ATOM     13  C   UNL     1      51.225  20.657  18.410  0.00  0.00    -0.230 C 
ATOM     16  C   UNL     1      49.720  20.627  18.392  0.00  0.00    +0.087 C 
ATOM     17  C   UNL     1      49.183  20.785  19.817  0.00  0.00    +0.060 C 
ATOM     18  C   UNL     1      48.560  19.466  20.273  0.00  0.00    +0.186 C 
ATOM     19  O   UNL     1      47.648  19.687  21.353  0.00  0.00    -0.317 OA
ATOM     20  C   UNL     1      46.529  18.964  21.183  0.00  0.00    +0.510 C 
ATOM     21  O   UNL     1      45.689  18.784  22.042  0.00  0.00    -0.449 OA
ATOM     22  C   UNL     1      46.452  18.417  19.819  0.00  0.00    -0.232 C 
ATOM     23  C   UNL     1      45.465  17.691  19.299  0.00  0.00    +0.205 C 
ATOM     24  C   UNL     1      47.733  18.852  19.128  0.00  0.00    +0.040 C 
ENDROOT
BRANCH  13  14
ATOM     14  C   UNL     1      51.891  21.522  19.305  0.00  0.00    +0.464 C 
ATOM     15  O   UNL     1      52.974  21.209  19.760  0.00  0.00    -0.452 OA
ENDBRANCH  13  14
BRANCH   4   3
ATOM      3  O   UNL     1      47.979  17.443  17.179  0.00  0.00    -0.336 OA
BRANCH   3   2
ATOM      1  C   UNL     1      47.898  15.002  17.539  0.00  0.00    +0.162 C 
ATOM      2  C   UNL     1      47.367  16.275  16.931  0.00  0.00    +0.457 C 
ATOM     25  O   UNL     1      46.391  16.242  16.219  0.00  0.00    -0.503 OA
ENDBRANCH   3   2
ENDBRANCH   4   3
BRANCH   5   6
ATOM      6  C   UNL     1      50.708  16.806  19.181  0.00  0.00    +0.229 C 
BRANCH   6   7
ATOM      7  O   UNL     1      51.668  17.361  20.081  0.00  0.00    -0.359 OA
BRANCH   7   8
ATOM      8  C   UNL     1      52.954  17.026  19.885  0.00  0.00    +0.586 C 
ATOM      9  O   UNL     1      53.321  16.650  18.797  0.00  0.00    -0.471 OA
ENDBRANCH   7   8
ENDBRANCH   6   7
ENDBRANCH   5   6
TORSDOF 6
ENDMDL
MODEL 5
REMARK VINA RESULT:      -4.8      2.599      5.783
REMARK  Name = ZINC95486288
REMARK  7 active torsions:
REMARK  status: ('A' for Active; 'I' for Inactive)
REMARK    1  A    between atoms: C1_1  and  C2_2
REMARK    2  A    between atoms: C2_2  and  O2_4
REMARK    3  A    between atoms: O2_4  and  C3_5
REMARK    4  A    between atoms: C4_7  and  C17_26
REMARK    5  A    between atoms: C8_12  and  C16_24
REMARK    6  A    between atoms: C17_26  and  O6_27
REMARK    7  A    between atoms: O6_27  and  C18_28
REMARK                            x       y       z     vdW  Elec       q    Type
REMARK                         _______ _______ _______ _____ _____    ______ ____
ROOT
ATOM      4  C   UNL     1      48.405  18.568  18.401  0.00  0.00    +0.212 C 
ATOM      5  C   UNL     1      47.358  19.240  19.292  0.00  0.00    +0.014 C 
ATOM     10  C   UNL     1      46.758  18.225  20.228  0.00  0.00    +0.005 C 
ATOM     11  C   UNL     1      46.456  18.543  21.482  0.00  0.00    +0.008 C 
ATOM     12  C   UNL     1      46.705  19.851  22.061  0.00  0.00    +0.126 C 
ATOM     13  C   UNL     1      47.889  20.494  21.965  0.00  0.00    -0.230 C 
ATOM     16  C   UNL     1      49.070  19.847  21.292  0.00  0.00    +0.087 C 
ATOM     17  C   UNL     1      49.863  20.900  20.515  0.00  0.00    +0.060 C 
ATOM     18  C   UNL     1      49.696  20.656  19.016  0.00  0.00    +0.186 C 
ATOM     19  O   UNL     1      50.758  21.275  18.284  0.00  0.00    -0.317 OA
ATOM     20  C   UNL     1      51.207  20.456  17.317  0.00  0.00    +0.510 C 
ATOM     21  O   UNL     1      51.940  20.798  16.411  0.00  0.00    -0.449 OA
ATOM     22  C   UNL     1      50.693  19.089  17.499  0.00  0.00    -0.232 C 
ATOM     23  C   UNL     1      50.967  18.022  16.752  0.00  0.00    +0.205 C 
ATOM     24  C   UNL     1      49.785  19.148  18.716  0.00  0.00    +0.040 C 
ENDROOT
BRANCH  13  14
ATOM     14  C   UNL     1      48.023  21.792  22.504  0.00  0.00    +0.464 C 
ATOM     15  O   UNL     1      47.245  22.668  22.177  0.00  0.00    -0.452 OA
ENDBRANCH  13  14
BRANCH   4   3
ATOM      3  O   UNL     1      48.410  17.161  18.648  0.00  0.00    -0.336 OA
BRANCH   3   2
ATOM      1  C   UNL     1      46.873  16.673  16.779  0.00  0.00    +0.162 C 
ATOM      2  C   UNL     1      48.083  16.361  17.622  0.00  0.00    +0.457 C 
ATOM     25  O   UNL     1      48.757  15.389  17.374  0.00  0.00    -0.503 OA
ENDBRANCH   3   2
ENDBRANCH   4   3
BRANCH   5   6
ATOM      6  C   UNL     1      46.253  19.836  18.417  0.00  0.00    +0.229 C 
BRANCH   6   7
ATOM      7  O   UNL     1      46.214  21.253  18.599  0.00  0.00    -0.359 OA
BRANCH   7   8
ATOM      8  C   UNL     1      45.169  21.753  19.277  0.00  0.00    +0.586 C 
ATOM      9  O   UNL     1      44.279  21.022  19.641  0.00  0.00    -0.471 OA
ENDBRANCH   7   8
ENDBRANCH   6   7
ENDBRANCH   5   6
TORSDOF 6
ENDMDL
MODEL 6
REMARK VINA RESULT:      -4.7      2.384      6.620
REMARK  Name = ZINC95486288
REMARK  7 active torsions:
REMARK  status: ('A' for Active; 'I' for Inactive)
REMARK    1  A    between atoms: C1_1  and  C2_2
REMARK    2  A    between atoms: C2_2  and  O2_4
REMARK    3  A    between atoms: O2_4  and  C3_5
REMARK    4  A    between atoms: C4_7  and  C17_26
REMARK    5  A    between atoms: C8_12  and  C16_24
REMARK    6  A    between atoms: C17_26  and  O6_27
REMARK    7  A    between atoms: O6_27  and  C18_28
REMARK                            x       y       z     vdW  Elec       q    Type
REMARK                         _______ _______ _______ _____ _____    ______ ____
ROOT
ATOM      4  C   UNL     1      46.376  16.274  19.133  0.00  0.00    +0.212 C 
ATOM      5  C   UNL     1      46.566  17.748  19.497  0.00  0.00    +0.014 C 
ATOM     10  C   UNL     1      46.332  18.608  18.283  0.00  0.00    +0.005 C 
ATOM     11  C   UNL     1      45.715  19.780  18.381  0.00  0.00    +0.008 C 
ATOM     12  C   UNL     1      45.190  20.309  19.626  0.00  0.00    +0.126 C 
ATOM     13  C   UNL     1      44.411  19.596  20.468  0.00  0.00    -0.230 C 
ATOM     16  C   UNL     1      43.975  18.197  20.123  0.00  0.00    +0.087 C 
ATOM     17  C   UNL     1      43.960  17.333  21.386  0.00  0.00    +0.060 C 
ATOM     18  C   UNL     1      45.091  16.308  21.313  0.00  0.00    +0.186 C 
ATOM     19  O   UNL     1      44.832  15.209  22.192  0.00  0.00    -0.317 OA
ATOM     20  C   UNL     1      45.127  14.043  21.592  0.00  0.00    +0.510 C 
ATOM     21  O   UNL     1      45.216  12.977  22.168  0.00  0.00    -0.449 OA
ATOM     22  C   UNL     1      45.328  14.226  20.147  0.00  0.00    -0.232 C 
ATOM     23  C   UNL     1      45.594  13.282  19.247  0.00  0.00    +0.205 C 
ATOM     24  C   UNL     1      45.172  15.715  19.893  0.00  0.00    +0.040 C 
ENDROOT
BRANCH  13  14
ATOM     14  C   UNL     1      43.996  20.169  21.690  0.00  0.00    +0.464 C 
ATOM     15  O   UNL     1      44.591  21.127  22.144  0.00  0.00    -0.452 OA
ENDBRANCH  13  14
BRANCH   4   3
ATOM      3  O   UNL     1      46.151  16.155  17.727  0.00  0.00    -0.336 OA
BRANCH   3   2
ATOM      1  C   UNL     1      48.461  15.345  17.403  0.00  0.00    +0.162 C 
ATOM      2  C   UNL     1      46.998  15.375  17.039  0.00  0.00    +0.457 C 
ATOM     25  O   UNL     1      46.590  14.696  16.126  0.00  0.00    -0.503 OA
ENDBRANCH   3   2
ENDBRANCH   4   3
BRANCH   5   6
ATOM      6  C   UNL     1      47.992  17.967  20.005  0.00  0.00    +0.229 C 
BRANCH   6   7
ATOM      7  O   UNL     1      48.811  18.443  18.936  0.00  0.00    -0.359 OA
BRANCH   7   8
ATOM      8  C   UNL     1      50.134  18.503  19.160  0.00  0.00    +0.586 C 
ATOM      9  O   UNL     1      50.899  17.924  18.425  0.00  0.00    -0.471 OA
ENDBRANCH   7   8
ENDBRANCH   6   7
ENDBRANCH   5   6
TORSDOF 6
ENDMDL
MODEL 7
REMARK VINA RESULT:      -4.7      3.275      6.740
REMARK  Name = ZINC95486288
REMARK  7 active torsions:
REMARK  status: ('A' for Active; 'I' for Inactive)
REMARK    1  A    between atoms: C1_1  and  C2_2
REMARK    2  A    between atoms: C2_2  and  O2_4
REMARK    3  A    between atoms: O2_4  and  C3_5
REMARK    4  A    between atoms: C4_7  and  C17_26
REMARK    5  A    between atoms: C8_12  and  C16_24
REMARK    6  A    between atoms: C17_26  and  O6_27
REMARK    7  A    between atoms: O6_27  and  C18_28
REMARK                            x       y       z     vdW  Elec       q    Type
REMARK                         _______ _______ _______ _____ _____    ______ ____
ROOT
ATOM      4  C   UNL     1      49.384  18.838  18.743  0.00  0.00    +0.212 C 
ATOM      5  C   UNL     1      49.701  17.706  17.764  0.00  0.00    +0.014 C 
ATOM     10  C   UNL     1      50.685  16.753  18.387  0.00  0.00    +0.005 C 
ATOM     11  C   UNL     1      50.590  15.443  18.190  0.00  0.00    +0.008 C 
ATOM     12  C   UNL     1      49.536  14.823  17.408  0.00  0.00    +0.126 C 
ATOM     13  C   UNL     1      48.225  15.101  17.574  0.00  0.00    -0.230 C 
ATOM     16  C   UNL     1      47.763  16.045  18.652  0.00  0.00    +0.087 C 
ATOM     17  C   UNL     1      46.586  16.878  18.141  0.00  0.00    +0.060 C 
ATOM     18  C   UNL     1      47.032  18.329  17.961  0.00  0.00    +0.186 C 
ATOM     19  O   UNL     1      45.902  19.206  17.958  0.00  0.00    -0.317 OA
ATOM     20  C   UNL     1      46.154  20.304  18.690  0.00  0.00    +0.510 C 
ATOM     21  O   UNL     1      45.469  21.308  18.682  0.00  0.00    -0.449 OA
ATOM     22  C   UNL     1      47.367  20.133  19.504  0.00  0.00    -0.232 C 
ATOM     23  C   UNL     1      47.884  21.003  20.370  0.00  0.00    +0.205 C 
ATOM     24  C   UNL     1      47.911  18.760  19.150  0.00  0.00    +0.040 C 
ENDROOT
BRANCH  13  14
ATOM     14  C   UNL     1      47.271  14.498  16.725  0.00  0.00    +0.464 C 
ATOM     15  O   UNL     1      47.631  13.726  15.859  0.00  0.00    -0.452 OA
ENDBRANCH  13  14
BRANCH   4   3
ATOM      3  O   UNL     1      50.207  18.710  19.904  0.00  0.00    -0.336 OA
BRANCH   3   2
ATOM      1  C   UNL     1      51.218  20.880  19.298  0.00  0.00    +0.162 C 
ATOM      2  C   UNL     1      51.248  19.551  20.009  0.00  0.00    +0.457 C 
ATOM     25  O   UNL     1      52.210  19.243  20.672  0.00  0.00    -0.503 OA
ENDBRANCH   3   2
ENDBRANCH   4   3
BRANCH   5   6
ATOM      6  C   UNL     1      50.304  18.293  16.486  0.00  0.00    +0.229 C 
BRANCH   6   7
ATOM      7  O   UNL     1      51.714  18.448  16.652  0.00  0.00    -0.359 OA
BRANCH   7   8
ATOM      8  C   UNL     1      52.285  19.514  16.068  0.00  0.00    +0.586 C 
ATOM      9  O   UNL     1      51.596  20.356  15.542  0.00  0.00    -0.471 OA
ENDBRANCH   7   8
ENDBRANCH   6   7
ENDBRANCH   5   6
TORSDOF 6
ENDMDL
MODEL 8
REMARK VINA RESULT:      -4.6      1.837      4.410
REMARK  Name = ZINC95486288
REMARK  7 active torsions:
REMARK  status: ('A' for Active; 'I' for Inactive)
REMARK    1  A    between atoms: C1_1  and  C2_2
REMARK    2  A    between atoms: C2_2  and  O2_4
REMARK    3  A    between atoms: O2_4  and  C3_5
REMARK    4  A    between atoms: C4_7  and  C17_26
REMARK    5  A    between atoms: C8_12  and  C16_24
REMARK    6  A    between atoms: C17_26  and  O6_27
REMARK    7  A    between atoms: O6_27  and  C18_28
REMARK                            x       y       z     vdW  Elec       q    Type
REMARK                         _______ _______ _______ _____ _____    ______ ____
ROOT
ATOM      4  C   UNL     1      45.228  19.577  20.176  0.00  0.00    +0.212 C 
ATOM      5  C   UNL     1      46.415  19.361  19.236  0.00  0.00    +0.014 C 
ATOM     10  C   UNL     1      47.223  20.628  19.135  0.00  0.00    +0.005 C 
ATOM     11  C   UNL     1      48.549  20.592  19.067  0.00  0.00    +0.008 C 
ATOM     12  C   UNL     1      49.323  19.365  19.121  0.00  0.00    +0.126 C 
ATOM     13  C   UNL     1      49.140  18.410  20.059  0.00  0.00    -0.230 C 
ATOM     16  C   UNL     1      48.141  18.598  21.171  0.00  0.00    +0.087 C 
ATOM     17  C   UNL     1      47.458  17.264  21.483  0.00  0.00    +0.060 C 
ATOM     18  C   UNL     1      45.999  17.325  21.033  0.00  0.00    +0.186 C 
ATOM     19  O   UNL     1      45.221  16.335  21.714  0.00  0.00    -0.317 OA
ATOM     20  C   UNL     1      44.043  16.847  22.108  0.00  0.00    +0.510 C 
ATOM     21  O   UNL     1      43.104  16.187  22.505  0.00  0.00    -0.449 OA
ATOM     22  C   UNL     1      44.038  18.314  21.996  0.00  0.00    -0.232 C 
ATOM     23  C   UNL     1      43.053  19.143  22.336  0.00  0.00    +0.205 C 
ATOM     24  C   UNL     1      45.389  18.688  21.411  0.00  0.00    +0.040 C 
ENDROOT
BRANCH  13  14
ATOM     14  C   UNL     1      49.894  17.218  19.999  0.00  0.00    +0.464 C 
ATOM     15  O   UNL     1      49.804  16.492  19.028  0.00  0.00    -0.452 OA
ENDBRANCH  13  14
BRANCH   4   3
ATOM      3  O   UNL     1      45.181  20.948  20.578  0.00  0.00    -0.336 OA
BRANCH   3   2
ATOM      1  C   UNL     1      44.533  23.207  19.822  0.00  0.00    +0.162 C 
ATOM      2  C   UNL     1      44.275  21.730  19.971  0.00  0.00    +0.457 C 
ATOM     25  O   UNL     1      43.251  21.250  19.543  0.00  0.00    -0.503 OA
ENDBRANCH   3   2
ENDBRANCH   4   3
BRANCH   5   6
ATOM      6  C   UNL     1      45.901  18.975  17.848  0.00  0.00    +0.229 C 
BRANCH   6   7
ATOM      7  O   UNL     1      46.735  17.955  17.297  0.00  0.00    -0.359 OA
BRANCH   7   8
ATOM      8  C   UNL     1      46.336  16.684  17.464  0.00  0.00    +0.586 C 
ATOM      9  O   UNL     1      46.751  15.818  16.730  0.00  0.00    -0.471 OA
ENDBRANCH   7   8
ENDBRANCH   6   7
ENDBRANCH   5   6
TORSDOF 6
ENDMDL
MODEL 9
REMARK VINA RESULT:      -4.5      3.237      6.477
REMARK  Name = ZINC95486288
REMARK  7 active torsions:
REMARK  status: ('A' for Active; 'I' for Inactive)
REMARK    1  A    between atoms: C1_1  and  C2_2
REMARK    2  A    between atoms: C2_2  and  O2_4
REMARK    3  A    between atoms: O2_4  and  C3_5
REMARK    4  A    between atoms: C4_7  and  C17_26
REMARK    5  A    between atoms: C8_12  and  C16_24
REMARK    6  A    between atoms: C17_26  and  O6_27
REMARK    7  A    between atoms: O6_27  and  C18_28
REMARK                            x       y       z     vdW  Elec       q    Type
REMARK                         _______ _______ _______ _____ _____    ______ ____
ROOT
ATOM      4  C   UNL     1      48.273  19.742  19.065  0.00  0.00    +0.212 C 
ATOM      5  C   UNL     1      49.759  20.092  19.164  0.00  0.00    +0.014 C 
ATOM     10  C   UNL     1      50.067  20.631  20.536  0.00  0.00    +0.005 C 
ATOM     11  C   UNL     1      51.205  20.330  21.151  0.00  0.00    +0.008 C 
ATOM     12  C   UNL     1      52.213  19.448  20.590  0.00  0.00    +0.126 C 
ATOM     13  C   UNL     1      51.933  18.233  20.071  0.00  0.00    -0.230 C 
ATOM     16  C   UNL     1      50.533  17.680  20.105  0.00  0.00    +0.087 C 
ATOM     17  C   UNL     1      50.252  16.903  18.817  0.00  0.00    +0.060 C 
ATOM     18  C   UNL     1      49.235  17.672  17.973  0.00  0.00    +0.186 C 
ATOM     19  O   UNL     1      48.595  16.799  17.038  0.00  0.00    -0.317 OA
ATOM     20  C   UNL     1      47.275  17.045  16.988  0.00  0.00    +0.510 C 
ATOM     21  O   UNL     1      46.527  16.616  16.132  0.00  0.00    -0.449 OA
ATOM     22  C   UNL     1      46.852  17.903  18.105  0.00  0.00    -0.232 C 
ATOM     23  C   UNL     1      45.615  18.310  18.383  0.00  0.00    +0.205 C 
ATOM     24  C   UNL     1      48.119  18.231  18.876  0.00  0.00    +0.040 C 
ENDROOT
BRANCH  13  14
ATOM     14  C   UNL     1      52.966  17.468  19.487  0.00  0.00    +0.464 C 
ATOM     15  O   UNL     1      53.557  16.639  20.152  0.00  0.00    -0.452 OA
ENDBRANCH  13  14
BRANCH   4   3
ATOM      3  O   UNL     1      47.608  20.142  20.265  0.00  0.00    -0.336 OA
BRANCH   3   2
ATOM      1  C   UNL     1      46.705  22.151  21.381  0.00  0.00    +0.162 C 
ATOM      2  C   UNL     1      46.825  21.230  20.194  0.00  0.00    +0.457 C 
ATOM     25  O   UNL     1      46.216  21.471  19.179  0.00  0.00    -0.503 OA
ENDBRANCH   3   2
ENDBRANCH   4   3
BRANCH   5   6
ATOM      6  C   UNL     1      50.102  21.152  18.115  0.00  0.00    +0.229 C 
BRANCH   6   7
ATOM      7  O   UNL     1      51.450  20.971  17.678  0.00  0.00    -0.359 OA
BRANCH   7   8
ATOM      8  C   UNL     1      51.636  20.302  16.529  0.00  0.00    +0.586 C 
ATOM      9  O   UNL     1      52.213  19.240  16.534  0.00  0.00    -0.471 OA
ENDBRANCH   7   8
ENDBRANCH   6   7
ENDBRANCH   5   6
TORSDOF 6
ENDMDL
