MODEL 1
REMARK VINA RESULT:      -8.0      0.000      0.000
REMARK  Name = ZINC95486001
REMARK  8 active torsions:
REMARK  status: ('A' for Active; 'I' for Inactive)
REMARK    1  A    between atoms: C1_1  and  C2_2
REMARK    2  A    between atoms: C3_3  and  O4_34
REMARK    3  A    between atoms: C11_12  and  C29_33
REMARK    4  A    between atoms: C14_15  and  C28_32
REMARK    5  A    between atoms: C15_16  and  C27_31
REMARK    6  A    between atoms: C18_19  and  C26_30
REMARK    7  A    between atoms: C21_23  and  C24_26
REMARK    8  A    between atoms: C21_23  and  C25_27
REMARK                            x       y       z     vdW  Elec       q    Type
REMARK                         _______ _______ _______ _____ _____    ______ ____
ROOT
ATOM      1  C   UNL     1      40.925  18.497  21.042  0.00  0.00    +0.105 C 
ATOM      2  C   UNL     1      41.833  19.533  20.430  0.00  0.00    -0.064 C 
ATOM      3  C   UNL     1      41.276  20.595  19.787  0.00  0.00    +0.003 C 
ATOM      6  C   UNL     1      42.106  21.585  19.211  0.00  0.00    +0.381 C 
ATOM      7  C   UNL     1      43.503  21.504  19.364  0.00  0.00    -0.117 C 
ATOM      8  C   UNL     1      44.063  20.446  20.007  0.00  0.00    +0.031 C 
ATOM      9  C   UNL     1      45.559  20.427  20.200  0.00  0.00    -0.002 C 
ATOM     10  C   UNL     1      45.836  21.453  21.304  0.00  0.00    +0.070 C 
ATOM     11  C   UNL     1      46.244  20.899  18.921  0.00  0.00    +0.045 C 
ATOM     12  C   UNL     1      47.744  20.627  18.925  0.00  0.00    +0.027 C 
ATOM     13  C   UNL     1      48.034  19.141  19.172  0.00  0.00    -0.025 C 
ATOM     14  C   UNL     1      47.227  18.353  18.132  0.00  0.00    +0.023 C 
ATOM     15  C   UNL     1      47.541  18.780  20.578  0.00  0.00    -0.019 C 
ATOM     16  C   UNL     1      48.278  19.592  21.648  0.00  0.00    +0.045 C 
ATOM     17  C   UNL     1      47.817  17.299  20.840  0.00  0.00    +0.023 C 
ATOM     18  C   UNL     1      49.323  17.038  20.801  0.00  0.00    +0.012 C 
ATOM     19  C   UNL     1      49.928  17.444  19.459  0.00  0.00    -0.043 C 
ATOM     20  C   UNL     1      49.587  16.384  18.414  0.00  0.00    +0.023 C 
ATOM     21  C   UNL     1      51.463  17.472  19.610  0.00  0.00    +0.001 C 
ATOM     22  C   UNL     1      52.118  17.817  18.280  0.00  0.00    +0.015 C 
ATOM     23  C   UNL     1      51.596  19.109  17.668  0.00  0.00    -0.125 C 
ATOM     27  C   UNL     1      52.171  20.315  18.419  0.00  0.00    +0.012 C 
ATOM     28  C   UNL     1      50.069  19.177  17.666  0.00  0.00    +0.041 C 
ATOM     29  C   UNL     1      49.516  18.851  19.050  0.00  0.00    +0.002 C 
ATOM     30  C   UNL     1      46.057  19.075  20.620  0.00  0.00    +0.019 C 
ATOM     31  C   UNL     1      45.222  18.112  21.031  0.00  0.00    -0.065 C 
ATOM     32  C   UNL     1      43.830  18.265  21.043  0.00  0.00    +0.163 C 
ATOM     33  O   UNL     1      41.612  22.513  18.587  0.00  0.00    -0.497 OA
ATOM     34  C   UNL     1      43.240  19.407  20.500  0.00  0.00    -0.119 C 
ENDROOT
BRANCH  23  24
ATOM     24  C   UNL     1      52.072  19.184  16.229  0.00  0.00    +0.498 C 
ATOM     25  O   UNL     1      52.519  20.229  15.789  0.00  0.00    -0.698 OA
ATOM     26  O   UNL     1      52.006  18.199  15.513  0.00  0.00    -0.700 OA
ENDBRANCH  23  24
BRANCH   3   4
ATOM      4  O   UNL     1      39.923  20.701  19.700  0.00  0.00    -0.467 OA
ATOM      5  H   UNL     1      39.509  21.101  20.477  0.00  0.00    +0.400 HD
ENDBRANCH   3   4
TORSDOF 2
ENDMDL
MODEL 2
REMARK VINA RESULT:      -7.4      1.480      1.802
REMARK  Name = ZINC95486001
REMARK  8 active torsions:
REMARK  status: ('A' for Active; 'I' for Inactive)
REMARK    1  A    between atoms: C1_1  and  C2_2
REMARK    2  A    between atoms: C3_3  and  O4_34
REMARK    3  A    between atoms: C11_12  and  C29_33
REMARK    4  A    between atoms: C14_15  and  C28_32
REMARK    5  A    between atoms: C15_16  and  C27_31
REMARK    6  A    between atoms: C18_19  and  C26_30
REMARK    7  A    between atoms: C21_23  and  C24_26
REMARK    8  A    between atoms: C21_23  and  C25_27
REMARK                            x       y       z     vdW  Elec       q    Type
REMARK                         _______ _______ _______ _____ _____    ______ ____
ROOT
ATOM      1  C   UNL     1      40.549  19.601  18.862  0.00  0.00    +0.105 C 
ATOM      2  C   UNL     1      41.641  20.618  19.074  0.00  0.00    -0.064 C 
ATOM      3  C   UNL     1      41.398  21.918  18.756  0.00  0.00    +0.003 C 
ATOM      6  C   UNL     1      42.404  22.893  18.953  0.00  0.00    +0.381 C 
ATOM      7  C   UNL     1      43.628  22.527  19.543  0.00  0.00    -0.117 C 
ATOM      8  C   UNL     1      43.875  21.229  19.865  0.00  0.00    +0.031 C 
ATOM      9  C   UNL     1      45.176  20.889  20.548  0.00  0.00    -0.002 C 
ATOM     10  C   UNL     1      45.017  21.386  21.989  0.00  0.00    +0.070 C 
ATOM     11  C   UNL     1      46.314  21.665  19.894  0.00  0.00    +0.045 C 
ATOM     12  C   UNL     1      47.688  21.160  20.318  0.00  0.00    +0.027 C 
ATOM     13  C   UNL     1      47.834  19.659  20.039  0.00  0.00    -0.025 C 
ATOM     14  C   UNL     1      47.484  19.446  18.560  0.00  0.00    +0.023 C 
ATOM     15  C   UNL     1      46.824  18.905  20.913  0.00  0.00    -0.019 C 
ATOM     16  C   UNL     1      47.097  19.140  22.402  0.00  0.00    +0.045 C 
ATOM     17  C   UNL     1      46.951  17.405  20.644  0.00  0.00    +0.023 C 
ATOM     18  C   UNL     1      48.347  16.924  21.038  0.00  0.00    +0.012 C 
ATOM     19  C   UNL     1      49.435  17.677  20.275  0.00  0.00    -0.043 C 
ATOM     20  C   UNL     1      49.512  17.138  18.848  0.00  0.00    +0.023 C 
ATOM     21  C   UNL     1      50.789  17.388  20.956  0.00  0.00    +0.001 C 
ATOM     22  C   UNL     1      51.918  18.072  20.197  0.00  0.00    +0.015 C 
ATOM     23  C   UNL     1      51.698  19.566  20.008  0.00  0.00    -0.125 C 
ATOM     27  C   UNL     1      51.954  20.305  21.326  0.00  0.00    +0.012 C 
ATOM     28  C   UNL     1      50.296  19.888  19.495  0.00  0.00    +0.041 C 
ATOM     29  C   UNL     1      49.240  19.184  20.343  0.00  0.00    +0.002 C 
ATOM     30  C   UNL     1      45.447  19.413  20.542  0.00  0.00    +0.019 C 
ATOM     31  C   UNL     1      44.501  18.523  20.214  0.00  0.00    -0.065 C 
ATOM     32  C   UNL     1      43.218  18.895  19.794  0.00  0.00    +0.163 C 
ATOM     33  O   UNL     1      42.209  24.053  18.619  0.00  0.00    -0.497 OA
ATOM     34  C   UNL     1      42.907  20.238  19.579  0.00  0.00    -0.119 C 
ENDROOT
BRANCH  23  24
ATOM     24  C   UNL     1      52.700  20.071  18.986  0.00  0.00    +0.498 C 
ATOM     25  O   UNL     1      52.963  19.396  18.005  0.00  0.00    -0.698 OA
ATOM     26  O   UNL     1      53.243  21.151  19.147  0.00  0.00    -0.700 OA
ENDBRANCH  23  24
BRANCH   3   4
ATOM      4  O   UNL     1      40.189  22.276  18.247  0.00  0.00    -0.467 OA
ATOM      5  H   UNL     1      40.206  22.489  17.303  0.00  0.00    +0.400 HD
ENDBRANCH   3   4
TORSDOF 2
ENDMDL
MODEL 3
REMARK VINA RESULT:      -7.1      3.445      8.523
REMARK  Name = ZINC95486001
REMARK  8 active torsions:
REMARK  status: ('A' for Active; 'I' for Inactive)
REMARK    1  A    between atoms: C1_1  and  C2_2
REMARK    2  A    between atoms: C3_3  and  O4_34
REMARK    3  A    between atoms: C11_12  and  C29_33
REMARK    4  A    between atoms: C14_15  and  C28_32
REMARK    5  A    between atoms: C15_16  and  C27_31
REMARK    6  A    between atoms: C18_19  and  C26_30
REMARK    7  A    between atoms: C21_23  and  C24_26
REMARK    8  A    between atoms: C21_23  and  C25_27
REMARK                            x       y       z     vdW  Elec       q    Type
REMARK                         _______ _______ _______ _____ _____    ______ ____
ROOT
ATOM      1  C   UNL     1      51.141  13.277  14.808  0.00  0.00    +0.105 C 
ATOM      2  C   UNL     1      49.794  12.991  15.421  0.00  0.00    -0.064 C 
ATOM      3  C   UNL     1      49.050  11.968  14.921  0.00  0.00    +0.003 C 
ATOM      6  C   UNL     1      47.786  11.674  15.485  0.00  0.00    +0.381 C 
ATOM      7  C   UNL     1      47.333  12.397  16.604  0.00  0.00    -0.117 C 
ATOM      8  C   UNL     1      48.075  13.419  17.108  0.00  0.00    +0.031 C 
ATOM      9  C   UNL     1      47.580  14.129  18.344  0.00  0.00    -0.002 C 
ATOM     10  C   UNL     1      47.839  13.156  19.499  0.00  0.00    +0.070 C 
ATOM     11  C   UNL     1      46.076  14.357  18.234  0.00  0.00    +0.045 C 
ATOM     12  C   UNL     1      45.551  15.325  19.288  0.00  0.00    +0.027 C 
ATOM     13  C   UNL     1      46.301  16.661  19.232  0.00  0.00    -0.025 C 
ATOM     14  C   UNL     1      46.213  17.159  17.783  0.00  0.00    +0.023 C 
ATOM     15  C   UNL     1      47.770  16.407  19.594  0.00  0.00    -0.019 C 
ATOM     16  C   UNL     1      47.901  15.848  21.014  0.00  0.00    +0.045 C 
ATOM     17  C   UNL     1      48.535  17.729  19.537  0.00  0.00    +0.023 C 
ATOM     18  C   UNL     1      47.970  18.700  20.573  0.00  0.00    +0.012 C 
ATOM     19  C   UNL     1      46.482  18.957  20.347  0.00  0.00    -0.043 C 
ATOM     20  C   UNL     1      46.312  19.915  19.169  0.00  0.00    +0.023 C 
ATOM     21  C   UNL     1      45.917  19.657  21.601  0.00  0.00    +0.001 C 
ATOM     22  C   UNL     1      44.445  19.988  21.402  0.00  0.00    +0.015 C 
ATOM     23  C   UNL     1      43.603  18.782  21.011  0.00  0.00    -0.125 C 
ATOM     27  C   UNL     1      43.376  17.883  22.232  0.00  0.00    +0.012 C 
ATOM     28  C   UNL     1      44.235  17.972  19.880  0.00  0.00    +0.041 C 
ATOM     29  C   UNL     1      45.696  17.664  20.193  0.00  0.00    +0.002 C 
ATOM     30  C   UNL     1      48.312  15.417  18.584  0.00  0.00    +0.019 C 
ATOM     31  C   UNL     1      49.438  15.723  17.926  0.00  0.00    -0.065 C 
ATOM     32  C   UNL     1      49.984  14.905  16.929  0.00  0.00    +0.163 C 
ATOM     33  O   UNL     1      47.091  10.790  15.006  0.00  0.00    -0.497 OA
ATOM     34  C   UNL     1      49.293  13.775  16.486  0.00  0.00    -0.119 C 
ENDROOT
BRANCH  23  24
ATOM     24  C   UNL     1      42.249  19.276  20.537  0.00  0.00    +0.498 C 
ATOM     25  O   UNL     1      41.233  18.902  21.097  0.00  0.00    -0.698 OA
ATOM     26  O   UNL     1      42.177  20.047  19.595  0.00  0.00    -0.700 OA
ENDBRANCH  23  24
BRANCH   3   4
ATOM      4  O   UNL     1      49.523  11.230  13.881  0.00  0.00    -0.467 OA
ATOM      5  H   UNL     1      49.390  10.278  13.981  0.00  0.00    +0.400 HD
ENDBRANCH   3   4
TORSDOF 2
ENDMDL
MODEL 4
REMARK VINA RESULT:      -6.9      3.663      5.066
REMARK  Name = ZINC95486001
REMARK  8 active torsions:
REMARK  status: ('A' for Active; 'I' for Inactive)
REMARK    1  A    between atoms: C1_1  and  C2_2
REMARK    2  A    between atoms: C3_3  and  O4_34
REMARK    3  A    between atoms: C11_12  and  C29_33
REMARK    4  A    between atoms: C14_15  and  C28_32
REMARK    5  A    between atoms: C15_16  and  C27_31
REMARK    6  A    between atoms: C18_19  and  C26_30
REMARK    7  A    between atoms: C21_23  and  C24_26
REMARK    8  A    between atoms: C21_23  and  C25_27
REMARK                            x       y       z     vdW  Elec       q    Type
REMARK                         _______ _______ _______ _____ _____    ______ ____
ROOT
ATOM      1  C   UNL     1      42.706  17.433  22.114  0.00  0.00    +0.105 C 
ATOM      2  C   UNL     1      43.654  17.875  21.029  0.00  0.00    -0.064 C 
ATOM      3  C   UNL     1      43.434  19.067  20.411  0.00  0.00    +0.003 C 
ATOM      6  C   UNL     1      44.313  19.509  19.396  0.00  0.00    +0.381 C 
ATOM      7  C   UNL     1      45.453  18.747  19.075  0.00  0.00    -0.117 C 
ATOM      8  C   UNL     1      45.678  17.556  19.692  0.00  0.00    +0.031 C 
ATOM      9  C   UNL     1      46.941  16.799  19.361  0.00  0.00    -0.002 C 
ATOM     10  C   UNL     1      48.066  17.564  20.068  0.00  0.00    +0.070 C 
ATOM     11  C   UNL     1      47.191  16.856  17.858  0.00  0.00    +0.045 C 
ATOM     12  C   UNL     1      48.267  15.875  17.405  0.00  0.00    +0.027 C 
ATOM     13  C   UNL     1      47.925  14.445  17.837  0.00  0.00    -0.025 C 
ATOM     14  C   UNL     1      46.510  14.150  17.322  0.00  0.00    +0.023 C 
ATOM     15  C   UNL     1      47.929  14.389  19.370  0.00  0.00    -0.019 C 
ATOM     16  C   UNL     1      49.310  14.739  19.933  0.00  0.00    +0.045 C 
ATOM     17  C   UNL     1      47.585  12.970  19.820  0.00  0.00    +0.023 C 
ATOM     18  C   UNL     1      48.653  11.995  19.324  0.00  0.00    +0.012 C 
ATOM     19  C   UNL     1      48.784  12.034  17.803  0.00  0.00    -0.043 C 
ATOM     20  C   UNL     1      47.617  11.272  17.179  0.00  0.00    +0.023 C 
ATOM     21  C   UNL     1      50.082  11.298  17.412  0.00  0.00    +0.001 C 
ATOM     22  C   UNL     1      50.231  11.259  15.897  0.00  0.00    +0.015 C 
ATOM     23  C   UNL     1      50.154  12.634  15.249  0.00  0.00    -0.125 C 
ATOM     27  C   UNL     1      51.457  13.403  15.493  0.00  0.00    +0.012 C 
ATOM     28  C   UNL     1      48.966  13.451  15.754  0.00  0.00    +0.041 C 
ATOM     29  C   UNL     1      48.928  13.456  17.279  0.00  0.00    +0.002 C 
ATOM     30  C   UNL     1      46.894  15.383  19.855  0.00  0.00    +0.019 C 
ATOM     31  C   UNL     1      45.957  14.965  20.715  0.00  0.00    -0.065 C 
ATOM     32  C   UNL     1      44.920  15.789  21.170  0.00  0.00    +0.163 C 
ATOM     33  O   UNL     1      44.090  20.554  18.801  0.00  0.00    -0.497 OA
ATOM     34  C   UNL     1      44.748  17.068  20.638  0.00  0.00    -0.119 C 
ENDROOT
BRANCH  23  24
ATOM     24  C   UNL     1      49.994  12.448  13.751  0.00  0.00    +0.498 C 
ATOM     25  O   UNL     1      50.828  11.819  13.123  0.00  0.00    -0.698 OA
ATOM     26  O   UNL     1      49.033  12.930  13.176  0.00  0.00    -0.700 OA
ENDBRANCH  23  24
BRANCH   3   4
ATOM      4  O   UNL     1      42.367  19.830  20.772  0.00  0.00    -0.467 OA
ATOM      5  H   UNL     1      42.435  20.755  20.498  0.00  0.00    +0.400 HD
ENDBRANCH   3   4
TORSDOF 2
ENDMDL
MODEL 5
REMARK VINA RESULT:      -6.8      2.215      3.090
REMARK  Name = ZINC95486001
REMARK  8 active torsions:
REMARK  status: ('A' for Active; 'I' for Inactive)
REMARK    1  A    between atoms: C1_1  and  C2_2
REMARK    2  A    between atoms: C3_3  and  O4_34
REMARK    3  A    between atoms: C11_12  and  C29_33
REMARK    4  A    between atoms: C14_15  and  C28_32
REMARK    5  A    between atoms: C15_16  and  C27_31
REMARK    6  A    between atoms: C18_19  and  C26_30
REMARK    7  A    between atoms: C21_23  and  C24_26
REMARK    8  A    between atoms: C21_23  and  C25_27
REMARK                            x       y       z     vdW  Elec       q    Type
REMARK                         _______ _______ _______ _____ _____    ______ ____
ROOT
ATOM      1  C   UNL     1      41.225  21.566  18.948  0.00  0.00    +0.105 C 
ATOM      2  C   UNL     1      42.675  21.805  19.284  0.00  0.00    -0.064 C 
ATOM      3  C   UNL     1      43.159  23.075  19.236  0.00  0.00    +0.003 C 
ATOM      6  C   UNL     1      44.514  23.327  19.555  0.00  0.00    +0.381 C 
ATOM      7  C   UNL     1      45.339  22.272  19.987  0.00  0.00    -0.117 C 
ATOM      8  C   UNL     1      44.859  21.000  20.038  0.00  0.00    +0.031 C 
ATOM      9  C   UNL     1      45.760  19.909  20.561  0.00  0.00    -0.002 C 
ATOM     10  C   UNL     1      45.813  20.123  22.078  0.00  0.00    +0.070 C 
ATOM     11  C   UNL     1      47.165  20.094  19.999  0.00  0.00    +0.045 C 
ATOM     12  C   UNL     1      48.054  18.877  20.232  0.00  0.00    +0.027 C 
ATOM     13  C   UNL     1      47.412  17.608  19.662  0.00  0.00    -0.025 C 
ATOM     14  C   UNL     1      47.074  17.901  18.194  0.00  0.00    +0.023 C 
ATOM     15  C   UNL     1      46.116  17.331  20.436  0.00  0.00    -0.019 C 
ATOM     16  C   UNL     1      46.400  17.094  21.922  0.00  0.00    +0.045 C 
ATOM     17  C   UNL     1      45.458  16.071  19.876  0.00  0.00    +0.023 C 
ATOM     18  C   UNL     1      46.380  14.869  20.083  0.00  0.00    +0.012 C 
ATOM     19  C   UNL     1      47.736  15.081  19.414  0.00  0.00    -0.043 C 
ATOM     20  C   UNL     1      47.591  14.872  17.908  0.00  0.00    +0.023 C 
ATOM     21  C   UNL     1      48.708  14.005  19.941  0.00  0.00    +0.001 C 
ATOM     22  C   UNL     1      50.063  14.138  19.260  0.00  0.00    +0.015 C 
ATOM     23  C   UNL     1      50.661  15.533  19.375  0.00  0.00    -0.125 C 
ATOM     27  C   UNL     1      51.200  15.757  20.792  0.00  0.00    +0.012 C 
ATOM     28  C   UNL     1      49.657  16.628  19.021  0.00  0.00    +0.041 C 
ATOM     29  C   UNL     1      48.350  16.424  19.782  0.00  0.00    +0.002 C 
ATOM     30  C   UNL     1      45.223  18.541  20.255  0.00  0.00    +0.019 C 
ATOM     31  C   UNL     1      43.970  18.355  19.820  0.00  0.00    -0.065 C 
ATOM     32  C   UNL     1      43.090  19.412  19.560  0.00  0.00    +0.163 C 
ATOM     33  O   UNL     1      44.967  24.459  19.463  0.00  0.00    -0.497 OA
ATOM     34  C   UNL     1      43.533  20.734  19.627  0.00  0.00    -0.119 C 
ENDROOT
BRANCH  23  24
ATOM     24  C   UNL     1      51.828  15.634  18.409  0.00  0.00    +0.498 C 
ATOM     25  O   UNL     1      51.645  15.479  17.214  0.00  0.00    -0.698 OA
ATOM     26  O   UNL     1      52.948  15.870  18.830  0.00  0.00    -0.700 OA
ENDBRANCH  23  24
BRANCH   3   4
ATOM      4  O   UNL     1      42.338  24.100  18.881  0.00  0.00    -0.467 OA
ATOM      5  H   UNL     1      41.397  23.905  18.986  0.00  0.00    +0.400 HD
ENDBRANCH   3   4
TORSDOF 2
ENDMDL
MODEL 6
REMARK VINA RESULT:      -6.5      3.441      7.789
REMARK  Name = ZINC95486001
REMARK  8 active torsions:
REMARK  status: ('A' for Active; 'I' for Inactive)
REMARK    1  A    between atoms: C1_1  and  C2_2
REMARK    2  A    between atoms: C3_3  and  O4_34
REMARK    3  A    between atoms: C11_12  and  C29_33
REMARK    4  A    between atoms: C14_15  and  C28_32
REMARK    5  A    between atoms: C15_16  and  C27_31
REMARK    6  A    between atoms: C18_19  and  C26_30
REMARK    7  A    between atoms: C21_23  and  C24_26
REMARK    8  A    between atoms: C21_23  and  C25_27
REMARK                            x       y       z     vdW  Elec       q    Type
REMARK                         _______ _______ _______ _____ _____    ______ ____
ROOT
ATOM      1  C   UNL     1      50.234  12.461  15.174  0.00  0.00    +0.105 C 
ATOM      2  C   UNL     1      48.897  12.654  15.842  0.00  0.00    -0.064 C 
ATOM      3  C   UNL     1      47.881  11.803  15.534  0.00  0.00    +0.003 C 
ATOM      6  C   UNL     1      46.619  11.958  16.153  0.00  0.00    +0.381 C 
ATOM      7  C   UNL     1      46.437  12.948  17.137  0.00  0.00    -0.117 C 
ATOM      8  C   UNL     1      47.451  13.799  17.449  0.00  0.00    +0.031 C 
ATOM      9  C   UNL     1      47.233  14.808  18.550  0.00  0.00    -0.002 C 
ATOM     10  C   UNL     1      47.290  14.003  19.852  0.00  0.00    +0.070 C 
ATOM     11  C   UNL     1      45.839  15.413  18.419  0.00  0.00    +0.045 C 
ATOM     12  C   UNL     1      45.650  16.646  19.297  0.00  0.00    +0.027 C 
ATOM     13  C   UNL     1      46.722  17.701  19.003  0.00  0.00    -0.025 C 
ATOM     14  C   UNL     1      46.687  17.962  17.491  0.00  0.00    +0.023 C 
ATOM     15  C   UNL     1      48.090  17.122  19.387  0.00  0.00    -0.019 C 
ATOM     16  C   UNL     1      48.149  16.786  20.880  0.00  0.00    +0.045 C 
ATOM     17  C   UNL     1      49.173  18.160  19.095  0.00  0.00    +0.023 C 
ATOM     18  C   UNL     1      48.945  19.403  19.955  0.00  0.00    +0.012 C 
ATOM     19  C   UNL     1      47.567  20.013  19.704  0.00  0.00    -0.043 C 
ATOM     20  C   UNL     1      47.590  20.776  18.381  0.00  0.00    +0.023 C 
ATOM     21  C   UNL     1      47.280  21.034  20.825  0.00  0.00    +0.001 C 
ATOM     22  C   UNL     1      45.939  21.714  20.589  0.00  0.00    +0.015 C 
ATOM     23  C   UNL     1      44.787  20.733  20.421  0.00  0.00    -0.125 C 
ATOM     27  C   UNL     1      44.400  20.141  21.780  0.00  0.00    +0.012 C 
ATOM     28  C   UNL     1      45.117  19.610  19.439  0.00  0.00    +0.041 C 
ATOM     29  C   UNL     1      46.460  18.973  19.784  0.00  0.00    +0.002 C 
ATOM     30  C   UNL     1      48.292  15.871  18.557  0.00  0.00    +0.019 C 
ATOM     31  C   UNL     1      49.420  15.750  17.844  0.00  0.00    -0.065 C 
ATOM     32  C   UNL     1      49.671  14.664  16.997  0.00  0.00    +0.163 C 
ATOM     33  O   UNL     1      45.688  11.229  15.841  0.00  0.00    -0.497 OA
ATOM     34  C   UNL     1      48.683  13.707  16.762  0.00  0.00    -0.119 C 
ENDROOT
BRANCH  23  24
ATOM     24  C   UNL     1      43.588  21.491  19.883  0.00  0.00    +0.498 C 
ATOM     25  O   UNL     1      42.624  20.881  19.452  0.00  0.00    -0.698 OA
ATOM     26  O   UNL     1      43.589  22.711  19.880  0.00  0.00    -0.700 OA
ENDBRANCH  23  24
BRANCH   3   4
ATOM      4  O   UNL     1      48.082  10.806  14.631  0.00  0.00    -0.467 OA
ATOM      5  H   UNL     1      49.013  10.638  14.432  0.00  0.00    +0.400 HD
ENDBRANCH   3   4
TORSDOF 2
ENDMDL
MODEL 7
REMARK VINA RESULT:      -6.4      3.318      8.355
REMARK  Name = ZINC95486001
REMARK  8 active torsions:
REMARK  status: ('A' for Active; 'I' for Inactive)
REMARK    1  A    between atoms: C1_1  and  C2_2
REMARK    2  A    between atoms: C3_3  and  O4_34
REMARK    3  A    between atoms: C11_12  and  C29_33
REMARK    4  A    between atoms: C14_15  and  C28_32
REMARK    5  A    between atoms: C15_16  and  C27_31
REMARK    6  A    between atoms: C18_19  and  C26_30
REMARK    7  A    between atoms: C21_23  and  C24_26
REMARK    8  A    between atoms: C21_23  and  C25_27
REMARK                            x       y       z     vdW  Elec       q    Type
REMARK                         _______ _______ _______ _____ _____    ______ ____
ROOT
ATOM      1  C   UNL     1      51.267  12.651  16.845  0.00  0.00    +0.105 C 
ATOM      2  C   UNL     1      49.837  12.546  17.309  0.00  0.00    -0.064 C 
ATOM      3  C   UNL     1      49.120  11.438  16.981  0.00  0.00    +0.003 C 
ATOM      6  C   UNL     1      47.779  11.312  17.412  0.00  0.00    +0.381 C 
ATOM      7  C   UNL     1      47.212  12.302  18.236  0.00  0.00    -0.117 C 
ATOM      8  C   UNL     1      47.925  13.411  18.568  0.00  0.00    +0.031 C 
ATOM      9  C   UNL     1      47.301  14.419  19.500  0.00  0.00    -0.002 C 
ATOM     10  C   UNL     1      47.352  13.771  20.888  0.00  0.00    +0.070 C 
ATOM     11  C   UNL     1      45.839  14.628  19.121  0.00  0.00    +0.045 C 
ATOM     12  C   UNL     1      45.221  15.839  19.810  0.00  0.00    +0.027 C 
ATOM     13  C   UNL     1      46.034  17.108  19.528  0.00  0.00    -0.025 C 
ATOM     14  C   UNL     1      46.169  17.219  18.004  0.00  0.00    +0.023 C 
ATOM     15  C   UNL     1      47.425  16.939  20.150  0.00  0.00    -0.019 C 
ATOM     16  C   UNL     1      47.334  16.760  21.669  0.00  0.00    +0.045 C 
ATOM     17  C   UNL     1      48.253  18.193  19.874  0.00  0.00    +0.023 C 
ATOM     18  C   UNL     1      47.598  19.404  20.540  0.00  0.00    +0.012 C 
ATOM     19  C   UNL     1      46.169  19.611  20.043  0.00  0.00    -0.043 C 
ATOM     20  C   UNL     1      46.207  20.237  18.651  0.00  0.00    +0.023 C 
ATOM     21  C   UNL     1      45.472  20.615  20.985  0.00  0.00    +0.001 C 
ATOM     22  C   UNL     1      44.058  20.900  20.499  0.00  0.00    +0.015 C 
ATOM     23  C   UNL     1      43.221  19.643  20.308  0.00  0.00    -0.125 C 
ATOM     27  C   UNL     1      42.787  19.089  21.669  0.00  0.00    +0.012 C 
ATOM     28  C   UNL     1      43.963  18.564  19.520  0.00  0.00    +0.041 C 
ATOM     29  C   UNL     1      45.351  18.330  20.108  0.00  0.00    +0.002 C 
ATOM     30  C   UNL     1      48.053  15.717  19.512  0.00  0.00    +0.019 C 
ATOM     31  C   UNL     1      49.272  15.832  18.968  0.00  0.00    -0.065 C 
ATOM     32  C   UNL     1      49.909  14.780  18.298  0.00  0.00    +0.163 C 
ATOM     33  O   UNL     1      47.114  10.342  17.076  0.00  0.00    -0.497 OA
ATOM     34  C   UNL     1      49.233  13.583  18.059  0.00  0.00    -0.119 C 
ENDROOT
BRANCH  23  24
ATOM     24  C   UNL     1      41.970  20.014  19.533  0.00  0.00    +0.498 C 
ATOM     25  O   UNL     1      40.876  19.924  20.064  0.00  0.00    -0.698 OA
ATOM     26  O   UNL     1      42.059  20.402  18.381  0.00  0.00    -0.700 OA
ENDBRANCH  23  24
BRANCH   3   4
ATOM      4  O   UNL     1      49.696  10.453  16.239  0.00  0.00    -0.467 OA
ATOM      5  H   UNL     1      49.449   9.559  16.513  0.00  0.00    +0.400 HD
ENDBRANCH   3   4
TORSDOF 2
ENDMDL
MODEL 8
REMARK VINA RESULT:      -6.3      2.835      4.724
REMARK  Name = ZINC95486001
REMARK  8 active torsions:
REMARK  status: ('A' for Active; 'I' for Inactive)
REMARK    1  A    between atoms: C1_1  and  C2_2
REMARK    2  A    between atoms: C3_3  and  O4_34
REMARK    3  A    between atoms: C11_12  and  C29_33
REMARK    4  A    between atoms: C14_15  and  C28_32
REMARK    5  A    between atoms: C15_16  and  C27_31
REMARK    6  A    between atoms: C18_19  and  C26_30
REMARK    7  A    between atoms: C21_23  and  C24_26
REMARK    8  A    between atoms: C21_23  and  C25_27
REMARK                            x       y       z     vdW  Elec       q    Type
REMARK                         _______ _______ _______ _____ _____    ______ ____
ROOT
ATOM      1  C   UNL     1      45.056  22.604  19.581  0.00  0.00    +0.105 C 
ATOM      2  C   UNL     1      45.027  21.097  19.557  0.00  0.00    -0.064 C 
ATOM      3  C   UNL     1      43.860  20.460  19.842  0.00  0.00    +0.003 C 
ATOM      6  C   UNL     1      43.805  19.046  19.819  0.00  0.00    +0.381 C 
ATOM      7  C   UNL     1      44.938  18.307  19.434  0.00  0.00    -0.117 C 
ATOM      8  C   UNL     1      46.107  18.940  19.146  0.00  0.00    +0.031 C 
ATOM      9  C   UNL     1      47.281  18.114  18.682  0.00  0.00    -0.002 C 
ATOM     10  C   UNL     1      46.951  17.720  17.239  0.00  0.00    +0.070 C 
ATOM     11  C   UNL     1      47.373  16.843  19.519  0.00  0.00    +0.045 C 
ATOM     12  C   UNL     1      48.693  16.106  19.322  0.00  0.00    +0.027 C 
ATOM     13  C   UNL     1      49.886  17.025  19.610  0.00  0.00    -0.025 C 
ATOM     14  C   UNL     1      49.667  17.613  21.010  0.00  0.00    +0.023 C 
ATOM     15  C   UNL     1      49.883  18.158  18.576  0.00  0.00    -0.019 C 
ATOM     16  C   UNL     1      50.037  17.611  17.154  0.00  0.00    +0.045 C 
ATOM     17  C   UNL     1      51.064  19.089  18.851  0.00  0.00    +0.023 C 
ATOM     18  C   UNL     1      52.377  18.324  18.687  0.00  0.00    +0.012 C 
ATOM     19  C   UNL     1      52.444  17.118  19.622  0.00  0.00    -0.043 C 
ATOM     20  C   UNL     1      52.753  17.599  21.039  0.00  0.00    +0.023 C 
ATOM     21  C   UNL     1      53.614  16.220  19.170  0.00  0.00    +0.001 C 
ATOM     22  C   UNL     1      53.759  15.030  20.108  0.00  0.00    +0.015 C 
ATOM     23  C   UNL     1      52.474  14.230  20.270  0.00  0.00    -0.125 C 
ATOM     27  C   UNL     1      52.221  13.384  19.017  0.00  0.00    +0.012 C 
ATOM     28  C   UNL     1      51.265  15.121  20.550  0.00  0.00    +0.041 C 
ATOM     29  C   UNL     1      51.191  16.259  19.535  0.00  0.00    +0.002 C 
ATOM     30  C   UNL     1      48.565  18.890  18.721  0.00  0.00    +0.019 C 
ATOM     31  C   UNL     1      48.583  20.219  18.884  0.00  0.00    -0.065 C 
ATOM     32  C   UNL     1      47.424  20.976  19.092  0.00  0.00    +0.163 C 
ATOM     33  O   UNL     1      42.772  18.467  20.125  0.00  0.00    -0.497 OA
ATOM     34  C   UNL     1      46.190  20.347  19.263  0.00  0.00    -0.119 C 
ENDROOT
BRANCH  23  24
ATOM     24  C   UNL     1      52.644  13.285  21.446  0.00  0.00    +0.498 C 
ATOM     25  O   UNL     1      53.113  13.695  22.494  0.00  0.00    -0.698 OA
ATOM     26  O   UNL     1      52.314  12.116  21.341  0.00  0.00    -0.700 OA
ENDBRANCH  23  24
BRANCH   3   4
ATOM      4  O   UNL     1      42.750  21.183  20.149  0.00  0.00    -0.467 OA
ATOM      5  H   UNL     1      41.918  20.725  19.962  0.00  0.00    +0.400 HD
ENDBRANCH   3   4
TORSDOF 2
ENDMDL
MODEL 9
REMARK VINA RESULT:      -6.2      3.311      7.887
REMARK  Name = ZINC95486001
REMARK  8 active torsions:
REMARK  status: ('A' for Active; 'I' for Inactive)
REMARK    1  A    between atoms: C1_1  and  C2_2
REMARK    2  A    between atoms: C3_3  and  O4_34
REMARK    3  A    between atoms: C11_12  and  C29_33
REMARK    4  A    between atoms: C14_15  and  C28_32
REMARK    5  A    between atoms: C15_16  and  C27_31
REMARK    6  A    between atoms: C18_19  and  C26_30
REMARK    7  A    between atoms: C21_23  and  C24_26
REMARK    8  A    between atoms: C21_23  and  C25_27
REMARK                            x       y       z     vdW  Elec       q    Type
REMARK                         _______ _______ _______ _____ _____    ______ ____
ROOT
ATOM      1  C   UNL     1      51.556  12.729  14.614  0.00  0.00    +0.105 C 
ATOM      2  C   UNL     1      50.228  12.904  15.304  0.00  0.00    -0.064 C 
ATOM      3  C   UNL     1      49.176  12.140  14.905  0.00  0.00    +0.003 C 
ATOM      6  C   UNL     1      47.921  12.280  15.542  0.00  0.00    +0.381 C 
ATOM      7  C   UNL     1      47.782  13.159  16.632  0.00  0.00    -0.117 C 
ATOM      8  C   UNL     1      48.832  13.923  17.036  0.00  0.00    +0.031 C 
ATOM      9  C   UNL     1      48.658  14.809  18.244  0.00  0.00    -0.002 C 
ATOM     10  C   UNL     1      48.677  13.860  19.447  0.00  0.00    +0.070 C 
ATOM     11  C   UNL     1      47.293  15.487  18.187  0.00  0.00    +0.045 C 
ATOM     12  C   UNL     1      47.157  16.619  19.200  0.00  0.00    +0.027 C 
ATOM     13  C   UNL     1      48.276  17.652  19.024  0.00  0.00    -0.025 C 
ATOM     14  C   UNL     1      48.255  18.084  17.552  0.00  0.00    +0.023 C 
ATOM     15  C   UNL     1      49.615  16.973  19.336  0.00  0.00    -0.019 C 
ATOM     16  C   UNL     1      49.657  16.468  20.781  0.00  0.00    +0.045 C 
ATOM     17  C   UNL     1      50.745  17.987  19.160  0.00  0.00    +0.023 C 
ATOM     18  C   UNL     1      50.571  19.134  20.156  0.00  0.00    +0.012 C 
ATOM     19  C   UNL     1      49.222  19.829  19.981  0.00  0.00    -0.043 C 
ATOM     20  C   UNL     1      49.281  20.736  18.752  0.00  0.00    +0.023 C 
ATOM     21  C   UNL     1      48.979  20.728  21.211  0.00  0.00    +0.001 C 
ATOM     22  C   UNL     1      47.670  21.490  21.057  0.00  0.00    +0.015 C 
ATOM     23  C   UNL     1      46.476  20.586  20.783  0.00  0.00    -0.125 C 
ATOM     27  C   UNL     1      46.061  19.862  22.068  0.00  0.00    +0.012 C 
ATOM     28  C   UNL     1      46.757  19.569  19.679  0.00  0.00    +0.041 C 
ATOM     29  C   UNL     1      48.069  18.837  19.945  0.00  0.00    +0.002 C 
ATOM     30  C   UNL     1      49.763  15.817  18.368  0.00  0.00    +0.019 C 
ATOM     31  C   UNL     1      50.885  15.727  17.642  0.00  0.00    -0.065 C 
ATOM     32  C   UNL     1      51.090  14.734  16.676  0.00  0.00    +0.163 C 
ATOM     33  O   UNL     1      46.959  11.633  15.152  0.00  0.00    -0.497 OA
ATOM     34  C   UNL     1      50.060  13.855  16.338  0.00  0.00    -0.119 C 
ENDROOT
BRANCH  23  24
ATOM     24  C   UNL     1      45.312  21.454  20.339  0.00  0.00    +0.498 C 
ATOM     25  O   UNL     1      44.360  21.622  21.081  0.00  0.00    -0.698 OA
ATOM     26  O   UNL     1      45.330  21.981  19.239  0.00  0.00    -0.700 OA
ENDBRANCH  23  24
BRANCH   3   4
ATOM      4  O   UNL     1      49.334  11.244  13.893  0.00  0.00    -0.467 OA
ATOM      5  H   UNL     1      49.554  11.647  13.043  0.00  0.00    +0.400 HD
ENDBRANCH   3   4
TORSDOF 2
ENDMDL
