MODEL 1
REMARK VINA RESULT:      -6.0      0.000      0.000
REMARK  Name = ZINC14584515
REMARK  8 active torsions:
REMARK  status: ('A' for Active; 'I' for Inactive)
REMARK    1  A    between atoms: C1_1  and  C2_2
REMARK    2  A    between atoms: C2_2  and  C23_28
REMARK    3  A    between atoms: C6_6  and  O5_27
REMARK    4  A    between atoms: C13_14  and  O4_26
REMARK    5  A    between atoms: C16_18  and  C18_21
REMARK    6  A    between atoms: C18_21  and  C19_22
REMARK    7  A    between atoms: C18_21  and  C20_23
REMARK    8  A    between atoms: C18_21  and  C21_24
REMARK                            x       y       z     vdW  Elec       q    Type
REMARK                         _______ _______ _______ _____ _____    ______ ____
ROOT
ATOM      1  C   UNL     1      43.263  18.477  22.500  0.00  0.00    +0.086 C 
ATOM      2  C   UNL     1      44.073  18.210  21.230  0.00  0.00    +0.133 C 
ATOM      3  C   UNL     1      43.417  18.929  20.051  0.00  0.00    +0.037 C 
ATOM      4  C   UNL     1      44.094  16.729  20.958  0.00  0.00    -0.050 C 
ATOM      5  C   UNL     1      45.123  16.186  20.308  0.00  0.00    +0.055 C 
ATOM      6  C   UNL     1      46.225  17.075  19.886  0.00  0.00    -0.193 A 
ATOM      7  C   UNL     1      47.152  16.676  18.928  0.00  0.00    +0.246 A 
ATOM     10  C   UNL     1      48.179  17.556  18.562  0.00  0.00    -0.291 A 
ATOM     11  C   UNL     1      49.175  17.168  17.551  0.00  0.00    +0.442 A 
ATOM     12  C   UNL     1      50.222  18.161  17.231  0.00  0.00    -0.213 A 
ATOM     13  C   UNL     1      51.207  17.881  16.284  0.00  0.00    +0.109 A 
ATOM     14  C   UNL     1      52.173  18.822  16.003  0.00  0.00    +0.008 A 
ATOM     15  C   UNL     1      52.169  20.043  16.660  0.00  0.00    +0.067 A 
ATOM     16  C   UNL     1      51.199  20.334  17.600  0.00  0.00    +0.086 A 
ATOM     19  C   UNL     1      50.210  19.394  17.897  0.00  0.00    +0.132 A 
ATOM     20  O   UNL     1      49.260  19.682  18.812  0.00  0.00    -0.202 OA
ATOM     21  O   UNL     1      49.137  16.082  17.001  0.00  0.00    -0.435 OA
ATOM     22  C   UNL     1      48.276  18.827  19.158  0.00  0.00    +0.222 A 
ATOM     23  C   UNL     1      47.340  19.209  20.113  0.00  0.00    -0.141 A 
ATOM     29  C   UNL     1      46.323  18.348  20.476  0.00  0.00    +0.218 A 
ATOM     30  O   UNL     1      45.401  18.706  21.406  0.00  0.00    -0.272 OA
ENDROOT
BRANCH  23  24
ATOM     24  C   UNL     1      47.436  20.570  20.755  0.00  0.00    +0.021 C 
ATOM     27  C   UNL     1      48.888  21.050  20.717  0.00  0.00    +0.045 C 
ATOM     28  C   UNL     1      46.964  20.483  22.207  0.00  0.00    +0.064 C 
BRANCH  24  25
ATOM     25  C   UNL     1      46.565  21.543  20.001  0.00  0.00    -0.019 C 
ATOM     26  C   UNL     1      45.832  22.408  20.655  0.00  0.00    -0.002 C 
ENDBRANCH  24  25
ENDBRANCH  23  24
BRANCH   7   8
ATOM      8  O   UNL     1      47.061  15.450  18.355  0.00  0.00    -0.469 OA
ATOM      9  H   UNL     1      46.320  14.919  18.677  0.00  0.00    +0.402 HD
ENDBRANCH   7   8
BRANCH  16  17
ATOM     17  O   UNL     1      51.206  21.536  18.235  0.00  0.00    -0.478 OA
ATOM     18  H   UNL     1      50.328  21.848  18.496  0.00  0.00    +0.391 HD
ENDBRANCH  16  17
TORSDOF 4
ENDMDL
MODEL 2
REMARK VINA RESULT:      -6.0      2.205      6.007
REMARK  Name = ZINC14584515
REMARK  8 active torsions:
REMARK  status: ('A' for Active; 'I' for Inactive)
REMARK    1  A    between atoms: C1_1  and  C2_2
REMARK    2  A    between atoms: C2_2  and  C23_28
REMARK    3  A    between atoms: C6_6  and  O5_27
REMARK    4  A    between atoms: C13_14  and  O4_26
REMARK    5  A    between atoms: C16_18  and  C18_21
REMARK    6  A    between atoms: C18_21  and  C19_22
REMARK    7  A    between atoms: C18_21  and  C20_23
REMARK    8  A    between atoms: C18_21  and  C21_24
REMARK                            x       y       z     vdW  Elec       q    Type
REMARK                         _______ _______ _______ _____ _____    ______ ____
ROOT
ATOM      1  C   UNL     1      51.894  21.521  19.430  0.00  0.00    +0.086 C 
ATOM      2  C   UNL     1      51.699  20.018  19.221  0.00  0.00    +0.133 C 
ATOM      3  C   UNL     1      52.144  19.271  20.479  0.00  0.00    +0.037 C 
ATOM      4  C   UNL     1      52.538  19.567  18.054  0.00  0.00    -0.050 C 
ATOM      5  C   UNL     1      52.157  18.517  17.327  0.00  0.00    +0.055 C 
ATOM      6  C   UNL     1      50.898  17.836  17.697  0.00  0.00    -0.193 A 
ATOM      7  C   UNL     1      50.601  16.560  17.229  0.00  0.00    +0.246 A 
ATOM     10  C   UNL     1      49.394  15.957  17.609  0.00  0.00    -0.291 A 
ATOM     11  C   UNL     1      49.049  14.607  17.135  0.00  0.00    +0.442 A 
ATOM     12  C   UNL     1      47.754  14.054  17.585  0.00  0.00    -0.213 A 
ATOM     13  C   UNL     1      47.344  12.782  17.189  0.00  0.00    +0.109 A 
ATOM     14  C   UNL     1      46.132  12.288  17.620  0.00  0.00    +0.008 A 
ATOM     15  C   UNL     1      45.322  13.052  18.445  0.00  0.00    +0.067 A 
ATOM     16  C   UNL     1      45.716  14.315  18.847  0.00  0.00    +0.086 A 
ATOM     19  C   UNL     1      46.942  14.832  18.421  0.00  0.00    +0.132 A 
ATOM     20  O   UNL     1      47.327  16.063  18.819  0.00  0.00    -0.202 OA
ATOM     21  O   UNL     1      49.795  13.974  16.410  0.00  0.00    -0.435 OA
ATOM     22  C   UNL     1      48.491  16.635  18.448  0.00  0.00    +0.222 A 
ATOM     23  C   UNL     1      48.805  17.910  18.905  0.00  0.00    -0.141 A 
ATOM     29  C   UNL     1      49.994  18.508  18.538  0.00  0.00    +0.218 A 
ATOM     30  O   UNL     1      50.317  19.752  18.977  0.00  0.00    -0.272 OA
ENDROOT
BRANCH  23  24
ATOM     24  C   UNL     1      47.843  18.642  19.806  0.00  0.00    +0.021 C 
ATOM     27  C   UNL     1      48.149  18.296  21.265  0.00  0.00    +0.045 C 
ATOM     28  C   UNL     1      46.411  18.223  19.472  0.00  0.00    +0.064 C 
BRANCH  24  25
ATOM     25  C   UNL     1      47.994  20.127  19.600  0.00  0.00    -0.019 C 
ATOM     26  C   UNL     1      46.993  20.827  19.130  0.00  0.00    -0.002 C 
ENDBRANCH  24  25
ENDBRANCH  23  24
BRANCH   7   8
ATOM      8  O   UNL     1      51.470  15.907  16.418  0.00  0.00    -0.469 OA
ATOM      9  H   UNL     1      51.979  15.215  16.862  0.00  0.00    +0.402 HD
ENDBRANCH   7   8
BRANCH  16  17
ATOM     17  O   UNL     1      44.912  15.052  19.658  0.00  0.00    -0.478 OA
ATOM     18  H   UNL     1      44.316  14.524  20.207  0.00  0.00    +0.391 HD
ENDBRANCH  16  17
TORSDOF 4
ENDMDL
MODEL 3
REMARK VINA RESULT:      -5.7      1.395      6.170
REMARK  Name = ZINC14584515
REMARK  8 active torsions:
REMARK  status: ('A' for Active; 'I' for Inactive)
REMARK    1  A    between atoms: C1_1  and  C2_2
REMARK    2  A    between atoms: C2_2  and  C23_28
REMARK    3  A    between atoms: C6_6  and  O5_27
REMARK    4  A    between atoms: C13_14  and  O4_26
REMARK    5  A    between atoms: C16_18  and  C18_21
REMARK    6  A    between atoms: C18_21  and  C19_22
REMARK    7  A    between atoms: C18_21  and  C20_23
REMARK    8  A    between atoms: C18_21  and  C21_24
REMARK                            x       y       z     vdW  Elec       q    Type
REMARK                         _______ _______ _______ _____ _____    ______ ____
ROOT
ATOM      1  C   UNL     1      52.211  19.270  16.537  0.00  0.00    +0.086 C 
ATOM      2  C   UNL     1      51.352  18.435  17.489  0.00  0.00    +0.133 C 
ATOM      3  C   UNL     1      52.035  18.367  18.857  0.00  0.00    +0.037 C 
ATOM      4  C   UNL     1      51.210  17.041  16.936  0.00  0.00    -0.050 C 
ATOM      5  C   UNL     1      50.127  16.319  17.222  0.00  0.00    +0.055 C 
ATOM      6  C   UNL     1      49.088  16.934  18.073  0.00  0.00    -0.193 A 
ATOM      7  C   UNL     1      48.110  16.161  18.693  0.00  0.00    +0.246 A 
ATOM     10  C   UNL     1      47.146  16.792  19.491  0.00  0.00    -0.291 A 
ATOM     11  C   UNL     1      46.100  16.006  20.164  0.00  0.00    +0.442 A 
ATOM     12  C   UNL     1      45.125  16.758  20.983  0.00  0.00    -0.213 A 
ATOM     13  C   UNL     1      44.099  16.097  21.659  0.00  0.00    +0.109 A 
ATOM     14  C   UNL     1      43.202  16.818  22.416  0.00  0.00    +0.008 A 
ATOM     15  C   UNL     1      43.317  18.197  22.505  0.00  0.00    +0.067 A 
ATOM     16  C   UNL     1      44.329  18.865  21.842  0.00  0.00    +0.086 A 
ATOM     19  C   UNL     1      45.249  18.151  21.071  0.00  0.00    +0.132 A 
ATOM     20  O   UNL     1      46.239  18.804  20.428  0.00  0.00    -0.202 OA
ATOM     21  O   UNL     1      46.040  14.795  20.054  0.00  0.00    -0.435 OA
ATOM     22  C   UNL     1      47.162  18.188  19.662  0.00  0.00    +0.222 A 
ATOM     23  C   UNL     1      48.147  18.944  19.035  0.00  0.00    -0.141 A 
ATOM     29  C   UNL     1      49.102  18.329  18.249  0.00  0.00    +0.218 A 
ATOM     30  O   UNL     1      50.072  19.052  17.631  0.00  0.00    -0.272 OA
ENDROOT
BRANCH  23  24
ATOM     24  C   UNL     1      48.173  20.440  19.213  0.00  0.00    +0.021 C 
ATOM     27  C   UNL     1      46.821  21.025  18.800  0.00  0.00    +0.045 C 
ATOM     28  C   UNL     1      49.276  21.039  18.340  0.00  0.00    +0.064 C 
BRANCH  24  25
ATOM     25  C   UNL     1      48.442  20.769  20.659  0.00  0.00    -0.019 C 
ATOM     26  C   UNL     1      49.668  20.751  21.117  0.00  0.00    -0.002 C 
ENDBRANCH  24  25
ENDBRANCH  23  24
BRANCH   7   8
ATOM      8  O   UNL     1      48.092  14.816  18.528  0.00  0.00    -0.469 OA
ATOM      9  H   UNL     1      47.216  14.418  18.627  0.00  0.00    +0.402 HD
ENDBRANCH   7   8
BRANCH  16  17
ATOM     17  O   UNL     1      44.430  20.217  21.941  0.00  0.00    -0.478 OA
ATOM     18  H   UNL     1      44.327  20.682  21.098  0.00  0.00    +0.391 HD
ENDBRANCH  16  17
TORSDOF 4
ENDMDL
MODEL 4
REMARK VINA RESULT:      -5.7      1.800      3.315
REMARK  Name = ZINC14584515
REMARK  8 active torsions:
REMARK  status: ('A' for Active; 'I' for Inactive)
REMARK    1  A    between atoms: C1_1  and  C2_2
REMARK    2  A    between atoms: C2_2  and  C23_28
REMARK    3  A    between atoms: C6_6  and  O5_27
REMARK    4  A    between atoms: C13_14  and  O4_26
REMARK    5  A    between atoms: C16_18  and  C18_21
REMARK    6  A    between atoms: C18_21  and  C19_22
REMARK    7  A    between atoms: C18_21  and  C20_23
REMARK    8  A    between atoms: C18_21  and  C21_24
REMARK                            x       y       z     vdW  Elec       q    Type
REMARK                         _______ _______ _______ _____ _____    ______ ____
ROOT
ATOM      1  C   UNL     1      45.671  22.368  21.720  0.00  0.00    +0.086 C 
ATOM      2  C   UNL     1      45.737  21.237  20.692  0.00  0.00    +0.133 C 
ATOM      3  C   UNL     1      45.588  21.822  19.287  0.00  0.00    +0.037 C 
ATOM      4  C   UNL     1      44.612  20.268  20.947  0.00  0.00    -0.050 C 
ATOM      5  C   UNL     1      44.749  18.986  20.612  0.00  0.00    +0.055 C 
ATOM      6  C   UNL     1      46.027  18.559  20.005  0.00  0.00    -0.193 A 
ATOM      7  C   UNL     1      46.138  17.351  19.325  0.00  0.00    +0.246 A 
ATOM     10  C   UNL     1      47.372  16.992  18.767  0.00  0.00    -0.291 A 
ATOM     11  C   UNL     1      47.525  15.723  18.037  0.00  0.00    +0.442 A 
ATOM     12  C   UNL     1      48.864  15.428  17.486  0.00  0.00    -0.213 A 
ATOM     13  C   UNL     1      49.102  14.249  16.779  0.00  0.00    +0.109 A 
ATOM     14  C   UNL     1      50.359  13.996  16.274  0.00  0.00    +0.008 A 
ATOM     15  C   UNL     1      51.385  14.908  16.470  0.00  0.00    +0.067 A 
ATOM     16  C   UNL     1      51.163  16.080  17.168  0.00  0.00    +0.086 A 
ATOM     19  C   UNL     1      49.896  16.355  17.685  0.00  0.00    +0.132 A 
ATOM     20  O   UNL     1      49.680  17.503  18.362  0.00  0.00    -0.202 OA
ATOM     21  O   UNL     1      46.592  14.953  17.893  0.00  0.00    -0.435 OA
ATOM     22  C   UNL     1      48.488  17.840  18.896  0.00  0.00    +0.222 A 
ATOM     23  C   UNL     1      48.358  19.043  19.579  0.00  0.00    -0.141 A 
ATOM     29  C   UNL     1      47.144  19.405  20.129  0.00  0.00    +0.218 A 
ATOM     30  O   UNL     1      47.000  20.578  20.798  0.00  0.00    -0.272 OA
ENDROOT
BRANCH  23  24
ATOM     24  C   UNL     1      49.548  19.958  19.721  0.00  0.00    +0.021 C 
ATOM     27  C   UNL     1      50.819  19.120  19.869  0.00  0.00    +0.045 C 
ATOM     28  C   UNL     1      49.370  20.839  20.958  0.00  0.00    +0.064 C 
BRANCH  24  25
ATOM     25  C   UNL     1      49.660  20.829  18.496  0.00  0.00    -0.019 C 
ATOM     26  C   UNL     1      50.832  21.053  17.957  0.00  0.00    -0.002 C 
ENDBRANCH  24  25
ENDBRANCH  23  24
BRANCH   7   8
ATOM      8  O   UNL     1      45.064  16.532  19.202  0.00  0.00    -0.469 OA
ATOM      9  H   UNL     1      44.214  16.975  19.328  0.00  0.00    +0.402 HD
ENDBRANCH   7   8
BRANCH  16  17
ATOM     17  O   UNL     1      52.179  16.965  17.349  0.00  0.00    -0.478 OA
ATOM     18  H   UNL     1      51.893  17.889  17.387  0.00  0.00    +0.391 HD
ENDBRANCH  16  17
TORSDOF 4
ENDMDL
MODEL 5
REMARK VINA RESULT:      -5.7      2.480      5.640
REMARK  Name = ZINC14584515
REMARK  8 active torsions:
REMARK  status: ('A' for Active; 'I' for Inactive)
REMARK    1  A    between atoms: C1_1  and  C2_2
REMARK    2  A    between atoms: C2_2  and  C23_28
REMARK    3  A    between atoms: C6_6  and  O5_27
REMARK    4  A    between atoms: C13_14  and  O4_26
REMARK    5  A    between atoms: C16_18  and  C18_21
REMARK    6  A    between atoms: C18_21  and  C19_22
REMARK    7  A    between atoms: C18_21  and  C20_23
REMARK    8  A    between atoms: C18_21  and  C21_24
REMARK                            x       y       z     vdW  Elec       q    Type
REMARK                         _______ _______ _______ _____ _____    ______ ____
ROOT
ATOM      1  C   UNL     1      51.861  15.540  18.115  0.00  0.00    +0.086 C 
ATOM      2  C   UNL     1      50.440  16.002  18.442  0.00  0.00    +0.133 C 
ATOM      3  C   UNL     1      49.997  15.375  19.765  0.00  0.00    +0.037 C 
ATOM      4  C   UNL     1      49.509  15.555  17.346  0.00  0.00    -0.050 C 
ATOM      5  C   UNL     1      48.407  16.256  17.081  0.00  0.00    +0.055 C 
ATOM      6  C   UNL     1      48.148  17.471  17.882  0.00  0.00    -0.193 A 
ATOM      7  C   UNL     1      46.888  18.060  17.916  0.00  0.00    +0.246 A 
ATOM     10  C   UNL     1      46.694  19.212  18.691  0.00  0.00    -0.291 A 
ATOM     11  C   UNL     1      45.374  19.860  18.752  0.00  0.00    +0.442 A 
ATOM     12  C   UNL     1      45.265  21.071  19.593  0.00  0.00    -0.213 A 
ATOM     13  C   UNL     1      44.053  21.751  19.713  0.00  0.00    +0.109 A 
ATOM     14  C   UNL     1      43.976  22.877  20.502  0.00  0.00    +0.008 A 
ATOM     15  C   UNL     1      45.098  23.335  21.176  0.00  0.00    +0.067 A 
ATOM     16  C   UNL     1      46.305  22.670  21.067  0.00  0.00    +0.086 A 
ATOM     19  C   UNL     1      46.403  21.526  20.273  0.00  0.00    +0.132 A 
ATOM     20  O   UNL     1      47.581  20.875  20.172  0.00  0.00    -0.202 OA
ATOM     21  O   UNL     1      44.417  19.421  18.140  0.00  0.00    -0.435 OA
ATOM     22  C   UNL     1      47.759  19.768  19.423  0.00  0.00    +0.222 A 
ATOM     23  C   UNL     1      49.010  19.164  19.378  0.00  0.00    -0.141 A 
ATOM     29  C   UNL     1      49.209  18.027  18.619  0.00  0.00    +0.218 A 
ATOM     30  O   UNL     1      50.424  17.425  18.565  0.00  0.00    -0.272 OA
ENDROOT
BRANCH  23  24
ATOM     24  C   UNL     1      50.156  19.752  20.161  0.00  0.00    +0.021 C 
ATOM     27  C   UNL     1      51.355  18.804  20.098  0.00  0.00    +0.045 C 
ATOM     28  C   UNL     1      49.732  19.944  21.618  0.00  0.00    +0.064 C 
BRANCH  24  25
ATOM     25  C   UNL     1      50.537  21.085  19.569  0.00  0.00    -0.019 C 
ATOM     26  C   UNL     1      51.171  21.135  18.425  0.00  0.00    -0.002 C 
ENDBRANCH  24  25
ENDBRANCH  23  24
BRANCH   7   8
ATOM      8  O   UNL     1      45.862  17.527  17.208  0.00  0.00    -0.469 OA
ATOM      9  H   UNL     1      45.698  16.593  17.396  0.00  0.00    +0.402 HD
ENDBRANCH   7   8
BRANCH  16  17
ATOM     17  O   UNL     1      47.396  23.129  21.735  0.00  0.00    -0.478 OA
ATOM     18  H   UNL     1      48.234  22.965  21.280  0.00  0.00    +0.391 HD
ENDBRANCH  16  17
TORSDOF 4
ENDMDL
MODEL 6
REMARK VINA RESULT:      -5.7      1.939      4.472
REMARK  Name = ZINC14584515
REMARK  8 active torsions:
REMARK  status: ('A' for Active; 'I' for Inactive)
REMARK    1  A    between atoms: C1_1  and  C2_2
REMARK    2  A    between atoms: C2_2  and  C23_28
REMARK    3  A    between atoms: C6_6  and  O5_27
REMARK    4  A    between atoms: C13_14  and  O4_26
REMARK    5  A    between atoms: C16_18  and  C18_21
REMARK    6  A    between atoms: C18_21  and  C19_22
REMARK    7  A    between atoms: C18_21  and  C20_23
REMARK    8  A    between atoms: C18_21  and  C21_24
REMARK                            x       y       z     vdW  Elec       q    Type
REMARK                         _______ _______ _______ _____ _____    ______ ____
ROOT
ATOM      1  C   UNL     1      45.111  13.324  21.373  0.00  0.00    +0.086 C 
ATOM      2  C   UNL     1      45.959  14.597  21.376  0.00  0.00    +0.133 C 
ATOM      3  C   UNL     1      47.092  14.447  22.393  0.00  0.00    +0.037 C 
ATOM      4  C   UNL     1      45.095  15.767  21.766  0.00  0.00    -0.050 C 
ATOM      5  C   UNL     1      45.390  16.989  21.323  0.00  0.00    +0.055 C 
ATOM      6  C   UNL     1      46.566  17.143  20.442  0.00  0.00    -0.193 A 
ATOM      7  C   UNL     1      47.142  18.389  20.214  0.00  0.00    +0.246 A 
ATOM     10  C   UNL     1      48.257  18.482  19.369  0.00  0.00    -0.291 A 
ATOM     11  C   UNL     1      48.893  19.783  19.108  0.00  0.00    +0.442 A 
ATOM     12  C   UNL     1      50.062  19.783  18.203  0.00  0.00    -0.213 A 
ATOM     13  C   UNL     1      50.729  20.969  17.898  0.00  0.00    +0.109 A 
ATOM     14  C   UNL     1      51.816  20.945  17.052  0.00  0.00    +0.008 A 
ATOM     15  C   UNL     1      52.244  19.747  16.502  0.00  0.00    +0.067 A 
ATOM     16  C   UNL     1      51.593  18.563  16.796  0.00  0.00    +0.086 A 
ATOM     19  C   UNL     1      50.490  18.568  17.653  0.00  0.00    +0.132 A 
ATOM     20  O   UNL     1      49.859  17.411  17.943  0.00  0.00    -0.202 OA
ATOM     21  O   UNL     1      48.478  20.810  19.614  0.00  0.00    -0.435 OA
ATOM     22  C   UNL     1      48.786  17.331  18.756  0.00  0.00    +0.222 A 
ATOM     23  C   UNL     1      48.198  16.095  18.996  0.00  0.00    -0.141 A 
ATOM     29  C   UNL     1      47.101  15.995  19.830  0.00  0.00    +0.218 A 
ATOM     30  O   UNL     1      46.515  14.795  20.076  0.00  0.00    -0.272 OA
ENDROOT
BRANCH  23  24
ATOM     24  C   UNL     1      48.759  14.857  18.345  0.00  0.00    +0.021 C 
ATOM     27  C   UNL     1      49.789  14.214  19.276  0.00  0.00    +0.045 C 
ATOM     28  C   UNL     1      49.432  15.236  17.025  0.00  0.00    +0.064 C 
BRANCH  24  25
ATOM     25  C   UNL     1      47.644  13.880  18.078  0.00  0.00    -0.019 C 
ATOM     26  C   UNL     1      47.248  13.658  16.850  0.00  0.00    -0.002 C 
ENDBRANCH  24  25
ENDBRANCH  23  24
BRANCH   7   8
ATOM      8  O   UNL     1      46.631  19.498  20.802  0.00  0.00    -0.469 OA
ATOM      9  H   UNL     1      47.205  19.886  21.477  0.00  0.00    +0.402 HD
ENDBRANCH   7   8
BRANCH  16  17
ATOM     17  O   UNL     1      52.026  17.396  16.251  0.00  0.00    -0.478 OA
ATOM     18  H   UNL     1      52.852  17.066  16.632  0.00  0.00    +0.391 HD
ENDBRANCH  16  17
TORSDOF 4
ENDMDL
MODEL 7
REMARK VINA RESULT:      -5.6      1.779      6.110
REMARK  Name = ZINC14584515
REMARK  8 active torsions:
REMARK  status: ('A' for Active; 'I' for Inactive)
REMARK    1  A    between atoms: C1_1  and  C2_2
REMARK    2  A    between atoms: C2_2  and  C23_28
REMARK    3  A    between atoms: C6_6  and  O5_27
REMARK    4  A    between atoms: C13_14  and  O4_26
REMARK    5  A    between atoms: C16_18  and  C18_21
REMARK    6  A    between atoms: C18_21  and  C19_22
REMARK    7  A    between atoms: C18_21  and  C20_23
REMARK    8  A    between atoms: C18_21  and  C21_24
REMARK                            x       y       z     vdW  Elec       q    Type
REMARK                         _______ _______ _______ _____ _____    ______ ____
ROOT
ATOM      1  C   UNL     1      52.045  20.933  16.568  0.00  0.00    +0.086 C 
ATOM      2  C   UNL     1      51.656  19.583  17.175  0.00  0.00    +0.133 C 
ATOM      3  C   UNL     1      52.551  19.295  18.382  0.00  0.00    +0.037 C 
ATOM      4  C   UNL     1      51.851  18.502  16.144  0.00  0.00    -0.050 C 
ATOM      5  C   UNL     1      51.104  17.400  16.186  0.00  0.00    +0.055 C 
ATOM      6  C   UNL     1      50.089  17.290  17.255  0.00  0.00    -0.193 A 
ATOM      7  C   UNL     1      49.513  16.066  17.582  0.00  0.00    +0.246 A 
ATOM     10  C   UNL     1      48.554  16.015  18.604  0.00  0.00    -0.291 A 
ATOM     11  C   UNL     1      47.926  14.738  18.978  0.00  0.00    +0.442 A 
ATOM     12  C   UNL     1      46.925  14.781  20.065  0.00  0.00    -0.213 A 
ATOM     13  C   UNL     1      46.279  13.620  20.489  0.00  0.00    +0.109 A 
ATOM     14  C   UNL     1      45.349  13.685  21.503  0.00  0.00    +0.008 A 
ATOM     15  C   UNL     1      45.053  14.901  22.100  0.00  0.00    +0.067 A 
ATOM     16  C   UNL     1      45.686  16.060  21.691  0.00  0.00    +0.086 A 
ATOM     19  C   UNL     1      46.633  16.013  20.666  0.00  0.00    +0.132 A 
ATOM     20  O   UNL     1      47.254  17.145  20.271  0.00  0.00    -0.202 OA
ATOM     21  O   UNL     1      48.219  13.694  18.423  0.00  0.00    -0.435 OA
ATOM     22  C   UNL     1      48.175  17.185  19.287  0.00  0.00    +0.222 A 
ATOM     23  C   UNL     1      48.762  18.398  18.946  0.00  0.00    -0.141 A 
ATOM     29  C   UNL     1      49.710  18.456  17.942  0.00  0.00    +0.218 A 
ATOM     30  O   UNL     1      50.293  19.633  17.598  0.00  0.00    -0.272 OA
ENDROOT
BRANCH  23  24
ATOM     24  C   UNL     1      48.362  19.656  19.674  0.00  0.00    +0.021 C 
ATOM     27  C   UNL     1      49.122  20.847  19.086  0.00  0.00    +0.045 C 
ATOM     28  C   UNL     1      48.703  19.516  21.158  0.00  0.00    +0.064 C 
BRANCH  24  25
ATOM     25  C   UNL     1      46.880  19.878  19.517  0.00  0.00    -0.019 C 
ATOM     26  C   UNL     1      46.439  20.787  18.685  0.00  0.00    -0.002 C 
ENDBRANCH  24  25
ENDBRANCH  23  24
BRANCH   7   8
ATOM      8  O   UNL     1      49.875  14.939  16.923  0.00  0.00    -0.469 OA
ATOM      9  H   UNL     1      49.163  14.291  16.829  0.00  0.00    +0.402 HD
ENDBRANCH   7   8
BRANCH  16  17
ATOM     17  O   UNL     1      45.388  17.244  22.287  0.00  0.00    -0.478 OA
ATOM     18  H   UNL     1      46.063  17.554  22.907  0.00  0.00    +0.391 HD
ENDBRANCH  16  17
TORSDOF 4
ENDMDL
MODEL 8
REMARK VINA RESULT:      -5.6      2.439      6.104
REMARK  Name = ZINC14584515
REMARK  8 active torsions:
REMARK  status: ('A' for Active; 'I' for Inactive)
REMARK    1  A    between atoms: C1_1  and  C2_2
REMARK    2  A    between atoms: C2_2  and  C23_28
REMARK    3  A    between atoms: C6_6  and  O5_27
REMARK    4  A    between atoms: C13_14  and  O4_26
REMARK    5  A    between atoms: C16_18  and  C18_21
REMARK    6  A    between atoms: C18_21  and  C19_22
REMARK    7  A    between atoms: C18_21  and  C20_23
REMARK    8  A    between atoms: C18_21  and  C21_24
REMARK                            x       y       z     vdW  Elec       q    Type
REMARK                         _______ _______ _______ _____ _____    ______ ____
ROOT
ATOM      1  C   UNL     1      51.748  21.332  20.204  0.00  0.00    +0.086 C 
ATOM      2  C   UNL     1      50.551  20.531  19.687  0.00  0.00    +0.133 C 
ATOM      3  C   UNL     1      50.055  21.151  18.380  0.00  0.00    +0.037 C 
ATOM      4  C   UNL     1      49.445  20.577  20.709  0.00  0.00    -0.050 C 
ATOM      5  C   UNL     1      48.573  19.573  20.792  0.00  0.00    +0.055 C 
ATOM      6  C   UNL     1      48.741  18.430  19.870  0.00  0.00    -0.193 A 
ATOM      7  C   UNL     1      47.711  17.520  19.651  0.00  0.00    +0.246 A 
ATOM     10  C   UNL     1      47.920  16.453  18.766  0.00  0.00    -0.291 A 
ATOM     11  C   UNL     1      46.852  15.474  18.508  0.00  0.00    +0.442 A 
ATOM     12  C   UNL     1      47.165  14.381  17.563  0.00  0.00    -0.213 A 
ATOM     13  C   UNL     1      46.214  13.408  17.256  0.00  0.00    +0.109 A 
ATOM     14  C   UNL     1      46.528  12.399  16.372  0.00  0.00    +0.008 A 
ATOM     15  C   UNL     1      47.785  12.349  15.790  0.00  0.00    +0.067 A 
ATOM     16  C   UNL     1      48.737  13.307  16.084  0.00  0.00    +0.086 A 
ATOM     19  C   UNL     1      48.437  14.339  16.976  0.00  0.00    +0.132 A 
ATOM     20  O   UNL     1      49.365  15.277  17.258  0.00  0.00    -0.202 OA
ATOM     21  O   UNL     1      45.763  15.560  19.046  0.00  0.00    -0.435 OA
ATOM     22  C   UNL     1      49.155  16.300  18.111  0.00  0.00    +0.222 A 
ATOM     23  C   UNL     1      50.172  17.219  18.343  0.00  0.00    -0.141 A 
ATOM     29  C   UNL     1      49.973  18.275  19.210  0.00  0.00    +0.218 A 
ATOM     30  O   UNL     1      50.955  19.183  19.447  0.00  0.00    -0.272 OA
ENDROOT
BRANCH  23  24
ATOM     24  C   UNL     1      51.499  17.063  17.643  0.00  0.00    +0.021 C 
ATOM     27  C   UNL     1      51.835  15.576  17.515  0.00  0.00    +0.045 C 
ATOM     28  C   UNL     1      52.588  17.765  18.455  0.00  0.00    +0.064 C 
BRANCH  24  25
ATOM     25  C   UNL     1      51.418  17.680  16.271  0.00  0.00    -0.019 C 
ATOM     26  C   UNL     1      51.838  18.905  16.078  0.00  0.00    -0.002 C 
ENDBRANCH  24  25
ENDBRANCH  23  24
BRANCH   7   8
ATOM      8  O   UNL     1      46.521  17.665  20.283  0.00  0.00    -0.469 OA
ATOM      9  H   UNL     1      46.566  17.540  21.241  0.00  0.00    +0.402 HD
ENDBRANCH   7   8
BRANCH  16  17
ATOM     17  O   UNL     1      49.965  13.247  15.504  0.00  0.00    -0.478 OA
ATOM     18  H   UNL     1      50.203  14.039  15.003  0.00  0.00    +0.391 HD
ENDBRANCH  16  17
TORSDOF 4
ENDMDL
MODEL 9
REMARK VINA RESULT:      -5.5     20.477     23.334
REMARK  Name = ZINC14584515
REMARK  8 active torsions:
REMARK  status: ('A' for Active; 'I' for Inactive)
REMARK    1  A    between atoms: C1_1  and  C2_2
REMARK    2  A    between atoms: C2_2  and  C23_28
REMARK    3  A    between atoms: C6_6  and  O5_27
REMARK    4  A    between atoms: C13_14  and  O4_26
REMARK    5  A    between atoms: C16_18  and  C18_21
REMARK    6  A    between atoms: C18_21  and  C19_22
REMARK    7  A    between atoms: C18_21  and  C20_23
REMARK    8  A    between atoms: C18_21  and  C21_24
REMARK                            x       y       z     vdW  Elec       q    Type
REMARK                         _______ _______ _______ _____ _____    ______ ____
ROOT
ATOM      1  C   UNL     1      59.323  30.637  -0.702  0.00  0.00    +0.086 C 
ATOM      2  C   UNL     1      57.965  30.554  -0.002  0.00  0.00    +0.133 C 
ATOM      3  C   UNL     1      57.871  29.233   0.763  0.00  0.00    +0.037 C 
ATOM      4  C   UNL     1      56.871  30.607  -1.035  0.00  0.00    -0.050 C 
ATOM      5  C   UNL     1      55.676  31.104  -0.715  0.00  0.00    +0.055 C 
ATOM      6  C   UNL     1      55.479  31.603   0.662  0.00  0.00    -0.193 A 
ATOM      7  C   UNL     1      54.205  31.816   1.178  0.00  0.00    +0.246 A 
ATOM     10  C   UNL     1      54.070  32.290   2.491  0.00  0.00    -0.291 A 
ATOM     11  C   UNL     1      52.738  32.524   3.070  0.00  0.00    +0.442 A 
ATOM     12  C   UNL     1      52.695  33.027   4.460  0.00  0.00    -0.213 A 
ATOM     13  C   UNL     1      51.477  33.276   5.092  0.00  0.00    +0.109 A 
ATOM     14  C   UNL     1      51.462  33.745   6.388  0.00  0.00    +0.008 A 
ATOM     15  C   UNL     1      52.653  33.969   7.062  0.00  0.00    +0.067 A 
ATOM     16  C   UNL     1      53.867  33.726   6.448  0.00  0.00    +0.086 A 
ATOM     19  C   UNL     1      53.903  33.249   5.135  0.00  0.00    +0.132 A 
ATOM     20  O   UNL     1      55.089  33.007   4.539  0.00  0.00    -0.202 OA
ATOM     21  O   UNL     1      51.720  32.313   2.437  0.00  0.00    -0.435 OA
ATOM     22  C   UNL     1      55.208  32.551   3.275  0.00  0.00    +0.222 A 
ATOM     23  C   UNL     1      56.473  32.332   2.742  0.00  0.00    -0.141 A 
ATOM     29  C   UNL     1      56.614  31.862   1.451  0.00  0.00    +0.218 A 
ATOM     30  O   UNL     1      57.842  31.641   0.916  0.00  0.00    -0.272 OA
ENDROOT
BRANCH  23  24
ATOM     24  C   UNL     1      57.698  32.607   3.577  0.00  0.00    +0.021 C 
ATOM     27  C   UNL     1      58.771  33.263   2.706  0.00  0.00    +0.045 C 
ATOM     28  C   UNL     1      58.234  31.292   4.145  0.00  0.00    +0.064 C 
BRANCH  24  25
ATOM     25  C   UNL     1      57.335  33.533   4.710  0.00  0.00    -0.019 C 
ATOM     26  C   UNL     1      58.251  33.910   5.566  0.00  0.00    -0.002 C 
ENDBRANCH  24  25
ENDBRANCH  23  24
BRANCH   7   8
ATOM      8  O   UNL     1      53.107  31.568   0.422  0.00  0.00    -0.469 OA
ATOM      9  H   UNL     1      52.270  31.752   0.870  0.00  0.00    +0.402 HD
ENDBRANCH   7   8
BRANCH  16  17
ATOM     17  O   UNL     1      55.026  33.949   7.121  0.00  0.00    -0.478 OA
ATOM     18  H   UNL     1      55.177  34.878   7.347  0.00  0.00    +0.391 HD
ENDBRANCH  16  17
TORSDOF 4
ENDMDL
