MODEL 1
REMARK VINA RESULT:      -5.7      0.000      0.000
REMARK  Name = ZINC00898052
REMARK  0 active torsions:
REMARK  status: ('A' for Active; 'I' for Inactive)
REMARK                            x       y       z     vdW  Elec       q    Type
REMARK                         _______ _______ _______ _____ _____    ______ ____
ROOT
ATOM      1  C   UNL     1      40.174  20.597  18.531  0.00  0.00    +0.012 A 
ATOM      2  C   UNL     1      40.589  21.907  18.352  0.00  0.00    +0.060 A 
ATOM      3  C   UNL     1      41.827  22.317  18.801  0.00  0.00    +0.029 A 
ATOM      4  C   UNL     1      42.673  21.418  19.439  0.00  0.00    +0.130 A 
ATOM      5  C   UNL     1      42.250  20.086  19.621  0.00  0.00    -0.087 A 
ATOM      6  C   UNL     1      43.344  19.391  20.317  0.00  0.00    -0.035 A 
ATOM      7  C   UNL     1      43.638  18.126  20.809  0.00  0.00    +0.065 A 
ATOM      8  C   UNL     1      44.867  17.922  21.428  0.00  0.00    +0.256 A 
ATOM      9  N   UNL     1      45.768  18.877  21.572  0.00  0.00    -0.422 NA
ATOM     10  C   UNL     1      45.537  20.104  21.120  0.00  0.00    +0.103 A 
ATOM     11  C   UNL     1      46.473  21.230  21.232  0.00  0.00    +0.176 A 
ATOM     12  C   UNL     1      46.076  22.422  20.714  0.00  0.00    -0.027 A 
ATOM     13  C   UNL     1      44.817  22.591  20.089  0.00  0.00    +0.544 A 
ATOM     14  O   UNL     1      44.514  23.682  19.640  0.00  0.00    -0.499 OA
ATOM     15  C   UNL     1      44.325  20.364  20.492  0.00  0.00    +0.062 A 
ATOM     16  N   UNL     1      43.948  21.564  19.981  0.00  0.00    -0.443 N 
ATOM     17  C   UNL     1      40.997  19.690  19.163  0.00  0.00    +0.077 A 
ENDROOT
TORSDOF 0
ENDMDL
MODEL 2
REMARK VINA RESULT:      -5.3      1.836      3.240
REMARK  Name = ZINC00898052
REMARK  0 active torsions:
REMARK  status: ('A' for Active; 'I' for Inactive)
REMARK                            x       y       z     vdW  Elec       q    Type
REMARK                         _______ _______ _______ _____ _____    ______ ____
ROOT
ATOM      1  C   UNL     1      40.688  21.549  18.362  0.00  0.00    +0.012 A 
ATOM      2  C   UNL     1      40.647  20.182  18.588  0.00  0.00    +0.060 A 
ATOM      3  C   UNL     1      41.672  19.553  19.263  0.00  0.00    +0.029 A 
ATOM      4  C   UNL     1      42.759  20.286  19.726  0.00  0.00    +0.130 A 
ATOM      5  C   UNL     1      42.799  21.676  19.497  0.00  0.00    -0.087 A 
ATOM      6  C   UNL     1      44.053  22.162  20.093  0.00  0.00    -0.035 A 
ATOM      7  C   UNL     1      44.744  23.356  20.254  0.00  0.00    +0.065 A 
ATOM      8  C   UNL     1      45.962  23.334  20.924  0.00  0.00    +0.256 A 
ATOM      9  N   UNL     1      46.496  22.230  21.414  0.00  0.00    -0.422 NA
ATOM     10  C   UNL     1      45.876  21.061  21.288  0.00  0.00    +0.103 A 
ATOM     11  C   UNL     1      46.385  19.782  21.797  0.00  0.00    +0.176 A 
ATOM     12  C   UNL     1      45.621  18.678  21.580  0.00  0.00    -0.027 A 
ATOM     13  C   UNL     1      44.384  18.740  20.895  0.00  0.00    +0.544 A 
ATOM     14  O   UNL     1      43.740  17.720  20.730  0.00  0.00    -0.499 OA
ATOM     15  C   UNL     1      44.654  21.026  20.627  0.00  0.00    +0.062 A 
ATOM     16  N   UNL     1      43.906  19.911  20.421  0.00  0.00    -0.443 N 
ATOM     17  C   UNL     1      41.757  22.293  18.812  0.00  0.00    +0.077 A 
ENDROOT
TORSDOF 0
ENDMDL
MODEL 3
REMARK VINA RESULT:      -5.3     21.164     22.965
REMARK  Name = ZINC00898052
REMARK  0 active torsions:
REMARK  status: ('A' for Active; 'I' for Inactive)
REMARK                            x       y       z     vdW  Elec       q    Type
REMARK                         _______ _______ _______ _____ _____    ______ ____
ROOT
ATOM      1  C   UNL     1      57.601  32.761   4.940  0.00  0.00    +0.012 A 
ATOM      2  C   UNL     1      57.507  32.236   3.661  0.00  0.00    +0.060 A 
ATOM      3  C   UNL     1      56.278  32.101   3.048  0.00  0.00    +0.029 A 
ATOM      4  C   UNL     1      55.120  32.491   3.709  0.00  0.00    +0.130 A 
ATOM      5  C   UNL     1      55.217  33.025   5.009  0.00  0.00    -0.087 A 
ATOM      6  C   UNL     1      53.844  33.337   5.437  0.00  0.00    -0.035 A 
ATOM      7  C   UNL     1      53.182  33.862   6.540  0.00  0.00    +0.065 A 
ATOM      8  C   UNL     1      51.797  33.976   6.491  0.00  0.00    +0.256 A 
ATOM      9  N   UNL     1      51.079  33.608   5.445  0.00  0.00    -0.422 NA
ATOM     10  C   UNL     1      51.663  33.100   4.365  0.00  0.00    +0.103 A 
ATOM     11  C   UNL     1      50.954  32.663   3.156  0.00  0.00    +0.176 A 
ATOM     12  C   UNL     1      51.707  32.166   2.139  0.00  0.00    -0.027 A 
ATOM     13  C   UNL     1      53.117  32.067   2.224  0.00  0.00    +0.544 A 
ATOM     14  O   UNL     1      53.743  31.615   1.282  0.00  0.00    -0.499 OA
ATOM     15  C   UNL     1      53.046  32.964   4.359  0.00  0.00    +0.062 A 
ATOM     16  N   UNL     1      53.779  32.464   3.332  0.00  0.00    -0.443 N 
ATOM     17  C   UNL     1      56.464  33.153   5.613  0.00  0.00    +0.077 A 
ENDROOT
TORSDOF 0
ENDMDL
MODEL 4
REMARK VINA RESULT:      -5.2     21.141     22.918
REMARK  Name = ZINC00898052
REMARK  0 active torsions:
REMARK  status: ('A' for Active; 'I' for Inactive)
REMARK                            x       y       z     vdW  Elec       q    Type
REMARK                         _______ _______ _______ _____ _____    ______ ____
ROOT
ATOM      1  C   UNL     1      57.634  32.672   4.360  0.00  0.00    +0.012 A 
ATOM      2  C   UNL     1      57.270  33.205   5.586  0.00  0.00    +0.060 A 
ATOM      3  C   UNL     1      55.943  33.426   5.888  0.00  0.00    +0.029 A 
ATOM      4  C   UNL     1      54.954  33.114   4.963  0.00  0.00    +0.130 A 
ATOM      5  C   UNL     1      55.324  32.570   3.717  0.00  0.00    -0.087 A 
ATOM      6  C   UNL     1      54.077  32.352   2.968  0.00  0.00    -0.035 A 
ATOM      7  C   UNL     1      53.666  31.871   1.731  0.00  0.00    +0.065 A 
ATOM      8  C   UNL     1      52.305  31.852   1.444  0.00  0.00    +0.256 A 
ATOM      9  N   UNL     1      51.383  32.271   2.292  0.00  0.00    -0.422 NA
ATOM     10  C   UNL     1      51.723  32.740   3.488  0.00  0.00    +0.103 A 
ATOM     11  C   UNL     1      50.775  33.228   4.497  0.00  0.00    +0.176 A 
ATOM     12  C   UNL     1      51.293  33.675   5.672  0.00  0.00    -0.027 A 
ATOM     13  C   UNL     1      52.685  33.678   5.929  0.00  0.00    +0.544 A 
ATOM     14  O   UNL     1      53.095  34.089   7.000  0.00  0.00    -0.499 OA
ATOM     15  C   UNL     1      53.070  32.782   3.827  0.00  0.00    +0.062 A 
ATOM     16  N   UNL     1      53.566  33.233   5.008  0.00  0.00    -0.443 N 
ATOM     17  C   UNL     1      56.668  32.356   3.428  0.00  0.00    +0.077 A 
ENDROOT
TORSDOF 0
ENDMDL
MODEL 5
REMARK VINA RESULT:      -5.2      2.292      3.435
REMARK  Name = ZINC00898052
REMARK  0 active torsions:
REMARK  status: ('A' for Active; 'I' for Inactive)
REMARK                            x       y       z     vdW  Elec       q    Type
REMARK                         _______ _______ _______ _____ _____    ______ ____
ROOT
ATOM      1  C   UNL     1      40.802  21.173  19.032  0.00  0.00    +0.012 A 
ATOM      2  C   UNL     1      40.371  20.140  19.849  0.00  0.00    +0.060 A 
ATOM      3  C   UNL     1      41.281  19.298  20.452  0.00  0.00    +0.029 A 
ATOM      4  C   UNL     1      42.643  19.477  20.247  0.00  0.00    +0.130 A 
ATOM      5  C   UNL     1      43.081  20.528  19.416  0.00  0.00    -0.087 A 
ATOM      6  C   UNL     1      44.551  20.459  19.394  0.00  0.00    -0.035 A 
ATOM      7  C   UNL     1      45.624  21.130  18.822  0.00  0.00    +0.065 A 
ATOM      8  C   UNL     1      46.911  20.683  19.100  0.00  0.00    +0.256 A 
ATOM      9  N   UNL     1      47.163  19.649  19.881  0.00  0.00    -0.422 NA
ATOM     10  C   UNL     1      46.173  18.972  20.453  0.00  0.00    +0.103 A 
ATOM     11  C   UNL     1      46.349  17.812  21.335  0.00  0.00    +0.176 A 
ATOM     12  C   UNL     1      45.225  17.236  21.837  0.00  0.00    -0.027 A 
ATOM     13  C   UNL     1      43.930  17.720  21.533  0.00  0.00    +0.544 A 
ATOM     14  O   UNL     1      42.957  17.165  22.012  0.00  0.00    -0.499 OA
ATOM     15  C   UNL     1      44.865  19.376  20.210  0.00  0.00    +0.062 A 
ATOM     16  N   UNL     1      43.755  18.785  20.722  0.00  0.00    -0.443 N 
ATOM     17  C   UNL     1      42.149  21.367  18.815  0.00  0.00    +0.077 A 
ENDROOT
TORSDOF 0
ENDMDL
MODEL 6
REMARK VINA RESULT:      -5.2      5.647      7.959
REMARK  Name = ZINC00898052
REMARK  0 active torsions:
REMARK  status: ('A' for Active; 'I' for Inactive)
REMARK                            x       y       z     vdW  Elec       q    Type
REMARK                         _______ _______ _______ _____ _____    ______ ____
ROOT
ATOM      1  C   UNL     1      52.009  20.907  16.317  0.00  0.00    +0.012 A 
ATOM      2  C   UNL     1      52.105  19.643  15.757  0.00  0.00    +0.060 A 
ATOM      3  C   UNL     1      51.393  18.587  16.287  0.00  0.00    +0.029 A 
ATOM      4  C   UNL     1      50.570  18.781  17.389  0.00  0.00    +0.130 A 
ATOM      5  C   UNL     1      50.473  20.067  17.958  0.00  0.00    -0.087 A 
ATOM      6  C   UNL     1      49.543  19.954  19.092  0.00  0.00    -0.035 A 
ATOM      7  C   UNL     1      48.986  20.760  20.076  0.00  0.00    +0.065 A 
ATOM      8  C   UNL     1      48.106  20.185  20.987  0.00  0.00    +0.256 A 
ATOM      9  N   UNL     1      47.775  18.907  20.962  0.00  0.00    -0.422 NA
ATOM     10  C   UNL     1      48.280  18.092  20.042  0.00  0.00    +0.103 A 
ATOM     11  C   UNL     1      47.975  16.660  19.931  0.00  0.00    +0.176 A 
ATOM     12  C   UNL     1      48.580  15.972  18.927  0.00  0.00    -0.027 A 
ATOM     13  C   UNL     1      49.469  16.592  18.017  0.00  0.00    +0.544 A 
ATOM     14  O   UNL     1      49.983  15.926  17.135  0.00  0.00    -0.499 OA
ATOM     15  C   UNL     1      49.165  18.614  19.106  0.00  0.00    +0.062 A 
ATOM     16  N   UNL     1      49.759  17.907  18.110  0.00  0.00    -0.443 N 
ATOM     17  C   UNL     1      51.200  21.120  17.412  0.00  0.00    +0.077 A 
ENDROOT
TORSDOF 0
ENDMDL
MODEL 7
REMARK VINA RESULT:      -5.1      8.725      9.122
REMARK  Name = ZINC00898052
REMARK  0 active torsions:
REMARK  status: ('A' for Active; 'I' for Inactive)
REMARK                            x       y       z     vdW  Elec       q    Type
REMARK                         _______ _______ _______ _____ _____    ______ ____
ROOT
ATOM      1  C   UNL     1      51.640  19.963  15.538  0.00  0.00    +0.012 A 
ATOM      2  C   UNL     1      51.559  21.114  16.305  0.00  0.00    +0.060 A 
ATOM      3  C   UNL     1      51.723  21.057  17.673  0.00  0.00    +0.029 A 
ATOM      4  C   UNL     1      51.974  19.842  18.298  0.00  0.00    +0.130 A 
ATOM      5  C   UNL     1      52.058  18.671  17.517  0.00  0.00    -0.087 A 
ATOM      6  C   UNL     1      52.325  17.565  18.450  0.00  0.00    -0.035 A 
ATOM      7  C   UNL     1      52.522  16.190  18.417  0.00  0.00    +0.065 A 
ATOM      8  C   UNL     1      52.755  15.524  19.616  0.00  0.00    +0.256 A 
ATOM      9  N   UNL     1      52.797  16.137  20.785  0.00  0.00    -0.422 NA
ATOM     10  C   UNL     1      52.615  17.450  20.872  0.00  0.00    +0.103 A 
ATOM     11  C   UNL     1      52.643  18.220  22.121  0.00  0.00    +0.176 A 
ATOM     12  C   UNL     1      52.437  19.560  22.030  0.00  0.00    -0.027 A 
ATOM     13  C   UNL     1      52.204  20.205  20.791  0.00  0.00    +0.544 A 
ATOM     14  O   UNL     1      52.027  21.410  20.767  0.00  0.00    -0.499 OA
ATOM     15  C   UNL     1      52.378  18.166  19.704  0.00  0.00    +0.062 A 
ATOM     16  N   UNL     1      52.174  19.506  19.635  0.00  0.00    -0.443 N 
ATOM     17  C   UNL     1      51.887  18.747  16.139  0.00  0.00    +0.077 A 
ENDROOT
TORSDOF 0
ENDMDL
MODEL 8
REMARK VINA RESULT:      -5.1      8.996      9.440
REMARK  Name = ZINC00898052
REMARK  0 active torsions:
REMARK  status: ('A' for Active; 'I' for Inactive)
REMARK                            x       y       z     vdW  Elec       q    Type
REMARK                         _______ _______ _______ _____ _____    ______ ____
ROOT
ATOM      1  C   UNL     1      51.674  20.471  15.756  0.00  0.00    +0.012 A 
ATOM      2  C   UNL     1      51.674  19.086  15.706  0.00  0.00    +0.060 A 
ATOM      3  C   UNL     1      51.839  18.344  16.858  0.00  0.00    +0.029 A 
ATOM      4  C   UNL     1      52.006  18.980  18.082  0.00  0.00    +0.130 A 
ATOM      5  C   UNL     1      52.004  20.388  18.131  0.00  0.00    -0.087 A 
ATOM      6  C   UNL     1      52.200  20.758  19.542  0.00  0.00    -0.035 A 
ATOM      7  C   UNL     1      52.304  21.903  20.322  0.00  0.00    +0.065 A 
ATOM      8  C   UNL     1      52.498  21.758  21.691  0.00  0.00    +0.256 A 
ATOM      9  N   UNL     1      52.589  20.583  22.287  0.00  0.00    -0.422 NA
ATOM     10  C   UNL     1      52.496  19.457  21.587  0.00  0.00    +0.103 A 
ATOM     11  C   UNL     1      52.584  18.106  22.155  0.00  0.00    +0.176 A 
ATOM     12  C   UNL     1      52.468  17.061  21.294  0.00  0.00    -0.027 A 
ATOM     13  C   UNL     1      52.270  17.247  19.905  0.00  0.00    +0.544 A 
ATOM     14  O   UNL     1      52.172  16.274  19.179  0.00  0.00    -0.499 OA
ATOM     15  C   UNL     1      52.302  19.543  20.214  0.00  0.00    +0.062 A 
ATOM     16  N   UNL     1      52.189  18.484  19.371  0.00  0.00    -0.443 N 
ATOM     17  C   UNL     1      51.839  21.121  16.960  0.00  0.00    +0.077 A 
ENDROOT
TORSDOF 0
ENDMDL
MODEL 9
REMARK VINA RESULT:      -5.1      3.125      5.515
REMARK  Name = ZINC00898052
REMARK  0 active torsions:
REMARK  status: ('A' for Active; 'I' for Inactive)
REMARK                            x       y       z     vdW  Elec       q    Type
REMARK                         _______ _______ _______ _____ _____    ______ ____
ROOT
ATOM      1  C   UNL     1      45.709  13.525  20.859  0.00  0.00    +0.012 A 
ATOM      2  C   UNL     1      46.371  13.819  19.678  0.00  0.00    +0.060 A 
ATOM      3  C   UNL     1      46.263  15.070  19.107  0.00  0.00    +0.029 A 
ATOM      4  C   UNL     1      45.486  16.050  19.712  0.00  0.00    +0.130 A 
ATOM      5  C   UNL     1      44.814  15.750  20.914  0.00  0.00    -0.087 A 
ATOM      6  C   UNL     1      44.086  16.969  21.302  0.00  0.00    -0.035 A 
ATOM      7  C   UNL     1      43.247  17.412  22.316  0.00  0.00    +0.065 A 
ATOM      8  C   UNL     1      42.774  18.719  22.264  0.00  0.00    +0.256 A 
ATOM      9  N   UNL     1      43.084  19.560  21.294  0.00  0.00    -0.422 NA
ATOM     10  C   UNL     1      43.882  19.186  20.299  0.00  0.00    +0.103 A 
ATOM     11  C   UNL     1      44.284  20.045  19.179  0.00  0.00    +0.176 A 
ATOM     12  C   UNL     1      45.109  19.503  18.244  0.00  0.00    -0.027 A 
ATOM     13  C   UNL     1      45.572  18.168  18.332  0.00  0.00    +0.544 A 
ATOM     14  O   UNL     1      46.311  17.733  17.467  0.00  0.00    -0.499 OA
ATOM     15  C   UNL     1      44.384  17.891  20.301  0.00  0.00    +0.062 A 
ATOM     16  N   UNL     1      45.208  17.368  19.357  0.00  0.00    -0.443 N 
ATOM     17  C   UNL     1      44.934  14.483  21.475  0.00  0.00    +0.077 A 
ENDROOT
TORSDOF 0
ENDMDL
