MODEL 1
REMARK VINA RESULT:      -7.5      0.000      0.000
REMARK  Name = ZINC95486084
REMARK  12 active torsions:
REMARK  status: ('A' for Active; 'I' for Inactive)
REMARK    1  A    between atoms: C1_1  and  C2_2
REMARK    2  A    between atoms: C2_2  and  C21_24
REMARK    3  A    between atoms: C7_7  and  C8_9
REMARK    4  A    between atoms: C14_15  and  C16_19
REMARK    5  A    between atoms: C16_19  and  C17_20
REMARK    6  A    between atoms: C16_19  and  C18_21
REMARK    7  A    between atoms: C16_19  and  C19_22
REMARK    8  A    between atoms: C22_25  and  C23_26
REMARK    9  A    between atoms: C29_32  and  C31_36
REMARK   10  A    between atoms: C31_36  and  C32_37
REMARK   11  A    between atoms: C31_36  and  C33_38
REMARK   12  A    between atoms: C31_36  and  C34_39
REMARK                            x       y       z     vdW  Elec       q    Type
REMARK                         _______ _______ _______ _____ _____    ______ ____
ROOT
ATOM      1  C   UNL     1      46.229  18.291  22.297  0.00  0.00    +0.032 C 
ATOM      2  C   UNL     1      46.760  17.630  21.024  0.00  0.00    -0.016 C 
ATOM     20  C   UNL     1      47.426  16.293  21.377  0.00  0.00    +0.026 C 
ATOM     21  C   UNL     1      46.440  15.466  22.206  0.00  0.00    +0.053 C 
ATOM     22  C   UNL     1      45.100  15.432  21.531  0.00  0.00    -0.053 C 
ATOM     23  C   UNL     1      44.733  16.256  20.603  0.00  0.00    -0.039 C 
ATOM     24  C   UNL     1      45.602  17.355  20.064  0.00  0.00    +0.089 C 
ENDROOT
BRANCH  24  25
ATOM     25  C   UNL     1      44.779  18.607  19.903  0.00  0.00    -0.121 A 
ATOM     26  C   UNL     1      43.405  18.523  19.775  0.00  0.00    +0.054 A 
ATOM     27  C   UNL     1      42.650  19.666  19.627  0.00  0.00    -0.070 A 
ATOM     28  C   UNL     1      43.266  20.919  19.606  0.00  0.00    +0.198 A 
ATOM     29  C   UNL     1      44.643  20.994  19.736  0.00  0.00    -0.159 A 
ATOM     30  C   UNL     1      45.054  22.448  19.683  0.00  0.00    +0.052 C 
ATOM     36  C   UNL     1      43.733  23.215  19.504  0.00  0.00    +0.253 C 
ATOM     37  N   UNL     1      42.693  22.185  19.468  0.00  0.00    -0.746 N 
ATOM     38  H   UNL     1      41.744  22.356  19.364  0.00  0.00    +0.410 HD
ATOM     39  C   UNL     1      45.396  19.845  19.890  0.00  0.00    +0.074 A 
BRANCH  30  31
ATOM     31  C   UNL     1      45.740  22.857  20.987  0.00  0.00    -0.023 C 
ATOM     34  C   UNL     1      44.892  22.400  22.175  0.00  0.00    +0.033 C 
ATOM     35  C   UNL     1      45.895  24.379  21.026  0.00  0.00    +0.029 C 
BRANCH  31  32
ATOM     32  C   UNL     1      47.100  22.212  21.063  0.00  0.00    -0.030 C 
ATOM     33  C   UNL     1      47.589  21.850  22.223  0.00  0.00    -0.003 C 
ENDBRANCH  31  32
ENDBRANCH  30  31
ENDBRANCH  24  25
BRANCH   2   3
ATOM      3  C   UNL     1      47.763  18.540  20.361  0.00  0.00    -0.021 C 
ATOM      4  C   UNL     1      48.469  18.107  19.325  0.00  0.00    +0.011 C 
BRANCH   4   5
ATOM      5  C   UNL     1      49.450  18.999  18.677  0.00  0.00    -0.001 A 
ATOM      6  C   UNL     1      49.464  20.359  18.970  0.00  0.00    -0.022 A 
ATOM      7  C   UNL     1      50.385  21.194  18.359  0.00  0.00    +0.029 A 
ATOM      8  C   UNL     1      51.301  20.696  17.456  0.00  0.00    -0.019 A 
ATOM      9  C   UNL     1      51.310  19.340  17.143  0.00  0.00    +0.098 A 
ATOM     10  N   UNL     1      52.082  18.568  16.303  0.00  0.00    -0.596 N 
ATOM     11  H   UNL     1      52.806  18.901  15.749  0.00  0.00    +0.415 HD
ATOM     12  C   UNL     1      51.686  17.262  16.376  0.00  0.00    +0.217 A 
ATOM     13  C   UNL     1      50.658  17.144  17.234  0.00  0.00    -0.149 A 
ATOM     19  C   UNL     1      50.385  18.480  17.760  0.00  0.00    -0.087 A 
BRANCH  13  14
ATOM     14  C   UNL     1      49.925  15.875  17.585  0.00  0.00    +0.040 C 
ATOM     17  C   UNL     1      50.102  15.581  19.077  0.00  0.00    +0.040 C 
ATOM     18  C   UNL     1      50.493  14.715  16.766  0.00  0.00    +0.033 C 
BRANCH  14  15
ATOM     15  C   UNL     1      48.459  16.039  17.277  0.00  0.00    -0.026 C 
ATOM     16  C   UNL     1      47.605  15.119  17.649  0.00  0.00    -0.004 C 
ENDBRANCH  14  15
ENDBRANCH  13  14
ENDBRANCH   4   5
ENDBRANCH   2   3
TORSDOF 7
ENDMDL
MODEL 2
REMARK VINA RESULT:      -7.2      1.183      1.765
REMARK  Name = ZINC95486084
REMARK  12 active torsions:
REMARK  status: ('A' for Active; 'I' for Inactive)
REMARK    1  A    between atoms: C1_1  and  C2_2
REMARK    2  A    between atoms: C2_2  and  C21_24
REMARK    3  A    between atoms: C7_7  and  C8_9
REMARK    4  A    between atoms: C14_15  and  C16_19
REMARK    5  A    between atoms: C16_19  and  C17_20
REMARK    6  A    between atoms: C16_19  and  C18_21
REMARK    7  A    between atoms: C16_19  and  C19_22
REMARK    8  A    between atoms: C22_25  and  C23_26
REMARK    9  A    between atoms: C29_32  and  C31_36
REMARK   10  A    between atoms: C31_36  and  C32_37
REMARK   11  A    between atoms: C31_36  and  C33_38
REMARK   12  A    between atoms: C31_36  and  C34_39
REMARK                            x       y       z     vdW  Elec       q    Type
REMARK                         _______ _______ _______ _____ _____    ______ ____
ROOT
ATOM      1  C   UNL     1      47.257  16.915  22.385  0.00  0.00    +0.032 C 
ATOM      2  C   UNL     1      47.659  16.518  20.962  0.00  0.00    -0.016 C 
ATOM     20  C   UNL     1      48.687  15.381  21.015  0.00  0.00    +0.026 C 
ATOM     21  C   UNL     1      48.126  14.261  21.894  0.00  0.00    +0.053 C 
ATOM     22  C   UNL     1      46.724  13.927  21.474  0.00  0.00    -0.053 C 
ATOM     23  C   UNL     1      45.984  14.696  20.740  0.00  0.00    -0.039 C 
ATOM     24  C   UNL     1      46.428  16.024  20.200  0.00  0.00    +0.089 C 
ENDROOT
BRANCH  24  25
ATOM     25  C   UNL     1      45.311  17.024  20.352  0.00  0.00    -0.121 A 
ATOM     26  C   UNL     1      44.259  16.763  21.210  0.00  0.00    +0.054 A 
ATOM     27  C   UNL     1      43.235  17.674  21.351  0.00  0.00    -0.070 A 
ATOM     28  C   UNL     1      43.253  18.870  20.630  0.00  0.00    +0.198 A 
ATOM     29  C   UNL     1      44.312  19.123  19.773  0.00  0.00    -0.159 A 
ATOM     30  C   UNL     1      44.093  20.470  19.121  0.00  0.00    +0.052 C 
ATOM     36  C   UNL     1      42.764  20.971  19.710  0.00  0.00    +0.253 C 
ATOM     37  N   UNL     1      42.328  19.915  20.626  0.00  0.00    -0.746 N 
ATOM     38  H   UNL     1      41.515  19.939  21.154  0.00  0.00    +0.410 HD
ATOM     39  C   UNL     1      45.339  18.208  19.639  0.00  0.00    +0.074 A 
BRANCH  30  31
ATOM     31  C   UNL     1      45.233  21.427  19.476  0.00  0.00    -0.023 C 
ATOM     34  C   UNL     1      44.759  22.870  19.302  0.00  0.00    +0.033 C 
ATOM     35  C   UNL     1      46.424  21.164  18.553  0.00  0.00    +0.029 C 
BRANCH  31  32
ATOM     32  C   UNL     1      45.648  21.203  20.908  0.00  0.00    -0.030 C 
ATOM     33  C   UNL     1      46.915  21.242  21.235  0.00  0.00    -0.003 C 
ENDBRANCH  31  32
ENDBRANCH  30  31
ENDBRANCH  24  25
BRANCH   2   3
ATOM      3  C   UNL     1      48.250  17.709  20.253  0.00  0.00    -0.021 C 
ATOM      4  C   UNL     1      49.419  17.601  19.635  0.00  0.00    +0.011 C 
BRANCH   4   5
ATOM      5  C   UNL     1      49.997  18.768  18.940  0.00  0.00    -0.001 A 
ATOM      6  C   UNL     1      49.813  20.050  19.448  0.00  0.00    -0.022 A 
ATOM      7  C   UNL     1      50.356  21.143  18.794  0.00  0.00    +0.029 A 
ATOM      8  C   UNL     1      51.086  20.982  17.635  0.00  0.00    -0.019 A 
ATOM      9  C   UNL     1      51.286  19.712  17.103  0.00  0.00    +0.098 A 
ATOM     10  N   UNL     1      51.952  19.246  15.991  0.00  0.00    -0.596 N 
ATOM     11  H   UNL     1      52.425  19.802  15.351  0.00  0.00    +0.415 HD
ATOM     12  C   UNL     1      51.860  17.883  15.931  0.00  0.00    +0.217 A 
ATOM     13  C   UNL     1      51.136  17.428  16.968  0.00  0.00    -0.149 A 
ATOM     19  C   UNL     1      50.746  18.593  17.760  0.00  0.00    -0.087 A 
BRANCH  13  14
ATOM     14  C   UNL     1      50.790  15.990  17.257  0.00  0.00    +0.040 C 
ATOM     17  C   UNL     1      51.344  15.600  18.630  0.00  0.00    +0.040 C 
ATOM     18  C   UNL     1      51.409  15.092  16.185  0.00  0.00    +0.033 C 
BRANCH  14  15
ATOM     15  C   UNL     1      49.293  15.822  17.253  0.00  0.00    -0.026 C 
ATOM     16  C   UNL     1      48.768  14.636  17.435  0.00  0.00    -0.004 C 
ENDBRANCH  14  15
ENDBRANCH  13  14
ENDBRANCH   4   5
ENDBRANCH   2   3
TORSDOF 7
ENDMDL
MODEL 3
REMARK VINA RESULT:      -7.1      1.716      7.682
REMARK  Name = ZINC95486084
REMARK  12 active torsions:
REMARK  status: ('A' for Active; 'I' for Inactive)
REMARK    1  A    between atoms: C1_1  and  C2_2
REMARK    2  A    between atoms: C2_2  and  C21_24
REMARK    3  A    between atoms: C7_7  and  C8_9
REMARK    4  A    between atoms: C14_15  and  C16_19
REMARK    5  A    between atoms: C16_19  and  C17_20
REMARK    6  A    between atoms: C16_19  and  C18_21
REMARK    7  A    between atoms: C16_19  and  C19_22
REMARK    8  A    between atoms: C22_25  and  C23_26
REMARK    9  A    between atoms: C29_32  and  C31_36
REMARK   10  A    between atoms: C31_36  and  C32_37
REMARK   11  A    between atoms: C31_36  and  C33_38
REMARK   12  A    between atoms: C31_36  and  C34_39
REMARK                            x       y       z     vdW  Elec       q    Type
REMARK                         _______ _______ _______ _____ _____    ______ ____
ROOT
ATOM      1  C   UNL     1      49.059  17.935  21.735  0.00  0.00    +0.032 C 
ATOM      2  C   UNL     1      48.239  19.133  21.250  0.00  0.00    -0.016 C 
ATOM     20  C   UNL     1      48.417  20.307  22.222  0.00  0.00    +0.026 C 
ATOM     21  C   UNL     1      49.915  20.550  22.419  0.00  0.00    +0.053 C 
ATOM     22  C   UNL     1      50.605  20.624  21.088  0.00  0.00    -0.053 C 
ATOM     23  C   UNL     1      50.093  20.193  19.980  0.00  0.00    -0.039 C 
ATOM     24  C   UNL     1      48.732  19.569  19.869  0.00  0.00    +0.089 C 
ENDROOT
BRANCH  24  25
ATOM     25  C   UNL     1      48.807  18.367  18.963  0.00  0.00    -0.121 A 
ATOM     26  C   UNL     1      49.979  18.079  18.289  0.00  0.00    +0.054 A 
ATOM     27  C   UNL     1      50.051  16.981  17.458  0.00  0.00    -0.070 A 
ATOM     28  C   UNL     1      48.941  16.151  17.293  0.00  0.00    +0.198 A 
ATOM     29  C   UNL     1      47.771  16.447  17.974  0.00  0.00    -0.159 A 
ATOM     30  C   UNL     1      46.733  15.403  17.625  0.00  0.00    +0.052 C 
ATOM     36  C   UNL     1      47.452  14.457  16.649  0.00  0.00    +0.253 C 
ATOM     37  N   UNL     1      48.804  15.003  16.510  0.00  0.00    -0.746 N 
ATOM     38  H   UNL     1      49.502  14.623  15.955  0.00  0.00    +0.410 HD
ATOM     39  C   UNL     1      47.706  17.546  18.809  0.00  0.00    +0.074 A 
BRANCH  30  31
ATOM     31  C   UNL     1      46.294  14.648  18.880  0.00  0.00    -0.023 C 
ATOM     34  C   UNL     1      47.526  14.257  19.698  0.00  0.00    +0.033 C 
ATOM     35  C   UNL     1      45.529  13.387  18.474  0.00  0.00    +0.029 C 
BRANCH  31  32
ATOM     32  C   UNL     1      45.399  15.532  19.711  0.00  0.00    -0.030 C 
ATOM     33  C   UNL     1      45.079  15.177  20.930  0.00  0.00    -0.003 C 
ENDBRANCH  31  32
ENDBRANCH  30  31
ENDBRANCH  24  25
BRANCH   2   3
ATOM      3  C   UNL     1      46.783  18.751  21.170  0.00  0.00    -0.021 C 
ATOM      4  C   UNL     1      45.846  19.641  21.472  0.00  0.00    +0.011 C 
BRANCH   4   5
ATOM      5  C   UNL     1      44.421  19.266  21.394  0.00  0.00    -0.001 A 
ATOM      6  C   UNL     1      43.955  18.134  22.055  0.00  0.00    -0.022 A 
ATOM      7  C   UNL     1      42.617  17.784  21.979  0.00  0.00    +0.029 A 
ATOM      8  C   UNL     1      41.727  18.546  21.252  0.00  0.00    -0.019 A 
ATOM      9  C   UNL     1      42.164  19.684  20.581  0.00  0.00    +0.098 A 
ATOM     10  N   UNL     1      41.530  20.621  19.795  0.00  0.00    -0.596 N 
ATOM     11  H   UNL     1      40.585  20.617  19.576  0.00  0.00    +0.415 HD
ATOM     12  C   UNL     1      42.428  21.567  19.384  0.00  0.00    +0.217 A 
ATOM     13  C   UNL     1      43.650  21.277  19.863  0.00  0.00    -0.149 A 
ATOM     19  C   UNL     1      43.518  20.055  20.654  0.00  0.00    -0.087 A 
BRANCH  13  14
ATOM     14  C   UNL     1      44.915  22.061  19.627  0.00  0.00    +0.040 C 
ATOM     17  C   UNL     1      44.566  23.416  19.007  0.00  0.00    +0.040 C 
ATOM     18  C   UNL     1      45.826  21.284  18.675  0.00  0.00    +0.033 C 
BRANCH  14  15
ATOM     15  C   UNL     1      45.624  22.276  20.939  0.00  0.00    -0.026 C 
ATOM     16  C   UNL     1      46.154  23.443  21.212  0.00  0.00    -0.004 C 
ENDBRANCH  14  15
ENDBRANCH  13  14
ENDBRANCH   4   5
ENDBRANCH   2   3
TORSDOF 7
ENDMDL
MODEL 4
REMARK VINA RESULT:      -6.9      1.733      7.783
REMARK  Name = ZINC95486084
REMARK  12 active torsions:
REMARK  status: ('A' for Active; 'I' for Inactive)
REMARK    1  A    between atoms: C1_1  and  C2_2
REMARK    2  A    between atoms: C2_2  and  C21_24
REMARK    3  A    between atoms: C7_7  and  C8_9
REMARK    4  A    between atoms: C14_15  and  C16_19
REMARK    5  A    between atoms: C16_19  and  C17_20
REMARK    6  A    between atoms: C16_19  and  C18_21
REMARK    7  A    between atoms: C16_19  and  C19_22
REMARK    8  A    between atoms: C22_25  and  C23_26
REMARK    9  A    between atoms: C29_32  and  C31_36
REMARK   10  A    between atoms: C31_36  and  C32_37
REMARK   11  A    between atoms: C31_36  and  C33_38
REMARK   12  A    between atoms: C31_36  and  C34_39
REMARK                            x       y       z     vdW  Elec       q    Type
REMARK                         _______ _______ _______ _____ _____    ______ ____
ROOT
ATOM      1  C   UNL     1      50.324  18.124  21.062  0.00  0.00    +0.032 C 
ATOM      2  C   UNL     1      49.268  19.103  20.544  0.00  0.00    -0.016 C 
ATOM     20  C   UNL     1      49.418  20.451  21.263  0.00  0.00    +0.026 C 
ATOM     21  C   UNL     1      50.875  20.904  21.142  0.00  0.00    +0.053 C 
ATOM     22  C   UNL     1      51.329  20.810  19.715  0.00  0.00    -0.053 C 
ATOM     23  C   UNL     1      50.720  20.121  18.803  0.00  0.00    -0.039 C 
ATOM     24  C   UNL     1      49.468  19.329  19.044  0.00  0.00    +0.089 C 
ENDROOT
BRANCH  24  25
ATOM     25  C   UNL     1      49.579  17.997  18.349  0.00  0.00    -0.121 A 
ATOM     26  C   UNL     1      50.813  17.530  17.938  0.00  0.00    +0.054 A 
ATOM     27  C   UNL     1      50.918  16.312  17.301  0.00  0.00    -0.070 A 
ATOM     28  C   UNL     1      49.779  15.540  17.066  0.00  0.00    +0.198 A 
ATOM     29  C   UNL     1      48.546  16.017  17.482  0.00  0.00    -0.159 A 
ATOM     30  C   UNL     1      47.487  15.001  17.113  0.00  0.00    +0.052 C 
ATOM     36  C   UNL     1      48.265  13.868  16.425  0.00  0.00    +0.253 C 
ATOM     37  N   UNL     1      49.666  14.295  16.446  0.00  0.00    -0.746 N 
ATOM     38  H   UNL     1      50.407  13.786  16.082  0.00  0.00    +0.410 HD
ATOM     39  C   UNL     1      48.446  17.236  18.125  0.00  0.00    +0.074 A 
BRANCH  30  31
ATOM     31  C   UNL     1      46.782  14.484  18.368  0.00  0.00    -0.023 C 
ATOM     34  C   UNL     1      46.020  13.201  18.033  0.00  0.00    +0.033 C 
ATOM     35  C   UNL     1      45.801  15.544  18.874  0.00  0.00    +0.029 C 
BRANCH  31  32
ATOM     32  C   UNL     1      47.806  14.197  19.436  0.00  0.00    -0.030 C 
ATOM     33  C   UNL     1      47.605  14.608  20.663  0.00  0.00    -0.003 C 
ENDBRANCH  31  32
ENDBRANCH  30  31
ENDBRANCH  24  25
BRANCH   2   3
ATOM      3  C   UNL     1      47.892  18.542  20.793  0.00  0.00    -0.021 C 
ATOM      4  C   UNL     1      46.895  19.351  21.130  0.00  0.00    +0.011 C 
BRANCH   4   5
ATOM      5  C   UNL     1      45.548  18.801  21.373  0.00  0.00    -0.001 A 
ATOM      6  C   UNL     1      45.394  17.588  22.038  0.00  0.00    -0.022 A 
ATOM      7  C   UNL     1      44.128  17.074  22.263  0.00  0.00    +0.029 A 
ATOM      8  C   UNL     1      43.004  17.749  21.839  0.00  0.00    -0.019 A 
ATOM      9  C   UNL     1      43.127  18.964  21.171  0.00  0.00    +0.098 A 
ATOM     10  N   UNL     1      42.214  19.849  20.640  0.00  0.00    -0.596 N 
ATOM     11  H   UNL     1      41.251  19.734  20.658  0.00  0.00    +0.415 HD
ATOM     12  C   UNL     1      42.867  20.920  20.097  0.00  0.00    +0.217 A 
ATOM     13  C   UNL     1      44.195  20.767  20.239  0.00  0.00    -0.149 A 
ATOM     19  C   UNL     1      44.405  19.501  20.940  0.00  0.00    -0.087 A 
BRANCH  13  14
ATOM     14  C   UNL     1      45.263  21.717  19.763  0.00  0.00    +0.040 C 
ATOM     17  C   UNL     1      44.611  23.006  19.259  0.00  0.00    +0.040 C 
ATOM     18  C   UNL     1      46.053  21.067  18.626  0.00  0.00    +0.033 C 
BRANCH  14  15
ATOM     15  C   UNL     1      46.195  22.038  20.904  0.00  0.00    -0.026 C 
ATOM     16  C   UNL     1      46.274  23.263  21.358  0.00  0.00    -0.004 C 
ENDBRANCH  14  15
ENDBRANCH  13  14
ENDBRANCH   4   5
ENDBRANCH   2   3
TORSDOF 7
ENDMDL
MODEL 5
REMARK VINA RESULT:      -6.7      1.846      8.018
REMARK  Name = ZINC95486084
REMARK  12 active torsions:
REMARK  status: ('A' for Active; 'I' for Inactive)
REMARK    1  A    between atoms: C1_1  and  C2_2
REMARK    2  A    between atoms: C2_2  and  C21_24
REMARK    3  A    between atoms: C7_7  and  C8_9
REMARK    4  A    between atoms: C14_15  and  C16_19
REMARK    5  A    between atoms: C16_19  and  C17_20
REMARK    6  A    between atoms: C16_19  and  C18_21
REMARK    7  A    between atoms: C16_19  and  C19_22
REMARK    8  A    between atoms: C22_25  and  C23_26
REMARK    9  A    between atoms: C29_32  and  C31_36
REMARK   10  A    between atoms: C31_36  and  C32_37
REMARK   11  A    between atoms: C31_36  and  C33_38
REMARK   12  A    between atoms: C31_36  and  C34_39
REMARK                            x       y       z     vdW  Elec       q    Type
REMARK                         _______ _______ _______ _____ _____    ______ ____
ROOT
ATOM      1  C   UNL     1      51.052  18.289  20.508  0.00  0.00    +0.032 C 
ATOM      2  C   UNL     1      49.692  18.915  20.194  0.00  0.00    -0.016 C 
ATOM     20  C   UNL     1      49.612  20.314  20.819  0.00  0.00    +0.026 C 
ATOM     21  C   UNL     1      50.840  21.113  20.376  0.00  0.00    +0.053 C 
ATOM     22  C   UNL     1      51.013  21.012  18.888  0.00  0.00    -0.053 C 
ATOM     23  C   UNL     1      50.445  20.113  18.151  0.00  0.00    -0.039 C 
ATOM     24  C   UNL     1      49.525  19.051  18.679  0.00  0.00    +0.089 C 
ENDROOT
BRANCH  24  25
ATOM     25  C   UNL     1      49.851  17.735  18.021  0.00  0.00    -0.121 A 
ATOM     26  C   UNL     1      51.135  17.483  17.574  0.00  0.00    +0.054 A 
ATOM     27  C   UNL     1      51.437  16.281  16.970  0.00  0.00    -0.070 A 
ATOM     28  C   UNL     1      50.449  15.308  16.807  0.00  0.00    +0.198 A 
ATOM     29  C   UNL     1      49.165  15.569  17.260  0.00  0.00    -0.159 A 
ATOM     30  C   UNL     1      48.297  14.366  16.966  0.00  0.00    +0.052 C 
ATOM     36  C   UNL     1      49.243  13.366  16.281  0.00  0.00    +0.253 C 
ATOM     37  N   UNL     1      50.543  14.040  16.231  0.00  0.00    -0.746 N 
ATOM     38  H   UNL     1      51.350  13.660  15.852  0.00  0.00    +0.410 HD
ATOM     39  C   UNL     1      48.869  16.774  17.869  0.00  0.00    +0.074 A 
BRANCH  30  31
ATOM     31  C   UNL     1      47.743  13.778  18.265  0.00  0.00    -0.023 C 
ATOM     34  C   UNL     1      48.693  14.104  19.418  0.00  0.00    +0.033 C 
ATOM     35  C   UNL     1      47.614  12.261  18.122  0.00  0.00    +0.029 C 
BRANCH  31  32
ATOM     32  C   UNL     1      46.387  14.373  18.547  0.00  0.00    -0.030 C 
ATOM     33  C   UNL     1      45.423  13.615  19.007  0.00  0.00    -0.003 C 
ENDBRANCH  31  32
ENDBRANCH  30  31
ENDBRANCH  24  25
BRANCH   2   3
ATOM      3  C   UNL     1      48.593  18.044  20.748  0.00  0.00    -0.021 C 
ATOM      4  C   UNL     1      47.338  18.475  20.744  0.00  0.00    +0.011 C 
BRANCH   4   5
ATOM      5  C   UNL     1      46.264  17.621  21.287  0.00  0.00    -0.001 A 
ATOM      6  C   UNL     1      46.548  16.337  21.739  0.00  0.00    -0.022 A 
ATOM      7  C   UNL     1      45.537  15.538  22.247  0.00  0.00    +0.029 A 
ATOM      8  C   UNL     1      44.240  15.998  22.316  0.00  0.00    -0.019 A 
ATOM      9  C   UNL     1      43.925  17.278  21.871  0.00  0.00    +0.098 A 
ATOM     10  N   UNL     1      42.753  17.999  21.813  0.00  0.00    -0.596 N 
ATOM     11  H   UNL     1      41.885  17.676  22.106  0.00  0.00    +0.415 HD
ATOM     12  C   UNL     1      42.996  19.241  21.297  0.00  0.00    +0.217 A 
ATOM     13  C   UNL     1      44.299  19.363  20.993  0.00  0.00    -0.149 A 
ATOM     19  C   UNL     1      44.942  18.102  21.359  0.00  0.00    -0.087 A 
BRANCH  13  14
ATOM     14  C   UNL     1      44.970  20.570  20.390  0.00  0.00    +0.040 C 
ATOM     17  C   UNL     1      46.003  21.123  21.375  0.00  0.00    +0.040 C 
ATOM     18  C   UNL     1      43.920  21.643  20.097  0.00  0.00    +0.033 C 
BRANCH  14  15
ATOM     15  C   UNL     1      45.658  20.176  19.109  0.00  0.00    -0.026 C 
ATOM     16  C   UNL     1      46.472  21.015  18.518  0.00  0.00    -0.004 C 
ENDBRANCH  14  15
ENDBRANCH  13  14
ENDBRANCH   4   5
ENDBRANCH   2   3
TORSDOF 7
ENDMDL
MODEL 6
REMARK VINA RESULT:      -6.4      2.547      5.724
REMARK  Name = ZINC95486084
REMARK  12 active torsions:
REMARK  status: ('A' for Active; 'I' for Inactive)
REMARK    1  A    between atoms: C1_1  and  C2_2
REMARK    2  A    between atoms: C2_2  and  C21_24
REMARK    3  A    between atoms: C7_7  and  C8_9
REMARK    4  A    between atoms: C14_15  and  C16_19
REMARK    5  A    between atoms: C16_19  and  C17_20
REMARK    6  A    between atoms: C16_19  and  C18_21
REMARK    7  A    between atoms: C16_19  and  C19_22
REMARK    8  A    between atoms: C22_25  and  C23_26
REMARK    9  A    between atoms: C29_32  and  C31_36
REMARK   10  A    between atoms: C31_36  and  C32_37
REMARK   11  A    between atoms: C31_36  and  C33_38
REMARK   12  A    between atoms: C31_36  and  C34_39
REMARK                            x       y       z     vdW  Elec       q    Type
REMARK                         _______ _______ _______ _____ _____    ______ ____
ROOT
ATOM      1  C   UNL     1      45.872  18.319  22.486  0.00  0.00    +0.032 C 
ATOM      2  C   UNL     1      45.614  17.122  21.568  0.00  0.00    -0.016 C 
ATOM     20  C   UNL     1      44.350  16.383  22.027  0.00  0.00    +0.026 C 
ATOM     21  C   UNL     1      43.212  17.399  22.144  0.00  0.00    +0.053 C 
ATOM     22  C   UNL     1      43.131  18.232  20.898  0.00  0.00    -0.053 C 
ATOM     23  C   UNL     1      44.084  18.327  20.026  0.00  0.00    -0.039 C 
ATOM     24  C   UNL     1      45.398  17.610  20.135  0.00  0.00    +0.089 C 
ENDROOT
BRANCH  24  25
ATOM     25  C   UNL     1      46.512  18.550  19.753  0.00  0.00    -0.121 A 
ATOM     26  C   UNL     1      46.348  19.915  19.897  0.00  0.00    +0.054 A 
ATOM     27  C   UNL     1      47.365  20.777  19.549  0.00  0.00    -0.070 A 
ATOM     28  C   UNL     1      48.570  20.279  19.048  0.00  0.00    +0.198 A 
ATOM     29  C   UNL     1      48.725  18.909  18.908  0.00  0.00    -0.159 A 
ATOM     30  C   UNL     1      50.105  18.635  18.353  0.00  0.00    +0.052 C 
ATOM     36  C   UNL     1      50.736  20.027  18.186  0.00  0.00    +0.253 C 
ATOM     37  N   UNL     1      49.712  20.971  18.641  0.00  0.00    -0.746 N 
ATOM     38  H   UNL     1      49.813  21.935  18.657  0.00  0.00    +0.410 HD
ATOM     39  C   UNL     1      47.704  18.048  19.264  0.00  0.00    +0.074 A 
BRANCH  30  31
ATOM     31  C   UNL     1      50.918  17.791  19.336  0.00  0.00    -0.023 C 
ATOM     34  C   UNL     1      50.837  18.414  20.731  0.00  0.00    +0.033 C 
ATOM     35  C   UNL     1      52.378  17.745  18.881  0.00  0.00    +0.029 C 
BRANCH  31  32
ATOM     32  C   UNL     1      50.360  16.392  19.377  0.00  0.00    -0.030 C 
ATOM     33  C   UNL     1      50.400  15.640  18.305  0.00  0.00    -0.003 C 
ENDBRANCH  31  32
ENDBRANCH  30  31
ENDBRANCH  24  25
BRANCH   2   3
ATOM      3  C   UNL     1      46.797  16.188  21.612  0.00  0.00    -0.021 C 
ATOM      4  C   UNL     1      46.741  15.017  20.990  0.00  0.00    +0.011 C 
BRANCH   4   5
ATOM      5  C   UNL     1      47.898  14.103  21.033  0.00  0.00    -0.001 A 
ATOM      6  C   UNL     1      48.845  14.215  22.046  0.00  0.00    -0.022 A 
ATOM      7  C   UNL     1      49.931  13.357  22.084  0.00  0.00    +0.029 A 
ATOM      8  C   UNL     1      50.093  12.379  21.125  0.00  0.00    -0.019 A 
ATOM      9  C   UNL     1      49.162  12.243  20.099  0.00  0.00    +0.098 A 
ATOM     10  N   UNL     1      49.055  11.386  19.026  0.00  0.00    -0.596 N 
ATOM     11  H   UNL     1      49.686  10.680  18.812  0.00  0.00    +0.415 HD
ATOM     12  C   UNL     1      47.920  11.667  18.317  0.00  0.00    +0.217 A 
ATOM     13  C   UNL     1      47.274  12.701  18.882  0.00  0.00    -0.149 A 
ATOM     19  C   UNL     1      48.052  13.103  20.052  0.00  0.00    -0.087 A 
BRANCH  13  14
ATOM     14  C   UNL     1      45.991  13.328  18.398  0.00  0.00    +0.040 C 
ATOM     17  C   UNL     1      44.950  13.285  19.519  0.00  0.00    +0.040 C 
ATOM     18  C   UNL     1      45.470  12.552  17.188  0.00  0.00    +0.033 C 
BRANCH  14  15
ATOM     15  C   UNL     1      46.249  14.760  18.006  0.00  0.00    -0.026 C 
ATOM     16  C   UNL     1      46.968  15.028  16.945  0.00  0.00    -0.004 C 
ENDBRANCH  14  15
ENDBRANCH  13  14
ENDBRANCH   4   5
ENDBRANCH   2   3
TORSDOF 7
ENDMDL
MODEL 7
REMARK VINA RESULT:      -6.4      1.778      2.760
REMARK  Name = ZINC95486084
REMARK  12 active torsions:
REMARK  status: ('A' for Active; 'I' for Inactive)
REMARK    1  A    between atoms: C1_1  and  C2_2
REMARK    2  A    between atoms: C2_2  and  C21_24
REMARK    3  A    between atoms: C7_7  and  C8_9
REMARK    4  A    between atoms: C14_15  and  C16_19
REMARK    5  A    between atoms: C16_19  and  C17_20
REMARK    6  A    between atoms: C16_19  and  C18_21
REMARK    7  A    between atoms: C16_19  and  C19_22
REMARK    8  A    between atoms: C22_25  and  C23_26
REMARK    9  A    between atoms: C29_32  and  C31_36
REMARK   10  A    between atoms: C31_36  and  C32_37
REMARK   11  A    between atoms: C31_36  and  C33_38
REMARK   12  A    between atoms: C31_36  and  C34_39
REMARK                            x       y       z     vdW  Elec       q    Type
REMARK                         _______ _______ _______ _____ _____    ______ ____
ROOT
ATOM      1  C   UNL     1      46.939  15.505  21.948  0.00  0.00    +0.032 C 
ATOM      2  C   UNL     1      47.771  15.884  20.720  0.00  0.00    -0.016 C 
ATOM     20  C   UNL     1      48.803  14.784  20.438  0.00  0.00    +0.026 C 
ATOM     21  C   UNL     1      48.072  13.441  20.368  0.00  0.00    +0.053 C 
ATOM     22  C   UNL     1      46.883  13.546  19.458  0.00  0.00    -0.053 C 
ATOM     23  C   UNL     1      46.352  14.666  19.084  0.00  0.00    -0.039 C 
ATOM     24  C   UNL     1      46.858  16.016  19.501  0.00  0.00    +0.089 C 
ENDROOT
BRANCH  24  25
ATOM     25  C   UNL     1      45.688  16.902  19.846  0.00  0.00    -0.121 A 
ATOM     26  C   UNL     1      44.713  16.454  20.717  0.00  0.00    +0.054 A 
ATOM     27  C   UNL     1      43.641  17.260  21.035  0.00  0.00    -0.070 A 
ATOM     28  C   UNL     1      43.533  18.537  20.481  0.00  0.00    +0.198 A 
ATOM     29  C   UNL     1      44.517  18.978  19.609  0.00  0.00    -0.159 A 
ATOM     30  C   UNL     1      44.167  20.378  19.157  0.00  0.00    +0.052 C 
ATOM     36  C   UNL     1      42.848  20.698  19.879  0.00  0.00    +0.253 C 
ATOM     37  N   UNL     1      42.542  19.502  20.668  0.00  0.00    -0.746 N 
ATOM     38  H   UNL     1      41.765  19.397  21.238  0.00  0.00    +0.410 HD
ATOM     39  C   UNL     1      45.592  18.167  19.298  0.00  0.00    +0.074 A 
BRANCH  30  31
ATOM     31  C   UNL     1      45.260  21.363  19.575  0.00  0.00    -0.023 C 
ATOM     34  C   UNL     1      45.703  21.056  21.006  0.00  0.00    +0.033 C 
ATOM     35  C   UNL     1      44.714  22.790  19.505  0.00  0.00    +0.029 C 
BRANCH  31  32
ATOM     32  C   UNL     1      46.438  21.230  18.644  0.00  0.00    -0.030 C 
ATOM     33  C   UNL     1      47.641  21.058  19.132  0.00  0.00    -0.003 C 
ENDBRANCH  31  32
ENDBRANCH  30  31
ENDBRANCH  24  25
BRANCH   2   3
ATOM      3  C   UNL     1      48.475  17.193  20.971  0.00  0.00    -0.021 C 
ATOM      4  C   UNL     1      49.444  17.592  20.157  0.00  0.00    +0.011 C 
BRANCH   4   5
ATOM      5  C   UNL     1      50.132  18.874  20.403  0.00  0.00    -0.001 A 
ATOM      6  C   UNL     1      49.961  19.543  21.611  0.00  0.00    -0.022 A 
ATOM      7  C   UNL     1      50.607  20.747  21.838  0.00  0.00    +0.029 A 
ATOM      8  C   UNL     1      51.429  21.300  20.880  0.00  0.00    -0.019 A 
ATOM      9  C   UNL     1      51.620  20.653  19.662  0.00  0.00    +0.098 A 
ATOM     10  N   UNL     1      52.361  20.950  18.539  0.00  0.00    -0.596 N 
ATOM     11  H   UNL     1      52.913  21.740  18.428  0.00  0.00    +0.415 HD
ATOM     12  C   UNL     1      52.214  19.957  17.610  0.00  0.00    +0.217 A 
ATOM     13  C   UNL     1      51.382  19.012  18.079  0.00  0.00    -0.149 A 
ATOM     19  C   UNL     1      50.975  19.428  19.420  0.00  0.00    -0.087 A 
BRANCH  13  14
ATOM     14  C   UNL     1      50.949  17.761  17.358  0.00  0.00    +0.040 C 
ATOM     17  C   UNL     1      51.623  17.705  15.986  0.00  0.00    +0.040 C 
ATOM     18  C   UNL     1      49.430  17.777  17.179  0.00  0.00    +0.033 C 
BRANCH  14  15
ATOM     15  C   UNL     1      51.348  16.552  18.164  0.00  0.00    -0.026 C 
ATOM     16  C   UNL     1      52.607  16.355  18.467  0.00  0.00    -0.004 C 
ENDBRANCH  14  15
ENDBRANCH  13  14
ENDBRANCH   4   5
ENDBRANCH   2   3
TORSDOF 7
ENDMDL
MODEL 8
REMARK VINA RESULT:      -6.4      2.231      5.362
REMARK  Name = ZINC95486084
REMARK  12 active torsions:
REMARK  status: ('A' for Active; 'I' for Inactive)
REMARK    1  A    between atoms: C1_1  and  C2_2
REMARK    2  A    between atoms: C2_2  and  C21_24
REMARK    3  A    between atoms: C7_7  and  C8_9
REMARK    4  A    between atoms: C14_15  and  C16_19
REMARK    5  A    between atoms: C16_19  and  C17_20
REMARK    6  A    between atoms: C16_19  and  C18_21
REMARK    7  A    between atoms: C16_19  and  C19_22
REMARK    8  A    between atoms: C22_25  and  C23_26
REMARK    9  A    between atoms: C29_32  and  C31_36
REMARK   10  A    between atoms: C31_36  and  C32_37
REMARK   11  A    between atoms: C31_36  and  C33_38
REMARK   12  A    between atoms: C31_36  and  C34_39
REMARK                            x       y       z     vdW  Elec       q    Type
REMARK                         _______ _______ _______ _____ _____    ______ ____
ROOT
ATOM      1  C   UNL     1      49.706  20.995  18.471  0.00  0.00    +0.032 C 
ATOM      2  C   UNL     1      50.143  19.606  18.943  0.00  0.00    -0.016 C 
ATOM     20  C   UNL     1      51.557  19.308  18.427  0.00  0.00    +0.026 C 
ATOM     21  C   UNL     1      52.471  20.471  18.819  0.00  0.00    +0.053 C 
ATOM     22  C   UNL     1      52.303  20.792  20.276  0.00  0.00    -0.053 C 
ATOM     23  C   UNL     1      51.299  20.402  20.993  0.00  0.00    -0.039 C 
ATOM     24  C   UNL     1      50.167  19.566  20.471  0.00  0.00    +0.089 C 
ENDROOT
BRANCH  24  25
ATOM     25  C   UNL     1      48.863  20.101  21.005  0.00  0.00    -0.121 A 
ATOM     26  C   UNL     1      48.821  21.340  21.618  0.00  0.00    +0.054 A 
ATOM     27  C   UNL     1      47.631  21.833  22.108  0.00  0.00    -0.070 A 
ATOM     28  C   UNL     1      46.458  21.085  21.989  0.00  0.00    +0.198 A 
ATOM     29  C   UNL     1      46.509  19.846  21.372  0.00  0.00    -0.159 A 
ATOM     30  C   UNL     1      45.119  19.250  21.371  0.00  0.00    +0.052 C 
ATOM     36  C   UNL     1      44.247  20.306  22.069  0.00  0.00    +0.253 C 
ATOM     37  N   UNL     1      45.164  21.396  22.411  0.00  0.00    -0.746 N 
ATOM     38  H   UNL     1      44.910  22.215  22.864  0.00  0.00    +0.410 HD
ATOM     39  C   UNL     1      47.704  19.358  20.877  0.00  0.00    +0.074 A 
BRANCH  30  31
ATOM     31  C   UNL     1      44.639  19.019  19.937  0.00  0.00    -0.023 C 
ATOM     34  C   UNL     1      45.179  20.129  19.034  0.00  0.00    +0.033 C 
ATOM     35  C   UNL     1      43.109  19.034  19.905  0.00  0.00    +0.029 C 
BRANCH  31  32
ATOM     32  C   UNL     1      45.139  17.684  19.448  0.00  0.00    -0.030 C 
ATOM     33  C   UNL     1      45.036  16.627  20.215  0.00  0.00    -0.003 C 
ENDBRANCH  31  32
ENDBRANCH  30  31
ENDBRANCH  24  25
BRANCH   2   3
ATOM      3  C   UNL     1      49.180  18.570  18.423  0.00  0.00    -0.021 C 
ATOM      4  C   UNL     1      49.351  17.291  18.733  0.00  0.00    +0.011 C 
BRANCH   4   5
ATOM      5  C   UNL     1      48.408  16.276  18.224  0.00  0.00    -0.001 A 
ATOM      6  C   UNL     1      47.662  16.523  17.075  0.00  0.00    -0.022 A 
ATOM      7  C   UNL     1      46.777  15.570  16.601  0.00  0.00    +0.029 A 
ATOM      8  C   UNL     1      46.620  14.365  17.252  0.00  0.00    -0.019 A 
ATOM      9  C   UNL     1      47.352  14.090  18.403  0.00  0.00    +0.098 A 
ATOM     10  N   UNL     1      47.410  13.005  19.250  0.00  0.00    -0.596 N 
ATOM     11  H   UNL     1      46.890  12.192  19.151  0.00  0.00    +0.415 HD
ATOM     12  C   UNL     1      48.322  13.239  20.242  0.00  0.00    +0.217 A 
ATOM     13  C   UNL     1      48.864  14.459  20.087  0.00  0.00    -0.149 A 
ATOM     19  C   UNL     1      48.258  15.046  18.893  0.00  0.00    -0.087 A 
BRANCH  13  14
ATOM     14  C   UNL     1      49.898  15.100  20.976  0.00  0.00    +0.040 C 
ATOM     17  C   UNL     1      50.401  14.075  21.994  0.00  0.00    +0.040 C 
ATOM     18  C   UNL     1      49.270  16.285  21.713  0.00  0.00    +0.033 C 
BRANCH  14  15
ATOM     15  C   UNL     1      51.052  15.584  20.137  0.00  0.00    -0.026 C 
ATOM     16  C   UNL     1      52.047  16.222  20.700  0.00  0.00    -0.004 C 
ENDBRANCH  14  15
ENDBRANCH  13  14
ENDBRANCH   4   5
ENDBRANCH   2   3
TORSDOF 7
ENDMDL
MODEL 9
REMARK VINA RESULT:      -6.2      2.766      6.443
REMARK  Name = ZINC95486084
REMARK  12 active torsions:
REMARK  status: ('A' for Active; 'I' for Inactive)
REMARK    1  A    between atoms: C1_1  and  C2_2
REMARK    2  A    between atoms: C2_2  and  C21_24
REMARK    3  A    between atoms: C7_7  and  C8_9
REMARK    4  A    between atoms: C14_15  and  C16_19
REMARK    5  A    between atoms: C16_19  and  C17_20
REMARK    6  A    between atoms: C16_19  and  C18_21
REMARK    7  A    between atoms: C16_19  and  C19_22
REMARK    8  A    between atoms: C22_25  and  C23_26
REMARK    9  A    between atoms: C29_32  and  C31_36
REMARK   10  A    between atoms: C31_36  and  C32_37
REMARK   11  A    between atoms: C31_36  and  C33_38
REMARK   12  A    between atoms: C31_36  and  C34_39
REMARK                            x       y       z     vdW  Elec       q    Type
REMARK                         _______ _______ _______ _____ _____    ______ ____
ROOT
ATOM      1  C   UNL     1      47.031  16.731  20.785  0.00  0.00    +0.032 C 
ATOM      2  C   UNL     1      46.045  16.849  19.621  0.00  0.00    -0.016 C 
ATOM     20  C   UNL     1      44.643  17.157  20.163  0.00  0.00    +0.026 C 
ATOM     21  C   UNL     1      44.739  18.371  21.090  0.00  0.00    +0.053 C 
ATOM     22  C   UNL     1      45.496  19.478  20.416  0.00  0.00    -0.053 C 
ATOM     23  C   UNL     1      46.252  19.313  19.379  0.00  0.00    -0.039 C 
ATOM     24  C   UNL     1      46.471  17.993  18.699  0.00  0.00    +0.089 C 
ENDROOT
BRANCH  24  25
ATOM     25  C   UNL     1      47.930  17.842  18.358  0.00  0.00    -0.121 A 
ATOM     26  C   UNL     1      48.318  17.021  17.315  0.00  0.00    +0.054 A 
ATOM     27  C   UNL     1      49.653  16.881  17.001  0.00  0.00    -0.070 A 
ATOM     28  C   UNL     1      50.624  17.568  17.732  0.00  0.00    +0.198 A 
ATOM     29  C   UNL     1      50.226  18.389  18.775  0.00  0.00    -0.159 A 
ATOM     30  C   UNL     1      51.457  19.010  19.396  0.00  0.00    +0.052 C 
ATOM     36  C   UNL     1      52.629  18.443  18.579  0.00  0.00    +0.253 C 
ATOM     37  N   UNL     1      52.012  17.566  17.580  0.00  0.00    -0.746 N 
ATOM     38  H   UNL     1      52.496  17.059  16.911  0.00  0.00    +0.410 HD
ATOM     39  C   UNL     1      48.886  18.531  19.082  0.00  0.00    +0.074 A 
BRANCH  30  31
ATOM     31  C   UNL     1      51.405  20.534  19.274  0.00  0.00    -0.023 C 
ATOM     34  C   UNL     1      52.829  21.088  19.207  0.00  0.00    +0.033 C 
ATOM     35  C   UNL     1      50.687  21.118  20.491  0.00  0.00    +0.029 C 
BRANCH  31  32
ATOM     32  C   UNL     1      50.659  20.912  18.020  0.00  0.00    -0.030 C 
ATOM     33  C   UNL     1      51.319  21.176  16.920  0.00  0.00    -0.003 C 
ENDBRANCH  31  32
ENDBRANCH  30  31
ENDBRANCH  24  25
BRANCH   2   3
ATOM      3  C   UNL     1      46.020  15.556  18.846  0.00  0.00    -0.021 C 
ATOM      4  C   UNL     1      46.803  14.549  19.210  0.00  0.00    +0.011 C 
BRANCH   4   5
ATOM      5  C   UNL     1      46.778  13.283  18.451  0.00  0.00    -0.001 A 
ATOM      6  C   UNL     1      45.828  13.080  17.456  0.00  0.00    -0.022 A 
ATOM      7  C   UNL     1      45.806  11.891  16.746  0.00  0.00    +0.029 A 
ATOM      8  C   UNL     1      46.721  10.894  17.008  0.00  0.00    -0.019 A 
ATOM      9  C   UNL     1      47.683  11.069  17.998  0.00  0.00    +0.098 A 
ATOM     10  N   UNL     1      48.703  10.277  18.477  0.00  0.00    -0.596 N 
ATOM     11  H   UNL     1      48.915   9.386  18.156  0.00  0.00    +0.415 HD
ATOM     12  C   UNL     1      49.383  10.938  19.462  0.00  0.00    +0.217 A 
ATOM     13  C   UNL     1      48.832  12.148  19.664  0.00  0.00    -0.149 A 
ATOM     19  C   UNL     1      47.721  12.273  18.723  0.00  0.00    -0.087 A 
BRANCH  13  14
ATOM     14  C   UNL     1      49.276  13.178  20.670  0.00  0.00    +0.040 C 
ATOM     17  C   UNL     1      50.503  12.659  21.423  0.00  0.00    +0.040 C 
ATOM     18  C   UNL     1      48.142  13.441  21.663  0.00  0.00    +0.033 C 
BRANCH  14  15
ATOM     15  C   UNL     1      49.627  14.458  19.957  0.00  0.00    -0.026 C 
ATOM     16  C   UNL     1      50.668  15.155  20.340  0.00  0.00    -0.004 C 
ENDBRANCH  14  15
ENDBRANCH  13  14
ENDBRANCH   4   5
ENDBRANCH   2   3
TORSDOF 7
ENDMDL
