MODEL 1
REMARK VINA RESULT:      -4.3      0.000      0.000
REMARK  Name = ZINC95486185
REMARK  19 active torsions:
REMARK  status: ('A' for Active; 'I' for Inactive)
REMARK    1  A    between atoms: C1_1  and  C2_2
REMARK    2  A    between atoms: C5_5  and  C36_47
REMARK    3  A    between atoms: C7_7  and  C13_15
REMARK    4  A    between atoms: C8_8  and  O2_14
REMARK    5  A    between atoms: C10_10  and  O1_12
REMARK    6  A    between atoms: O1_12  and  C12_13
REMARK    7  A    between atoms: C15_17  and  C25_29
REMARK    8  A    between atoms: C18_20  and  C24_28
REMARK    9  A    between atoms: C20_22  and  O4_26
REMARK   10  A    between atoms: C22_24  and  O3_25
REMARK   11  A    between atoms: O4_26  and  C23_27
REMARK   12  A    between atoms: C26_30  and  O6_46
REMARK   13  A    between atoms: C28_32  and  O5_45
REMARK   14  A    between atoms: C32_38  and  C35_44
REMARK   15  A    between atoms: C33_41  and  C34_43
REMARK   16  A    between atoms: C40_51  and  O8_54
REMARK   17  A    between atoms: C41_52  and  O7_53
REMARK   18  A    between atoms: C42_55  and  C46_62
REMARK   19  A    between atoms: C43_58  and  C45_61
REMARK                            x       y       z     vdW  Elec       q    Type
REMARK                         _______ _______ _______ _____ _____    ______ ____
ROOT
ATOM      1  C   UNL     1      54.043  16.292  14.198  0.00  0.00    +0.096 C 
ATOM      2  C   UNL     1      52.870  16.732  15.035  0.00  0.00    -0.008 A 
ATOM      3  C   UNL     1      52.132  15.799  15.699  0.00  0.00    -0.063 A 
ATOM      4  C   UNL     1      51.038  16.197  16.481  0.00  0.00    +0.028 A 
ATOM      5  C   UNL     1      50.258  15.243  17.181  0.00  0.00    -0.088 A 
ATOM     24  C   UNL     1      49.186  15.662  17.945  0.00  0.00    +0.082 A 
ATOM     25  C   UNL     1      48.862  17.021  18.036  0.00  0.00    -0.097 A 
ATOM     59  C   UNL     1      49.614  17.974  17.359  0.00  0.00    +0.204 A 
ATOM     62  C   UNL     1      50.710  17.571  16.575  0.00  0.00    -0.109 A 
ATOM     63  C   UNL     1      51.490  18.515  15.878  0.00  0.00    +0.177 A 
ATOM     66  C   UNL     1      52.561  18.086  15.123  0.00  0.00    -0.099 A 
ENDROOT
BRANCH   5   6
ATOM      6  C   UNL     1      50.589  13.802  17.092  0.00  0.00    -0.027 A 
ATOM      7  C   UNL     1      51.507  13.240  17.986  0.00  0.00    -0.069 A 
ATOM      8  C   UNL     1      51.814  11.900  17.905  0.00  0.00    -0.124 A 
ATOM      9  C   UNL     1      52.789  11.254  18.852  0.00  0.00    +0.228 C 
ATOM     10  C   UNL     1      53.675  10.277  18.075  0.00  0.00    +0.098 C 
ATOM     11  N   UNL     1      53.634  12.264  19.494  0.00  0.00    -0.504 N 
ATOM     12  H   UNL     1      54.222  12.703  18.801  0.00  0.00    +0.433 HD
ATOM     13  H   UNL     1      54.209  11.826  20.198  0.00  0.00    +0.433 HD
ATOM     14  C   UNL     1      52.774  13.278  20.123  0.00  0.00    +0.178 C 
ATOM     15  C   UNL     1      51.675  12.587  20.936  0.00  0.00    +0.083 C 
ATOM     16  C   UNL     1      51.213  11.111  16.933  0.00  0.00    +0.039 A 
ATOM     17  C   UNL     1      50.304  11.655  16.043  0.00  0.00    +0.102 A 
ATOM     20  C   UNL     1      52.142  14.131  19.023  0.00  0.00    +0.130 C 
ATOM     21  C   UNL     1      49.982  13.005  16.121  0.00  0.00    +0.128 A 
BRANCH  17  18
ATOM     18  O   UNL     1      49.723  10.870  15.097  0.00  0.00    -0.483 OA
ATOM     19  H   UNL     1      48.893  10.462  15.380  0.00  0.00    +0.404 HD
ENDBRANCH  17  18
BRANCH  21  22
ATOM     22  O   UNL     1      49.083  13.546  15.255  0.00  0.00    -0.479 OA
ATOM     23  H   UNL     1      48.285  13.888  15.680  0.00  0.00    +0.406 HD
ENDBRANCH  21  22
ENDBRANCH   5   6
BRANCH  25  26
ATOM     26  C   UNL     1      47.707  17.448  18.861  0.00  0.00    -0.106 A 
ATOM     27  C   UNL     1      47.532  18.806  19.145  0.00  0.00    +0.047 A 
ATOM     28  C   UNL     1      46.458  19.232  19.914  0.00  0.00    -0.034 A 
ATOM     47  C   UNL     1      45.512  18.238  20.425  0.00  0.00    +0.026 A 
ATOM     48  C   UNL     1      44.412  18.618  21.204  0.00  0.00    -0.032 A 
ATOM     49  C   UNL     1      43.546  17.672  21.665  0.00  0.00    -0.020 A 
ATOM     50  C   UNL     1      42.366  18.091  22.504  0.00  0.00    +0.095 C 
ATOM     51  C   UNL     1      43.735  16.325  21.373  0.00  0.00    -0.096 A 
ATOM     52  C   UNL     1      44.805  15.913  20.610  0.00  0.00    +0.167 A 
ATOM     55  C   UNL     1      45.715  16.872  20.119  0.00  0.00    -0.109 A 
ATOM     56  C   UNL     1      46.817  16.492  19.331  0.00  0.00    +0.194 A 
BRANCH  28  29
ATOM     29  C   UNL     1      46.275  20.657  20.213  0.00  0.00    -0.186 C 
ATOM     30  C   UNL     1      47.153  21.317  21.015  0.00  0.00    +0.182 C 
ATOM     33  C   UNL     1      46.930  22.730  21.336  0.00  0.00    -0.138 C 
ATOM     34  C   UNL     1      45.712  23.274  21.170  0.00  0.00    +0.138 C 
ATOM     37  C   UNL     1      44.587  22.409  20.682  0.00  0.00    +0.062 C 
ATOM     38  C   UNL     1      43.466  23.223  20.045  0.00  0.00    +0.191 C 
ATOM     39  C   UNL     1      43.994  23.939  18.801  0.00  0.00    +0.097 C 
ATOM     40  N   UNL     1      42.373  22.313  19.664  0.00  0.00    -0.502 N 
ATOM     41  H   UNL     1      42.056  21.810  20.479  0.00  0.00    +0.420 HD
ATOM     42  H   UNL     1      41.608  22.850  19.286  0.00  0.00    +0.432 HD
ATOM     43  C   UNL     1      42.837  21.356  18.656  0.00  0.00    +0.158 C 
ATOM     44  C   UNL     1      41.671  20.452  18.250  0.00  0.00    +0.089 C 
ATOM     45  C   UNL     1      43.974  20.494  19.218  0.00  0.00    +0.090 C 
ATOM     46  C   UNL     1      45.116  21.419  19.637  0.00  0.00    +0.075 C 
BRANCH  30  31
ATOM     31  O   UNL     1      48.235  20.669  21.517  0.00  0.00    -0.456 OA
ATOM     32  H   UNL     1      48.076  19.738  21.723  0.00  0.00    +0.402 HD
ENDBRANCH  30  31
BRANCH  34  35
ATOM     35  O   UNL     1      45.502  24.584  21.441  0.00  0.00    -0.473 OA
ATOM     36  H   UNL     1      45.456  25.145  20.654  0.00  0.00    +0.418 HD
ENDBRANCH  34  35
ENDBRANCH  28  29
BRANCH  52  53
ATOM     53  O   UNL     1      44.981  14.595  20.330  0.00  0.00    -0.293 OA
ATOM     54  C   UNL     1      45.173  13.717  21.441  0.00  0.00    +0.247 C 
ENDBRANCH  52  53
BRANCH  56  57
ATOM     57  O   UNL     1      47.014  15.182  19.032  0.00  0.00    -0.466 OA
ATOM     58  H   UNL     1      46.543  14.883  18.242  0.00  0.00    +0.389 HD
ENDBRANCH  56  57
ENDBRANCH  25  26
BRANCH  59  60
ATOM     60  O   UNL     1      49.291  19.289  17.453  0.00  0.00    -0.461 OA
ATOM     61  H   UNL     1      48.651  19.488  18.150  0.00  0.00    +0.392 HD
ENDBRANCH  59  60
BRANCH  63  64
ATOM     64  O   UNL     1      51.194  19.839  15.953  0.00  0.00    -0.290 OA
ATOM     65  C   UNL     1      52.262  20.725  16.292  0.00  0.00    +0.251 C 
ENDBRANCH  63  64
TORSDOF 11
ENDMDL
MODEL 2
REMARK VINA RESULT:      -4.1      2.499      3.105
REMARK  Name = ZINC95486185
REMARK  19 active torsions:
REMARK  status: ('A' for Active; 'I' for Inactive)
REMARK    1  A    between atoms: C1_1  and  C2_2
REMARK    2  A    between atoms: C5_5  and  C36_47
REMARK    3  A    between atoms: C7_7  and  C13_15
REMARK    4  A    between atoms: C8_8  and  O2_14
REMARK    5  A    between atoms: C10_10  and  O1_12
REMARK    6  A    between atoms: O1_12  and  C12_13
REMARK    7  A    between atoms: C15_17  and  C25_29
REMARK    8  A    between atoms: C18_20  and  C24_28
REMARK    9  A    between atoms: C20_22  and  O4_26
REMARK   10  A    between atoms: C22_24  and  O3_25
REMARK   11  A    between atoms: O4_26  and  C23_27
REMARK   12  A    between atoms: C26_30  and  O6_46
REMARK   13  A    between atoms: C28_32  and  O5_45
REMARK   14  A    between atoms: C32_38  and  C35_44
REMARK   15  A    between atoms: C33_41  and  C34_43
REMARK   16  A    between atoms: C40_51  and  O8_54
REMARK   17  A    between atoms: C41_52  and  O7_53
REMARK   18  A    between atoms: C42_55  and  C46_62
REMARK   19  A    between atoms: C43_58  and  C45_61
REMARK                            x       y       z     vdW  Elec       q    Type
REMARK                         _______ _______ _______ _____ _____    ______ ____
ROOT
ATOM      1  C   UNL     1      55.235  15.451  19.210  0.00  0.00    +0.096 C 
ATOM      2  C   UNL     1      53.900  16.060  19.556  0.00  0.00    -0.008 A 
ATOM      3  C   UNL     1      52.775  15.295  19.483  0.00  0.00    -0.063 A 
ATOM      4  C   UNL     1      51.528  15.850  19.803  0.00  0.00    +0.028 A 
ATOM      5  C   UNL     1      50.345  15.072  19.735  0.00  0.00    -0.088 A 
ATOM     24  C   UNL     1      49.130  15.643  20.057  0.00  0.00    +0.082 A 
ATOM     25  C   UNL     1      49.053  16.985  20.450  0.00  0.00    -0.097 A 
ATOM     59  C   UNL     1      50.200  17.767  20.524  0.00  0.00    +0.204 A 
ATOM     62  C   UNL     1      51.450  17.206  20.202  0.00  0.00    -0.109 A 
ATOM     63  C   UNL     1      52.629  17.975  20.269  0.00  0.00    +0.177 A 
ATOM     66  C   UNL     1      53.837  17.392  19.952  0.00  0.00    -0.099 A 
ENDROOT
BRANCH   5   6
ATOM      6  C   UNL     1      50.412  13.651  19.320  0.00  0.00    -0.027 A 
ATOM      7  C   UNL     1      50.158  13.301  17.990  0.00  0.00    -0.069 A 
ATOM      8  C   UNL     1      50.222  11.982  17.602  0.00  0.00    -0.124 A 
ATOM      9  C   UNL     1      49.964  11.561  16.180  0.00  0.00    +0.228 C 
ATOM     10  C   UNL     1      49.132  10.277  16.175  0.00  0.00    +0.098 C 
ATOM     11  N   UNL     1      49.239  12.608  15.454  0.00  0.00    -0.504 N 
ATOM     12  H   UNL     1      48.315  12.714  15.848  0.00  0.00    +0.433 HD
ATOM     13  H   UNL     1      49.165  12.355  14.480  0.00  0.00    +0.433 HD
ATOM     14  C   UNL     1      49.975  13.875  15.579  0.00  0.00    +0.178 C 
ATOM     15  C   UNL     1      51.458  13.639  15.278  0.00  0.00    +0.083 C 
ATOM     16  C   UNL     1      50.535  11.001  18.535  0.00  0.00    +0.039 A 
ATOM     17  C   UNL     1      50.788  11.336  19.854  0.00  0.00    +0.102 A 
ATOM     20  C   UNL     1      49.815  14.393  17.008  0.00  0.00    +0.130 C 
ATOM     21  C   UNL     1      50.734  12.666  20.253  0.00  0.00    +0.128 A 
BRANCH  17  18
ATOM     18  O   UNL     1      51.094  10.366  20.756  0.00  0.00    -0.483 OA
ATOM     19  H   UNL     1      50.593   9.546  20.637  0.00  0.00    +0.404 HD
ENDBRANCH  17  18
BRANCH  21  22
ATOM     22  O   UNL     1      50.988  13.003  21.546  0.00  0.00    -0.479 OA
ATOM     23  H   UNL     1      51.888  12.797  21.835  0.00  0.00    +0.406 HD
ENDBRANCH  21  22
ENDBRANCH   5   6
BRANCH  25  26
ATOM     26  C   UNL     1      47.738  17.577  20.789  0.00  0.00    -0.106 A 
ATOM     27  C   UNL     1      47.570  18.964  20.712  0.00  0.00    +0.047 A 
ATOM     28  C   UNL     1      46.348  19.545  21.023  0.00  0.00    -0.034 A 
ATOM     47  C   UNL     1      45.237  18.684  21.434  0.00  0.00    +0.026 A 
ATOM     48  C   UNL     1      43.985  19.221  21.756  0.00  0.00    -0.032 A 
ATOM     49  C   UNL     1      42.968  18.396  22.135  0.00  0.00    -0.020 A 
ATOM     50  C   UNL     1      41.624  18.984  22.482  0.00  0.00    +0.095 C 
ATOM     51  C   UNL     1      43.152  17.018  22.206  0.00  0.00    -0.096 A 
ATOM     52  C   UNL     1      44.369  16.454  21.897  0.00  0.00    +0.167 A 
ATOM     55  C   UNL     1      45.437  17.285  21.501  0.00  0.00    -0.109 A 
ATOM     56  C   UNL     1      46.694  16.745  21.171  0.00  0.00    +0.194 A 
BRANCH  28  29
ATOM     29  C   UNL     1      46.172  20.999  20.943  0.00  0.00    -0.186 C 
ATOM     30  C   UNL     1      46.943  21.834  21.690  0.00  0.00    +0.182 C 
ATOM     33  C   UNL     1      46.724  23.282  21.628  0.00  0.00    -0.138 C 
ATOM     34  C   UNL     1      45.565  23.769  21.152  0.00  0.00    +0.138 C 
ATOM     37  C   UNL     1      44.497  22.809  20.716  0.00  0.00    +0.062 C 
ATOM     38  C   UNL     1      43.512  23.444  19.739  0.00  0.00    +0.191 C 
ATOM     39  C   UNL     1      44.247  23.842  18.457  0.00  0.00    +0.097 C 
ATOM     40  N   UNL     1      42.458  22.468  19.421  0.00  0.00    -0.502 N 
ATOM     41  H   UNL     1      42.004  22.175  20.273  0.00  0.00    +0.420 HD
ATOM     42  H   UNL     1      41.778  22.897  18.813  0.00  0.00    +0.432 HD
ATOM     43  C   UNL     1      43.034  21.297  18.752  0.00  0.00    +0.158 C 
ATOM     44  C   UNL     1      41.911  20.320  18.398  0.00  0.00    +0.089 C 
ATOM     45  C   UNL     1      44.043  20.598  19.672  0.00  0.00    +0.090 C 
ATOM     46  C   UNL     1      45.140  21.598  20.031  0.00  0.00    +0.075 C 
BRANCH  30  31
ATOM     31  O   UNL     1      47.914  21.327  22.493  0.00  0.00    -0.456 OA
ATOM     32  H   UNL     1      48.813  21.514  22.189  0.00  0.00    +0.402 HD
ENDBRANCH  30  31
BRANCH  34  35
ATOM     35  O   UNL     1      45.363  25.104  21.068  0.00  0.00    -0.473 OA
ATOM     36  H   UNL     1      45.726  25.604  21.812  0.00  0.00    +0.418 HD
ENDBRANCH  34  35
ENDBRANCH  28  29
BRANCH  52  53
ATOM     53  O   UNL     1      44.539  15.108  21.970  0.00  0.00    -0.293 OA
ATOM     54  C   UNL     1      44.495  14.381  20.740  0.00  0.00    +0.247 C 
ENDBRANCH  52  53
BRANCH  56  57
ATOM     57  O   UNL     1      46.890  15.402  21.230  0.00  0.00    -0.466 OA
ATOM     58  H   UNL     1      47.611  15.084  20.670  0.00  0.00    +0.389 HD
ENDBRANCH  56  57
ENDBRANCH  25  26
BRANCH  59  60
ATOM     60  O   UNL     1      50.115  19.066  20.906  0.00  0.00    -0.461 OA
ATOM     61  H   UNL     1      50.960  19.456  21.168  0.00  0.00    +0.392 HD
ENDBRANCH  59  60
BRANCH  63  64
ATOM     64  O   UNL     1      52.577  19.278  20.649  0.00  0.00    -0.290 OA
ATOM     65  C   UNL     1      52.931  19.575  22.001  0.00  0.00    +0.251 C 
ENDBRANCH  63  64
TORSDOF 11
ENDMDL
MODEL 3
REMARK VINA RESULT:      -2.1      1.357      2.242
REMARK  Name = ZINC95486185
REMARK  19 active torsions:
REMARK  status: ('A' for Active; 'I' for Inactive)
REMARK    1  A    between atoms: C1_1  and  C2_2
REMARK    2  A    between atoms: C5_5  and  C36_47
REMARK    3  A    between atoms: C7_7  and  C13_15
REMARK    4  A    between atoms: C8_8  and  O2_14
REMARK    5  A    between atoms: C10_10  and  O1_12
REMARK    6  A    between atoms: O1_12  and  C12_13
REMARK    7  A    between atoms: C15_17  and  C25_29
REMARK    8  A    between atoms: C18_20  and  C24_28
REMARK    9  A    between atoms: C20_22  and  O4_26
REMARK   10  A    between atoms: C22_24  and  O3_25
REMARK   11  A    between atoms: O4_26  and  C23_27
REMARK   12  A    between atoms: C26_30  and  O6_46
REMARK   13  A    between atoms: C28_32  and  O5_45
REMARK   14  A    between atoms: C32_38  and  C35_44
REMARK   15  A    between atoms: C33_41  and  C34_43
REMARK   16  A    between atoms: C40_51  and  O8_54
REMARK   17  A    between atoms: C41_52  and  O7_53
REMARK   18  A    between atoms: C42_55  and  C46_62
REMARK   19  A    between atoms: C43_58  and  C45_61
REMARK                            x       y       z     vdW  Elec       q    Type
REMARK                         _______ _______ _______ _____ _____    ______ ____
ROOT
ATOM      1  C   UNL     1      54.050  16.853  14.356  0.00  0.00    +0.096 C 
ATOM      2  C   UNL     1      52.810  17.113  15.172  0.00  0.00    -0.008 A 
ATOM      3  C   UNL     1      52.103  16.060  15.671  0.00  0.00    -0.063 A 
ATOM      4  C   UNL     1      50.948  16.289  16.432  0.00  0.00    +0.028 A 
ATOM      5  C   UNL     1      50.199  15.209  16.962  0.00  0.00    -0.088 A 
ATOM     24  C   UNL     1      49.065  15.463  17.708  0.00  0.00    +0.082 A 
ATOM     25  C   UNL     1      48.648  16.778  17.948  0.00  0.00    -0.097 A 
ATOM     59  C   UNL     1      49.367  17.852  17.439  0.00  0.00    +0.204 A 
ATOM     62  C   UNL     1      50.526  17.618  16.676  0.00  0.00    -0.109 A 
ATOM     63  C   UNL     1      51.275  18.688  16.147  0.00  0.00    +0.177 A 
ATOM     66  C   UNL     1      52.408  18.423  15.409  0.00  0.00    -0.099 A 
ENDROOT
BRANCH   5   6
ATOM      6  C   UNL     1      50.629  13.813  16.715  0.00  0.00    -0.027 A 
ATOM      7  C   UNL     1      51.448  13.160  17.642  0.00  0.00    -0.069 A 
ATOM      8  C   UNL     1      51.846  11.863  17.414  0.00  0.00    -0.124 A 
ATOM      9  C   UNL     1      52.720  11.120  18.389  0.00  0.00    +0.228 C 
ATOM     10  C   UNL     1      53.764  10.310  17.617  0.00  0.00    +0.098 C 
ATOM     11  N   UNL     1      53.402  12.054  19.288  0.00  0.00    -0.504 N 
ATOM     12  H   UNL     1      54.052  12.618  18.760  0.00  0.00    +0.433 HD
ATOM     13  H   UNL     1      53.900  11.539  19.998  0.00  0.00    +0.433 HD
ATOM     14  C   UNL     1      52.401  12.924  19.924  0.00  0.00    +0.178 C 
ATOM     15  C   UNL     1      51.246  12.073  20.459  0.00  0.00    +0.083 C 
ATOM     16  C   UNL     1      51.437  11.206  16.260  0.00  0.00    +0.039 A 
ATOM     17  C   UNL     1      50.627  11.842  15.335  0.00  0.00    +0.102 A 
ATOM     20  C   UNL     1      51.876  13.909  18.879  0.00  0.00    +0.130 C 
ATOM     21  C   UNL     1      50.213  13.150  15.560  0.00  0.00    +0.128 A 
BRANCH  17  18
ATOM     18  O   UNL     1      50.233  11.187  14.210  0.00  0.00    -0.483 OA
ATOM     19  H   UNL     1      50.028  11.771  13.467  0.00  0.00    +0.404 HD
ENDBRANCH  17  18
BRANCH  21  22
ATOM     22  O   UNL     1      49.411  13.778  14.659  0.00  0.00    -0.479 OA
ATOM     23  H   UNL     1      48.792  14.407  15.056  0.00  0.00    +0.406 HD
ENDBRANCH  21  22
ENDBRANCH   5   6
BRANCH  25  26
ATOM     26  C   UNL     1      47.427  17.027  18.751  0.00  0.00    -0.106 A 
ATOM     27  C   UNL     1      46.912  18.325  18.832  0.00  0.00    +0.047 A 
ATOM     28  C   UNL     1      45.770  18.585  19.576  0.00  0.00    -0.034 A 
ATOM     47  C   UNL     1      45.112  17.480  20.276  0.00  0.00    +0.026 A 
ATOM     48  C   UNL     1      43.956  17.690  21.038  0.00  0.00    -0.032 A 
ATOM     49  C   UNL     1      43.363  16.643  21.679  0.00  0.00    -0.020 A 
ATOM     50  C   UNL     1      42.121  16.880  22.498  0.00  0.00    +0.095 C 
ATOM     51  C   UNL     1      43.889  15.358  21.587  0.00  0.00    -0.096 A 
ATOM     52  C   UNL     1      45.023  15.112  20.847  0.00  0.00    +0.167 A 
ATOM     55  C   UNL     1      45.655  16.177  20.174  0.00  0.00    -0.109 A 
ATOM     56  C   UNL     1      46.813  15.966  19.403  0.00  0.00    +0.194 A 
BRANCH  28  29
ATOM     29  C   UNL     1      45.230  19.947  19.662  0.00  0.00    -0.186 C 
ATOM     30  C   UNL     1      44.205  20.340  18.859  0.00  0.00    +0.182 C 
ATOM     33  C   UNL     1      43.708  21.717  18.930  0.00  0.00    -0.138 C 
ATOM     34  C   UNL     1      44.465  22.679  19.485  0.00  0.00    +0.138 C 
ATOM     37  C   UNL     1      45.830  22.326  20.000  0.00  0.00    +0.062 C 
ATOM     38  C   UNL     1      46.330  23.321  21.041  0.00  0.00    +0.191 C 
ATOM     39  C   UNL     1      45.414  23.286  22.267  0.00  0.00    +0.097 C 
ATOM     40  N   UNL     1      47.698  22.951  21.437  0.00  0.00    -0.502 N 
ATOM     41  H   UNL     1      48.290  22.933  20.621  0.00  0.00    +0.420 HD
ATOM     42  H   UNL     1      48.053  23.632  22.090  0.00  0.00    +0.432 HD
ATOM     43  C   UNL     1      47.704  21.627  22.068  0.00  0.00    +0.158 C 
ATOM     44  C   UNL     1      49.130  21.287  22.505  0.00  0.00    +0.089 C 
ATOM     45  C   UNL     1      47.208  20.562  21.082  0.00  0.00    +0.090 C 
ATOM     46  C   UNL     1      45.794  20.935  20.643  0.00  0.00    +0.075 C 
BRANCH  30  31
ATOM     31  O   UNL     1      43.644  19.458  17.992  0.00  0.00    -0.456 OA
ATOM     32  H   UNL     1      43.123  19.873  17.291  0.00  0.00    +0.402 HD
ENDBRANCH  30  31
BRANCH  34  35
ATOM     35  O   UNL     1      44.003  23.948  19.578  0.00  0.00    -0.473 OA
ATOM     36  H   UNL     1      43.300  24.064  20.231  0.00  0.00    +0.418 HD
ENDBRANCH  34  35
ENDBRANCH  28  29
BRANCH  52  53
ATOM     53  O   UNL     1      45.528  13.853  20.764  0.00  0.00    -0.293 OA
ATOM     54  C   UNL     1      45.824  13.191  21.996  0.00  0.00    +0.247 C 
ENDBRANCH  52  53
BRANCH  56  57
ATOM     57  O   UNL     1      47.336  14.716  19.299  0.00  0.00    -0.466 OA
ATOM     58  H   UNL     1      46.973  14.197  18.568  0.00  0.00    +0.389 HD
ENDBRANCH  56  57
ENDBRANCH  25  26
BRANCH  59  60
ATOM     60  O   UNL     1      48.953  19.123  17.676  0.00  0.00    -0.461 OA
ATOM     61  H   UNL     1      48.903  19.676  16.885  0.00  0.00    +0.392 HD
ENDBRANCH  59  60
BRANCH  63  64
ATOM     64  O   UNL     1      50.888  19.971  16.369  0.00  0.00    -0.290 OA
ATOM     65  C   UNL     1      51.869  20.863  16.901  0.00  0.00    +0.251 C 
ENDBRANCH  63  64
TORSDOF 11
ENDMDL
MODEL 4
REMARK VINA RESULT:      -1.8      2.438      5.478
REMARK  Name = ZINC95486185
REMARK  19 active torsions:
REMARK  status: ('A' for Active; 'I' for Inactive)
REMARK    1  A    between atoms: C1_1  and  C2_2
REMARK    2  A    between atoms: C5_5  and  C36_47
REMARK    3  A    between atoms: C7_7  and  C13_15
REMARK    4  A    between atoms: C8_8  and  O2_14
REMARK    5  A    between atoms: C10_10  and  O1_12
REMARK    6  A    between atoms: O1_12  and  C12_13
REMARK    7  A    between atoms: C15_17  and  C25_29
REMARK    8  A    between atoms: C18_20  and  C24_28
REMARK    9  A    between atoms: C20_22  and  O4_26
REMARK   10  A    between atoms: C22_24  and  O3_25
REMARK   11  A    between atoms: O4_26  and  C23_27
REMARK   12  A    between atoms: C26_30  and  O6_46
REMARK   13  A    between atoms: C28_32  and  O5_45
REMARK   14  A    between atoms: C32_38  and  C35_44
REMARK   15  A    between atoms: C33_41  and  C34_43
REMARK   16  A    between atoms: C40_51  and  O8_54
REMARK   17  A    between atoms: C41_52  and  O7_53
REMARK   18  A    between atoms: C42_55  and  C46_62
REMARK   19  A    between atoms: C43_58  and  C45_61
REMARK                            x       y       z     vdW  Elec       q    Type
REMARK                         _______ _______ _______ _____ _____    ______ ____
ROOT
ATOM      1  C   UNL     1      48.586  11.356  19.556  0.00  0.00    +0.096 C 
ATOM      2  C   UNL     1      48.100  12.765  19.779  0.00  0.00    -0.008 A 
ATOM      3  C   UNL     1      48.921  13.812  19.484  0.00  0.00    -0.063 A 
ATOM      4  C   UNL     1      48.480  15.127  19.686  0.00  0.00    +0.028 A 
ATOM      5  C   UNL     1      49.316  16.231  19.385  0.00  0.00    -0.088 A 
ATOM     24  C   UNL     1      48.856  17.516  19.594  0.00  0.00    +0.082 A 
ATOM     25  C   UNL     1      47.570  17.741  20.100  0.00  0.00    -0.097 A 
ATOM     59  C   UNL     1      46.732  16.674  20.402  0.00  0.00    +0.204 A 
ATOM     62  C   UNL     1      47.179  15.356  20.197  0.00  0.00    -0.109 A 
ATOM     63  C   UNL     1      46.351  14.255  20.494  0.00  0.00    +0.177 A 
ATOM     66  C   UNL     1      46.818  12.977  20.276  0.00  0.00    -0.099 A 
ENDROOT
BRANCH   5   6
ATOM      6  C   UNL     1      50.679  16.006  18.851  0.00  0.00    -0.027 A 
ATOM      7  C   UNL     1      51.708  15.603  19.709  0.00  0.00    -0.069 A 
ATOM      8  C   UNL     1      52.974  15.392  19.212  0.00  0.00    -0.124 A 
ATOM      9  C   UNL     1      54.108  14.949  20.099  0.00  0.00    +0.228 C 
ATOM     10  C   UNL     1      55.379  15.708  19.710  0.00  0.00    +0.098 C 
ATOM     11  N   UNL     1      53.799  15.215  21.506  0.00  0.00    -0.504 N 
ATOM     12  H   UNL     1      53.746  16.212  21.658  0.00  0.00    +0.433 HD
ATOM     13  H   UNL     1      54.520  14.821  22.091  0.00  0.00    +0.433 HD
ATOM     14  C   UNL     1      52.506  14.598  21.837  0.00  0.00    +0.178 C 
ATOM     15  C   UNL     1      52.476  13.159  21.319  0.00  0.00    +0.083 C 
ATOM     16  C   UNL     1      53.228  15.585  17.861  0.00  0.00    +0.039 A 
ATOM     17  C   UNL     1      52.219  15.985  17.002  0.00  0.00    +0.102 A 
ATOM     20  C   UNL     1      51.394  15.410  21.171  0.00  0.00    +0.130 C 
ATOM     21  C   UNL     1      50.935  16.193  17.492  0.00  0.00    +0.128 A 
BRANCH  17  18
ATOM     18  O   UNL     1      52.482  16.170  15.681  0.00  0.00    -0.483 OA
ATOM     19  H   UNL     1      53.403  16.005  15.436  0.00  0.00    +0.404 HD
ENDBRANCH  17  18
BRANCH  21  22
ATOM     22  O   UNL     1      49.936  16.578  16.653  0.00  0.00    -0.479 OA
ATOM     23  H   UNL     1      49.054  16.531  17.046  0.00  0.00    +0.406 HD
ENDBRANCH  21  22
ENDBRANCH   5   6
BRANCH  25  26
ATOM     26  C   UNL     1      47.099  19.129  20.317  0.00  0.00    -0.106 A 
ATOM     27  C   UNL     1      45.865  19.525  19.788  0.00  0.00    +0.047 A 
ATOM     28  C   UNL     1      45.400  20.819  19.977  0.00  0.00    -0.034 A 
ATOM     47  C   UNL     1      46.219  21.764  20.738  0.00  0.00    +0.026 A 
ATOM     48  C   UNL     1      45.793  23.079  20.957  0.00  0.00    -0.032 A 
ATOM     49  C   UNL     1      46.576  23.939  21.670  0.00  0.00    -0.020 A 
ATOM     50  C   UNL     1      46.109  25.353  21.900  0.00  0.00    +0.095 C 
ATOM     51  C   UNL     1      47.800  23.528  22.189  0.00  0.00    -0.096 A 
ATOM     52  C   UNL     1      48.253  22.243  21.994  0.00  0.00    +0.167 A 
ATOM     55  C   UNL     1      47.462  21.334  21.261  0.00  0.00    -0.109 A 
ATOM     56  C   UNL     1      47.886  20.010  21.045  0.00  0.00    +0.194 A 
BRANCH  28  29
ATOM     29  C   UNL     1      44.107  21.234  19.422  0.00  0.00    -0.186 C 
ATOM     30  C   UNL     1      43.974  22.431  18.790  0.00  0.00    +0.182 C 
ATOM     33  C   UNL     1      42.665  22.847  18.280  0.00  0.00    -0.138 C 
ATOM     34  C   UNL     1      41.545  22.261  18.738  0.00  0.00    +0.138 C 
ATOM     37  C   UNL     1      41.658  21.202  19.795  0.00  0.00    +0.062 C 
ATOM     38  C   UNL     1      40.441  20.283  19.825  0.00  0.00    +0.191 C 
ATOM     39  C   UNL     1      40.340  19.523  18.500  0.00  0.00    +0.097 C 
ATOM     40  N   UNL     1      40.593  19.326  20.932  0.00  0.00    -0.502 N 
ATOM     41  H   UNL     1      40.703  19.830  21.799  0.00  0.00    +0.420 HD
ATOM     42  H   UNL     1      39.770  18.746  20.988  0.00  0.00    +0.432 HD
ATOM     43  C   UNL     1      41.768  18.477  20.713  0.00  0.00    +0.158 C 
ATOM     44  C   UNL     1      41.877  17.467  21.857  0.00  0.00    +0.089 C 
ATOM     45  C   UNL     1      43.043  19.330  20.667  0.00  0.00    +0.090 C 
ATOM     46  C   UNL     1      42.902  20.344  19.534  0.00  0.00    +0.075 C 
BRANCH  30  31
ATOM     31  O   UNL     1      45.053  23.241  18.634  0.00  0.00    -0.456 OA
ATOM     32  H   UNL     1      45.488  23.156  17.774  0.00  0.00    +0.402 HD
ENDBRANCH  30  31
BRANCH  34  35
ATOM     35  O   UNL     1      40.334  22.621  18.253  0.00  0.00    -0.473 OA
ATOM     36  H   UNL     1      39.691  21.899  18.226  0.00  0.00    +0.418 HD
ENDBRANCH  34  35
ENDBRANCH  28  29
BRANCH  52  53
ATOM     53  O   UNL     1      49.449  21.852  22.505  0.00  0.00    -0.293 OA
ATOM     54  C   UNL     1      50.619  22.216  21.768  0.00  0.00    +0.247 C 
ENDBRANCH  52  53
BRANCH  56  57
ATOM     57  O   UNL     1      49.076  19.592  21.549  0.00  0.00    -0.466 OA
ATOM     58  H   UNL     1      49.080  18.668  21.835  0.00  0.00    +0.389 HD
ENDBRANCH  56  57
ENDBRANCH  25  26
BRANCH  59  60
ATOM     60  O   UNL     1      45.488  16.903  20.892  0.00  0.00    -0.461 OA
ATOM     61  H   UNL     1      45.320  17.827  21.126  0.00  0.00    +0.392 HD
ENDBRANCH  59  60
BRANCH  63  64
ATOM     64  O   UNL     1      45.099  14.451  20.984  0.00  0.00    -0.290 OA
ATOM     65  C   UNL     1      44.953  14.454  22.406  0.00  0.00    +0.251 C 
ENDBRANCH  63  64
TORSDOF 11
ENDMDL
MODEL 5
REMARK VINA RESULT:      -1.5      2.518      9.502
REMARK  Name = ZINC95486185
REMARK  19 active torsions:
REMARK  status: ('A' for Active; 'I' for Inactive)
REMARK    1  A    between atoms: C1_1  and  C2_2
REMARK    2  A    between atoms: C5_5  and  C36_47
REMARK    3  A    between atoms: C7_7  and  C13_15
REMARK    4  A    between atoms: C8_8  and  O2_14
REMARK    5  A    between atoms: C10_10  and  O1_12
REMARK    6  A    between atoms: O1_12  and  C12_13
REMARK    7  A    between atoms: C15_17  and  C25_29
REMARK    8  A    between atoms: C18_20  and  C24_28
REMARK    9  A    between atoms: C20_22  and  O4_26
REMARK   10  A    between atoms: C22_24  and  O3_25
REMARK   11  A    between atoms: O4_26  and  C23_27
REMARK   12  A    between atoms: C26_30  and  O6_46
REMARK   13  A    between atoms: C28_32  and  O5_45
REMARK   14  A    between atoms: C32_38  and  C35_44
REMARK   15  A    between atoms: C33_41  and  C34_43
REMARK   16  A    between atoms: C40_51  and  O8_54
REMARK   17  A    between atoms: C41_52  and  O7_53
REMARK   18  A    between atoms: C42_55  and  C46_62
REMARK   19  A    between atoms: C43_58  and  C45_61
REMARK                            x       y       z     vdW  Elec       q    Type
REMARK                         _______ _______ _______ _____ _____    ______ ____
ROOT
ATOM      1  C   UNL     1      47.033  24.720  22.133  0.00  0.00    +0.096 C 
ATOM      2  C   UNL     1      47.421  23.292  21.847  0.00  0.00    -0.008 A 
ATOM      3  C   UNL     1      46.535  22.470  21.217  0.00  0.00    -0.063 A 
ATOM      4  C   UNL     1      46.885  21.140  20.944  0.00  0.00    +0.028 A 
ATOM      5  C   UNL     1      45.980  20.269  20.289  0.00  0.00    -0.088 A 
ATOM     24  C   UNL     1      46.350  18.963  20.032  0.00  0.00    +0.082 A 
ATOM     25  C   UNL     1      47.612  18.491  20.414  0.00  0.00    -0.097 A 
ATOM     59  C   UNL     1      48.516  19.327  21.057  0.00  0.00    +0.204 A 
ATOM     62  C   UNL     1      48.161  20.662  21.329  0.00  0.00    -0.109 A 
ATOM     63  C   UNL     1      49.057  21.533  21.980  0.00  0.00    +0.177 A 
ATOM     66  C   UNL     1      48.679  22.835  22.225  0.00  0.00    -0.099 A 
ENDROOT
BRANCH   5   6
ATOM      6  C   UNL     1      44.642  20.755  19.881  0.00  0.00    -0.027 A 
ATOM      7  C   UNL     1      43.510  19.968  20.119  0.00  0.00    -0.069 A 
ATOM      8  C   UNL     1      42.266  20.421  19.743  0.00  0.00    -0.124 A 
ATOM      9  C   UNL     1      41.021  19.610  19.988  0.00  0.00    +0.228 C 
ATOM     10  C   UNL     1      40.106  19.707  18.765  0.00  0.00    +0.098 C 
ATOM     11  N   UNL     1      41.358  18.205  20.228  0.00  0.00    -0.504 N 
ATOM     12  H   UNL     1      41.749  17.803  19.388  0.00  0.00    +0.433 HD
ATOM     13  H   UNL     1      40.527  17.697  20.491  0.00  0.00    +0.433 HD
ATOM     14  C   UNL     1      42.345  18.128  21.315  0.00  0.00    +0.178 C 
ATOM     15  C   UNL     1      41.890  19.003  22.485  0.00  0.00    +0.083 C 
ATOM     16  C   UNL     1      42.138  21.658  19.123  0.00  0.00    +0.039 A 
ATOM     17  C   UNL     1      43.251  22.445  18.881  0.00  0.00    +0.102 A 
ATOM     20  C   UNL     1      43.690  18.629  20.789  0.00  0.00    +0.130 C 
ATOM     21  C   UNL     1      44.510  22.000  19.265  0.00  0.00    +0.128 A 
BRANCH  17  18
ATOM     18  O   UNL     1      43.111  23.654  18.274  0.00  0.00    -0.483 OA
ATOM     19  H   UNL     1      43.462  24.395  18.788  0.00  0.00    +0.404 HD
ENDBRANCH  17  18
BRANCH  21  22
ATOM     22  O   UNL     1      45.607  22.772  19.038  0.00  0.00    -0.479 OA
ATOM     23  H   UNL     1      45.477  23.448  18.359  0.00  0.00    +0.406 HD
ENDBRANCH  21  22
ENDBRANCH   5   6
BRANCH  25  26
ATOM     26  C   UNL     1      47.987  17.085  20.130  0.00  0.00    -0.106 A 
ATOM     27  C   UNL     1      48.852  16.808  19.066  0.00  0.00    +0.047 A 
ATOM     28  C   UNL     1      49.220  15.501  18.779  0.00  0.00    -0.034 A 
ATOM     47  C   UNL     1      48.688  14.416  19.605  0.00  0.00    +0.026 A 
ATOM     48  C   UNL     1      49.030  13.081  19.357  0.00  0.00    -0.032 A 
ATOM     49  C   UNL     1      48.520  12.090  20.143  0.00  0.00    -0.020 A 
ATOM     50  C   UNL     1      48.894  10.656  19.866  0.00  0.00    +0.095 C 
ATOM     51  C   UNL     1      47.660  12.384  21.197  0.00  0.00    -0.096 A 
ATOM     52  C   UNL     1      47.302  13.684  21.472  0.00  0.00    +0.167 A 
ATOM     55  C   UNL     1      47.815  14.728  20.675  0.00  0.00    -0.109 A 
ATOM     56  C   UNL     1      47.477  16.070  20.927  0.00  0.00    +0.194 A 
BRANCH  28  29
ATOM     29  C   UNL     1      50.127  15.210  17.663  0.00  0.00    -0.186 C 
ATOM     30  C   UNL     1      51.201  16.006  17.415  0.00  0.00    +0.182 C 
ATOM     33  C   UNL     1      52.072  15.724  16.269  0.00  0.00    -0.138 C 
ATOM     34  C   UNL     1      51.634  14.943  15.267  0.00  0.00    +0.138 C 
ATOM     37  C   UNL     1      50.238  14.395  15.326  0.00  0.00    +0.062 C 
ATOM     38  C   UNL     1      50.067  13.153  14.458  0.00  0.00    +0.191 C 
ATOM     39  C   UNL     1      50.965  12.031  14.986  0.00  0.00    +0.097 C 
ATOM     40  N   UNL     1      48.660  12.724  14.510  0.00  0.00    -0.502 N 
ATOM     41  H   UNL     1      48.068  13.480  14.203  0.00  0.00    +0.420 HD
ATOM     42  H   UNL     1      48.530  11.931  13.901  0.00  0.00    +0.432 HD
ATOM     43  C   UNL     1      48.293  12.348  15.879  0.00  0.00    +0.158 C 
ATOM     44  C   UNL     1      46.840  11.869  15.894  0.00  0.00    +0.089 C 
ATOM     45  C   UNL     1      48.441  13.549  16.822  0.00  0.00    +0.090 C 
ATOM     46  C   UNL     1      49.892  14.023  16.772  0.00  0.00    +0.075 C 
BRANCH  30  31
ATOM     31  O   UNL     1      51.467  17.062  18.226  0.00  0.00    -0.456 OA
ATOM     32  H   UNL     1      51.026  17.019  19.086  0.00  0.00    +0.402 HD
ENDBRANCH  30  31
BRANCH  34  35
ATOM     35  O   UNL     1      52.440  14.657  14.218  0.00  0.00    -0.473 OA
ATOM     36  H   UNL     1      52.046  14.849  13.355  0.00  0.00    +0.418 HD
ENDBRANCH  34  35
ENDBRANCH  28  29
BRANCH  52  53
ATOM     53  O   UNL     1      46.462  13.960  22.503  0.00  0.00    -0.293 OA
ATOM     54  C   UNL     1      45.163  13.365  22.458  0.00  0.00    +0.247 C 
ENDBRANCH  52  53
BRANCH  56  57
ATOM     57  O   UNL     1      46.643  16.374  21.956  0.00  0.00    -0.466 OA
ATOM     58  H   UNL     1      45.767  15.972  21.884  0.00  0.00    +0.389 HD
ENDBRANCH  56  57
ENDBRANCH  25  26
BRANCH  59  60
ATOM     60  O   UNL     1      49.736  18.859  21.423  0.00  0.00    -0.461 OA
ATOM     61  H   UNL     1      50.384  18.845  20.706  0.00  0.00    +0.392 HD
ENDBRANCH  59  60
BRANCH  63  64
ATOM     64  O   UNL     1      50.286  21.095  22.357  0.00  0.00    -0.290 OA
ATOM     65  C   UNL     1      51.405  21.908  21.997  0.00  0.00    +0.251 C 
ENDBRANCH  63  64
TORSDOF 11
ENDMDL
MODEL 6
REMARK VINA RESULT:      -1.5      2.921      6.119
REMARK  Name = ZINC95486185
REMARK  19 active torsions:
REMARK  status: ('A' for Active; 'I' for Inactive)
REMARK    1  A    between atoms: C1_1  and  C2_2
REMARK    2  A    between atoms: C5_5  and  C36_47
REMARK    3  A    between atoms: C7_7  and  C13_15
REMARK    4  A    between atoms: C8_8  and  O2_14
REMARK    5  A    between atoms: C10_10  and  O1_12
REMARK    6  A    between atoms: O1_12  and  C12_13
REMARK    7  A    between atoms: C15_17  and  C25_29
REMARK    8  A    between atoms: C18_20  and  C24_28
REMARK    9  A    between atoms: C20_22  and  O4_26
REMARK   10  A    between atoms: C22_24  and  O3_25
REMARK   11  A    between atoms: O4_26  and  C23_27
REMARK   12  A    between atoms: C26_30  and  O6_46
REMARK   13  A    between atoms: C28_32  and  O5_45
REMARK   14  A    between atoms: C32_38  and  C35_44
REMARK   15  A    between atoms: C33_41  and  C34_43
REMARK   16  A    between atoms: C40_51  and  O8_54
REMARK   17  A    between atoms: C41_52  and  O7_53
REMARK   18  A    between atoms: C42_55  and  C46_62
REMARK   19  A    between atoms: C43_58  and  C45_61
REMARK                            x       y       z     vdW  Elec       q    Type
REMARK                         _______ _______ _______ _____ _____    ______ ____
ROOT
ATOM      1  C   UNL     1      54.600  10.408  21.480  0.00  0.00    +0.096 C 
ATOM      2  C   UNL     1      54.249  11.781  20.966  0.00  0.00    -0.008 A 
ATOM      3  C   UNL     1      52.991  12.020  20.498  0.00  0.00    -0.063 A 
ATOM      4  C   UNL     1      52.652  13.293  20.017  0.00  0.00    +0.028 A 
ATOM      5  C   UNL     1      51.350  13.564  19.528  0.00  0.00    -0.088 A 
ATOM     24  C   UNL     1      51.043  14.827  19.060  0.00  0.00    +0.082 A 
ATOM     25  C   UNL     1      52.006  15.844  19.066  0.00  0.00    -0.097 A 
ATOM     59  C   UNL     1      53.288  15.601  19.542  0.00  0.00    +0.204 A 
ATOM     62  C   UNL     1      53.625  14.322  20.023  0.00  0.00    -0.109 A 
ATOM     63  C   UNL     1      54.917  14.048  20.512  0.00  0.00    +0.177 A 
ATOM     66  C   UNL     1      55.211  12.785  20.982  0.00  0.00    -0.099 A 
ENDROOT
BRANCH   5   6
ATOM      6  C   UNL     1      50.323  12.496  19.515  0.00  0.00    -0.027 A 
ATOM      7  C   UNL     1      49.803  12.043  18.299  0.00  0.00    -0.069 A 
ATOM      8  C   UNL     1      48.850  11.049  18.286  0.00  0.00    -0.124 A 
ATOM      9  C   UNL     1      48.270  10.526  16.999  0.00  0.00    +0.228 C 
ATOM     10  C   UNL     1      46.764  10.314  17.174  0.00  0.00    +0.098 C 
ATOM     11  N   UNL     1      48.500  11.472  15.905  0.00  0.00    -0.504 N 
ATOM     12  H   UNL     1      47.982  12.322  16.078  0.00  0.00    +0.433 HD
ATOM     13  H   UNL     1      48.198  11.063  15.034  0.00  0.00    +0.433 HD
ATOM     14  C   UNL     1      49.936  11.779  15.831  0.00  0.00    +0.178 C 
ATOM     15  C   UNL     1      50.743  10.479  15.885  0.00  0.00    +0.083 C 
ATOM     16  C   UNL     1      48.405  10.503  19.483  0.00  0.00    +0.039 A 
ATOM     17  C   UNL     1      48.912  10.944  20.693  0.00  0.00    +0.102 A 
ATOM     20  C   UNL     1      50.307  12.665  17.021  0.00  0.00    +0.130 C 
ATOM     21  C   UNL     1      49.880  11.941  20.715  0.00  0.00    +0.128 A 
BRANCH  17  18
ATOM     18  O   UNL     1      48.467  10.400  21.857  0.00  0.00    -0.483 OA
ATOM     19  H   UNL     1      49.027   9.687  22.197  0.00  0.00    +0.404 HD
ENDBRANCH  17  18
BRANCH  21  22
ATOM     22  O   UNL     1      50.389  12.374  21.900  0.00  0.00    -0.479 OA
ATOM     23  H   UNL     1      51.235  11.970  22.135  0.00  0.00    +0.406 HD
ENDBRANCH  21  22
ENDBRANCH   5   6
BRANCH  25  26
ATOM     26  C   UNL     1      51.654  17.191  18.559  0.00  0.00    -0.106 A 
ATOM     27  C   UNL     1      50.884  18.045  19.357  0.00  0.00    +0.047 A 
ATOM     28  C   UNL     1      50.542  19.312  18.906  0.00  0.00    -0.034 A 
ATOM     47  C   UNL     1      50.996  19.741  17.582  0.00  0.00    +0.026 A 
ATOM     48  C   UNL     1      50.677  21.010  17.083  0.00  0.00    -0.032 A 
ATOM     49  C   UNL     1      51.114  21.385  15.846  0.00  0.00    -0.020 A 
ATOM     50  C   UNL     1      50.765  22.752  15.318  0.00  0.00    +0.095 C 
ATOM     51  C   UNL     1      51.878  20.522  15.066  0.00  0.00    -0.096 A 
ATOM     52  C   UNL     1      52.212  19.267  15.523  0.00  0.00    +0.167 A 
ATOM     55  C   UNL     1      51.773  18.856  16.798  0.00  0.00    -0.109 A 
ATOM     56  C   UNL     1      52.098  17.583  17.304  0.00  0.00    +0.194 A 
BRANCH  28  29
ATOM     29  C   UNL     1      49.734  20.207  19.742  0.00  0.00    -0.186 C 
ATOM     30  C   UNL     1      50.318  20.976  20.701  0.00  0.00    +0.182 C 
ATOM     33  C   UNL     1      49.490  21.833  21.555  0.00  0.00    -0.138 C 
ATOM     34  C   UNL     1      48.170  21.602  21.663  0.00  0.00    +0.138 C 
ATOM     37  C   UNL     1      47.570  20.443  20.922  0.00  0.00    +0.062 C 
ATOM     38  C   UNL     1      46.071  20.614  20.698  0.00  0.00    +0.191 C 
ATOM     39  C   UNL     1      45.821  21.835  19.809  0.00  0.00    +0.097 C 
ATOM     40  N   UNL     1      45.546  19.408  20.038  0.00  0.00    -0.502 N 
ATOM     41  H   UNL     1      45.751  18.599  20.605  0.00  0.00    +0.420 HD
ATOM     42  H   UNL     1      44.548  19.494  19.929  0.00  0.00    +0.432 HD
ATOM     43  C   UNL     1      46.163  19.241  18.718  0.00  0.00    +0.158 C 
ATOM     44  C   UNL     1      45.570  18.005  18.041  0.00  0.00    +0.089 C 
ATOM     45  C   UNL     1      47.681  19.065  18.856  0.00  0.00    +0.090 C 
ATOM     46  C   UNL     1      48.247  20.299  19.555  0.00  0.00    +0.075 C 
BRANCH  30  31
ATOM     31  O   UNL     1      51.665  20.949  20.868  0.00  0.00    -0.456 OA
ATOM     32  H   UNL     1      52.157  20.733  20.064  0.00  0.00    +0.402 HD
ENDBRANCH  30  31
BRANCH  34  35
ATOM     35  O   UNL     1      47.393  22.404  22.429  0.00  0.00    -0.473 OA
ATOM     36  H   UNL     1      46.646  21.949  22.842  0.00  0.00    +0.418 HD
ENDBRANCH  34  35
ENDBRANCH  28  29
BRANCH  52  53
ATOM     53  O   UNL     1      52.958  18.433  14.753  0.00  0.00    -0.293 OA
ATOM     54  C   UNL     1      52.435  17.123  14.521  0.00  0.00    +0.247 C 
ENDBRANCH  52  53
BRANCH  56  57
ATOM     57  O   UNL     1      52.847  16.731  16.556  0.00  0.00    -0.466 OA
ATOM     58  H   UNL     1      53.710  16.526  16.941  0.00  0.00    +0.389 HD
ENDBRANCH  56  57
ENDBRANCH  25  26
BRANCH  59  60
ATOM     60  O   UNL     1      54.214  16.594  19.543  0.00  0.00    -0.461 OA
ATOM     61  H   UNL     1      54.756  16.627  18.743  0.00  0.00    +0.392 HD
ENDBRANCH  59  60
BRANCH  63  64
ATOM     64  O   UNL     1      55.865  15.020  20.527  0.00  0.00    -0.290 OA
ATOM     65  C   UNL     1      57.230  14.598  20.478  0.00  0.00    +0.251 C 
ENDBRANCH  63  64
TORSDOF 11
ENDMDL
