MODEL 1
REMARK VINA RESULT:      -6.6      0.000      0.000
REMARK  Name = ZINC95486316
REMARK  8 active torsions:
REMARK  status: ('A' for Active; 'I' for Inactive)
REMARK    1  A    between atoms: C1_1  and  C2_2
REMARK    2  A    between atoms: C7_8  and  C12_16
REMARK    3  A    between atoms: C8_9  and  O1_15
REMARK    4  A    between atoms: C10_11  and  C11_14
REMARK    5  A    between atoms: C17_21  and  O4_29
REMARK    6  A    between atoms: C19_23  and  O3_27
REMARK    7  A    between atoms: C21_25  and  O2_26
REMARK    8  A    between atoms: O3_27  and  C22_28
REMARK                            x       y       z     vdW  Elec       q    Type
REMARK                         _______ _______ _______ _____ _____    ______ ____
ROOT
ATOM      8  C   UNL     1      45.123  19.727  19.698  0.00  0.00    -0.100 A 
ATOM      9  C   UNL     1      43.898  20.349  19.360  0.00  0.00    +0.030 A 
ATOM     10  C   UNL     1      42.808  19.597  18.898  0.00  0.00    +0.011 A 
ATOM     11  C   UNL     1      41.639  20.218  18.579  0.00  0.00    +0.049 A 
ATOM     12  C   UNL     1      41.503  21.597  18.703  0.00  0.00    -0.027 A 
ATOM     13  C   UNL     1      42.551  22.370  19.153  0.00  0.00    +0.144 A 
ATOM     16  C   UNL     1      43.772  21.753  19.490  0.00  0.00    -0.106 A 
ATOM     17  C   UNL     1      44.866  22.511  19.956  0.00  0.00    +0.177 A 
ATOM     20  C   UNL     1      46.048  21.885  20.279  0.00  0.00    -0.117 A 
ATOM     21  C   UNL     1      46.181  20.503  20.158  0.00  0.00    +0.167 A 
ENDROOT
BRANCH   8   7
ATOM      1  C   UNL     1      46.652  12.129  17.888  0.00  0.00    +0.036 C 
ATOM      2  C   UNL     1      46.704  13.637  18.145  0.00  0.00    +0.124 C 
ATOM      3  C   UNL     1      45.689  14.009  19.226  0.00  0.00    +0.092 C 
ATOM      4  C   UNL     1      45.562  15.509  19.317  0.00  0.00    -0.050 A 
ATOM      5  C   UNL     1      44.978  16.052  20.454  0.00  0.00    -0.001 A 
ATOM      6  C   UNL     1      44.834  17.416  20.587  0.00  0.00    +0.044 A 
ATOM      7  C   UNL     1      45.276  18.261  19.569  0.00  0.00    -0.057 A 
ATOM     24  C   UNL     1      45.864  17.713  18.426  0.00  0.00    +0.121 A 
ATOM     27  C   UNL     1      46.007  16.335  18.306  0.00  0.00    -0.095 A 
ATOM     28  C   UNL     1      46.657  15.789  17.061  0.00  0.00    +0.228 C 
ATOM     29  C   UNL     1      48.171  15.982  17.156  0.00  0.00    -0.002 C 
ATOM     30  N   UNL     1      46.364  14.362  16.910  0.00  0.00    -0.675 NA
ATOM     31  H   UNL     1      46.852  13.972  16.116  0.00  0.00    +0.347 HD
BRANCH  24  25
ATOM     25  O   UNL     1      46.297  18.527  17.429  0.00  0.00    -0.486 OA
ATOM     26  H   UNL     1      45.731  19.297  17.276  0.00  0.00    +0.381 HD
ENDBRANCH  24  25
ENDBRANCH   8   7
BRANCH  13  14
ATOM     14  O   UNL     1      42.409  23.715  19.271  0.00  0.00    -0.480 OA
ATOM     15  H   UNL     1      41.496  24.023  19.184  0.00  0.00    +0.392 HD
ENDBRANCH  13  14
BRANCH  17  18
ATOM     18  O   UNL     1      44.753  23.858  20.083  0.00  0.00    -0.292 OA
ATOM     19  C   UNL     1      45.732  24.517  20.890  0.00  0.00    +0.242 C 
ENDBRANCH  17  18
BRANCH  21  22
ATOM     22  O   UNL     1      47.357  19.909  20.489  0.00  0.00    -0.489 OA
ATOM     23  H   UNL     1      48.139  20.434  20.269  0.00  0.00    +0.388 HD
ENDBRANCH  21  22
TORSDOF 5
ENDMDL
MODEL 2
REMARK VINA RESULT:      -6.2      1.246      2.891
REMARK  Name = ZINC95486316
REMARK  8 active torsions:
REMARK  status: ('A' for Active; 'I' for Inactive)
REMARK    1  A    between atoms: C1_1  and  C2_2
REMARK    2  A    between atoms: C7_8  and  C12_16
REMARK    3  A    between atoms: C8_9  and  O1_15
REMARK    4  A    between atoms: C10_11  and  C11_14
REMARK    5  A    between atoms: C17_21  and  O4_29
REMARK    6  A    between atoms: C19_23  and  O3_27
REMARK    7  A    between atoms: C21_25  and  O2_26
REMARK    8  A    between atoms: O3_27  and  C22_28
REMARK                            x       y       z     vdW  Elec       q    Type
REMARK                         _______ _______ _______ _____ _____    ______ ____
ROOT
ATOM      8  C   UNL     1      45.118  19.723  19.785  0.00  0.00    -0.100 A 
ATOM      9  C   UNL     1      46.054  20.455  20.553  0.00  0.00    +0.030 A 
ATOM     10  C   UNL     1      47.137  19.816  21.175  0.00  0.00    +0.011 A 
ATOM     11  C   UNL     1      48.026  20.541  21.909  0.00  0.00    +0.049 A 
ATOM     12  C   UNL     1      47.879  21.918  22.055  0.00  0.00    -0.027 A 
ATOM     13  C   UNL     1      46.829  22.580  21.460  0.00  0.00    +0.144 A 
ATOM     16  C   UNL     1      45.894  21.854  20.695  0.00  0.00    -0.106 A 
ATOM     17  C   UNL     1      44.808  22.499  20.070  0.00  0.00    +0.177 A 
ATOM     20  C   UNL     1      43.909  21.767  19.327  0.00  0.00    -0.117 A 
ATOM     21  C   UNL     1      44.060  20.389  19.179  0.00  0.00    +0.167 A 
ENDROOT
BRANCH   8   7
ATOM      1  C   UNL     1      46.665  12.164  17.836  0.00  0.00    +0.036 C 
ATOM      2  C   UNL     1      46.717  13.664  18.132  0.00  0.00    +0.124 C 
ATOM      3  C   UNL     1      45.669  14.015  19.188  0.00  0.00    +0.092 C 
ATOM      4  C   UNL     1      45.546  15.513  19.313  0.00  0.00    -0.050 A 
ATOM      5  C   UNL     1      44.929  16.031  20.443  0.00  0.00    -0.001 A 
ATOM      6  C   UNL     1      44.787  17.392  20.605  0.00  0.00    +0.044 A 
ATOM      7  C   UNL     1      45.266  18.259  19.624  0.00  0.00    -0.057 A 
ATOM     24  C   UNL     1      45.889  17.736  18.488  0.00  0.00    +0.121 A 
ATOM     27  C   UNL     1      46.028  16.361  18.338  0.00  0.00    -0.095 A 
ATOM     28  C   UNL     1      46.716  15.843  17.102  0.00  0.00    +0.228 C 
ATOM     29  C   UNL     1      48.227  16.024  17.250  0.00  0.00    -0.002 C 
ATOM     30  N   UNL     1      46.421  14.421  16.905  0.00  0.00    -0.675 NA
ATOM     31  H   UNL     1      46.932  14.049  16.118  0.00  0.00    +0.347 HD
BRANCH  24  25
ATOM     25  O   UNL     1      46.359  18.573  17.526  0.00  0.00    -0.486 OA
ATOM     26  H   UNL     1      45.979  19.462  17.559  0.00  0.00    +0.381 HD
ENDBRANCH  24  25
ENDBRANCH   8   7
BRANCH  13  14
ATOM     14  O   UNL     1      46.695  23.923  21.608  0.00  0.00    -0.480 OA
ATOM     15  H   UNL     1      47.146  24.281  22.385  0.00  0.00    +0.392 HD
ENDBRANCH  13  14
BRANCH  17  18
ATOM     18  O   UNL     1      44.647  23.840  20.201  0.00  0.00    -0.292 OA
ATOM     19  C   UNL     1      44.490  24.596  18.998  0.00  0.00    +0.242 C 
ENDBRANCH  17  18
BRANCH  21  22
ATOM     22  O   UNL     1      43.161  19.691  18.436  0.00  0.00    -0.489 OA
ATOM     23  H   UNL     1      42.417  20.220  18.119  0.00  0.00    +0.388 HD
ENDBRANCH  21  22
TORSDOF 5
ENDMDL
MODEL 3
REMARK VINA RESULT:      -6.1      3.171      5.942
REMARK  Name = ZINC95486316
REMARK  8 active torsions:
REMARK  status: ('A' for Active; 'I' for Inactive)
REMARK    1  A    between atoms: C1_1  and  C2_2
REMARK    2  A    between atoms: C7_8  and  C12_16
REMARK    3  A    between atoms: C8_9  and  O1_15
REMARK    4  A    between atoms: C10_11  and  C11_14
REMARK    5  A    between atoms: C17_21  and  O4_29
REMARK    6  A    between atoms: C19_23  and  O3_27
REMARK    7  A    between atoms: C21_25  and  O2_26
REMARK    8  A    between atoms: O3_27  and  C22_28
REMARK                            x       y       z     vdW  Elec       q    Type
REMARK                         _______ _______ _______ _____ _____    ______ ____
ROOT
ATOM      8  C   UNL     1      47.095  15.743  17.921  0.00  0.00    -0.100 A 
ATOM      9  C   UNL     1      46.480  15.311  19.120  0.00  0.00    +0.030 A 
ATOM     10  C   UNL     1      46.792  14.065  19.686  0.00  0.00    +0.011 A 
ATOM     11  C   UNL     1      46.186  13.672  20.841  0.00  0.00    +0.049 A 
ATOM     12  C   UNL     1      45.256  14.489  21.477  0.00  0.00    -0.027 A 
ATOM     13  C   UNL     1      44.925  15.718  20.952  0.00  0.00    +0.144 A 
ATOM     16  C   UNL     1      45.535  16.150  19.758  0.00  0.00    -0.106 A 
ATOM     17  C   UNL     1      45.222  17.403  19.192  0.00  0.00    +0.177 A 
ATOM     20  C   UNL     1      45.833  17.802  18.025  0.00  0.00    -0.117 A 
ATOM     21  C   UNL     1      46.767  16.985  17.392  0.00  0.00    +0.167 A 
ENDROOT
BRANCH   8   7
ATOM      1  C   UNL     1      51.378  10.708  13.488  0.00  0.00    +0.036 C 
ATOM      2  C   UNL     1      50.408  11.764  14.022  0.00  0.00    +0.124 C 
ATOM      3  C   UNL     1      50.981  12.392  15.293  0.00  0.00    +0.092 C 
ATOM      4  C   UNL     1      49.938  13.254  15.957  0.00  0.00    -0.050 A 
ATOM      5  C   UNL     1      50.355  14.180  16.904  0.00  0.00    -0.001 A 
ATOM      6  C   UNL     1      49.442  14.991  17.544  0.00  0.00    +0.044 A 
ATOM      7  C   UNL     1      48.086  14.880  17.239  0.00  0.00    -0.057 A 
ATOM     24  C   UNL     1      47.668  13.948  16.284  0.00  0.00    +0.121 A 
ATOM     27  C   UNL     1      48.599  13.139  15.645  0.00  0.00    -0.095 A 
ATOM     28  C   UNL     1      48.105  12.157  14.615  0.00  0.00    +0.228 C 
ATOM     29  C   UNL     1      47.793  12.901  13.315  0.00  0.00    -0.002 C 
ATOM     30  N   UNL     1      49.119  11.133  14.349  0.00  0.00    -0.675 NA
ATOM     31  H   UNL     1      48.824  10.511  13.611  0.00  0.00    +0.347 HD
BRANCH  24  25
ATOM     25  O   UNL     1      46.349  13.833  15.982  0.00  0.00    -0.486 OA
ATOM     26  H   UNL     1      45.842  14.646  16.116  0.00  0.00    +0.381 HD
ENDBRANCH  24  25
ENDBRANCH   8   7
BRANCH  13  14
ATOM     14  O   UNL     1      44.016  16.508  21.580  0.00  0.00    -0.480 OA
ATOM     15  H   UNL     1      43.749  17.284  21.069  0.00  0.00    +0.392 HD
ENDBRANCH  13  14
BRANCH  17  18
ATOM     18  O   UNL     1      44.317  18.214  19.797  0.00  0.00    -0.292 OA
ATOM     19  C   UNL     1      44.056  19.474  19.175  0.00  0.00    +0.242 C 
ENDBRANCH  17  18
BRANCH  21  22
ATOM     22  O   UNL     1      47.360  17.405  16.244  0.00  0.00    -0.489 OA
ATOM     23  H   UNL     1      47.203  18.337  16.038  0.00  0.00    +0.388 HD
ENDBRANCH  21  22
TORSDOF 5
ENDMDL
MODEL 4
REMARK VINA RESULT:      -6.1      3.698      5.642
REMARK  Name = ZINC95486316
REMARK  8 active torsions:
REMARK  status: ('A' for Active; 'I' for Inactive)
REMARK    1  A    between atoms: C1_1  and  C2_2
REMARK    2  A    between atoms: C7_8  and  C12_16
REMARK    3  A    between atoms: C8_9  and  O1_15
REMARK    4  A    between atoms: C10_11  and  C11_14
REMARK    5  A    between atoms: C17_21  and  O4_29
REMARK    6  A    between atoms: C19_23  and  O3_27
REMARK    7  A    between atoms: C21_25  and  O2_26
REMARK    8  A    between atoms: O3_27  and  C22_28
REMARK                            x       y       z     vdW  Elec       q    Type
REMARK                         _______ _______ _______ _____ _____    ______ ____
ROOT
ATOM      8  C   UNL     1      44.901  20.794  20.464  0.00  0.00    -0.100 A 
ATOM      9  C   UNL     1      44.125  19.752  21.023  0.00  0.00    +0.030 A 
ATOM     10  C   UNL     1      44.665  18.881  21.981  0.00  0.00    +0.011 A 
ATOM     11  C   UNL     1      43.897  17.885  22.505  0.00  0.00    +0.049 A 
ATOM     12  C   UNL     1      42.576  17.713  22.105  0.00  0.00    -0.027 A 
ATOM     13  C   UNL     1      42.011  18.548  21.167  0.00  0.00    +0.144 A 
ATOM     16  C   UNL     1      42.782  19.587  20.608  0.00  0.00    -0.106 A 
ATOM     17  C   UNL     1      42.236  20.462  19.646  0.00  0.00    +0.177 A 
ATOM     20  C   UNL     1      43.011  21.469  19.117  0.00  0.00    -0.117 A 
ATOM     21  C   UNL     1      44.333  21.642  19.521  0.00  0.00    +0.167 A 
ENDROOT
BRANCH   8   7
ATOM      1  C   UNL     1      52.774  21.212  21.556  0.00  0.00    +0.036 C 
ATOM      2  C   UNL     1      51.345  21.231  21.009  0.00  0.00    +0.124 C 
ATOM      3  C   UNL     1      50.366  21.546  22.141  0.00  0.00    +0.092 C 
ATOM      4  C   UNL     1      48.949  21.333  21.670  0.00  0.00    -0.050 A 
ATOM      5  C   UNL     1      47.918  21.897  22.409  0.00  0.00    -0.001 A 
ATOM      6  C   UNL     1      46.605  21.729  22.026  0.00  0.00    +0.044 A 
ATOM      7  C   UNL     1      46.307  20.984  20.885  0.00  0.00    -0.057 A 
ATOM     24  C   UNL     1      47.347  20.419  20.141  0.00  0.00    +0.121 A 
ATOM     27  C   UNL     1      48.667  20.598  20.537  0.00  0.00    -0.095 A 
ATOM     28  C   UNL     1      49.755  19.979  19.699  0.00  0.00    +0.228 C 
ATOM     29  C   UNL     1      49.971  20.827  18.444  0.00  0.00    -0.002 C 
ATOM     30  N   UNL     1      51.010  19.910  20.452  0.00  0.00    -0.675 NA
ATOM     31  H   UNL     1      51.762  19.561  19.876  0.00  0.00    +0.347 HD
BRANCH  24  25
ATOM     25  O   UNL     1      47.067  19.691  19.029  0.00  0.00    -0.486 OA
ATOM     26  H   UNL     1      46.280  19.134  19.111  0.00  0.00    +0.381 HD
ENDBRANCH  24  25
ENDBRANCH   8   7
BRANCH  13  14
ATOM     14  O   UNL     1      40.720  18.372  20.783  0.00  0.00    -0.480 OA
ATOM     15  H   UNL     1      40.261  19.192  20.557  0.00  0.00    +0.392 HD
ENDBRANCH  13  14
BRANCH  17  18
ATOM     18  O   UNL     1      40.949  20.310  19.243  0.00  0.00    -0.292 OA
ATOM     19  C   UNL     1      40.297  21.463  18.708  0.00  0.00    +0.242 C 
ENDBRANCH  17  18
BRANCH  21  22
ATOM     22  O   UNL     1      45.073  22.647  18.986  0.00  0.00    -0.489 OA
ATOM     23  H   UNL     1      45.788  22.958  19.559  0.00  0.00    +0.388 HD
ENDBRANCH  21  22
TORSDOF 5
ENDMDL
MODEL 5
REMARK VINA RESULT:      -6.0      3.157      4.860
REMARK  Name = ZINC95486316
REMARK  8 active torsions:
REMARK  status: ('A' for Active; 'I' for Inactive)
REMARK    1  A    between atoms: C1_1  and  C2_2
REMARK    2  A    between atoms: C7_8  and  C12_16
REMARK    3  A    between atoms: C8_9  and  O1_15
REMARK    4  A    between atoms: C10_11  and  C11_14
REMARK    5  A    between atoms: C17_21  and  O4_29
REMARK    6  A    between atoms: C19_23  and  O3_27
REMARK    7  A    between atoms: C21_25  and  O2_26
REMARK    8  A    between atoms: O3_27  and  C22_28
REMARK                            x       y       z     vdW  Elec       q    Type
REMARK                         _______ _______ _______ _____ _____    ______ ____
ROOT
ATOM      8  C   UNL     1      46.959  19.982  19.164  0.00  0.00    -0.100 A 
ATOM      9  C   UNL     1      46.611  21.026  20.054  0.00  0.00    +0.030 A 
ATOM     10  C   UNL     1      47.571  21.614  20.891  0.00  0.00    +0.011 A 
ATOM     11  C   UNL     1      47.212  22.617  21.739  0.00  0.00    +0.049 A 
ATOM     12  C   UNL     1      45.899  23.076  21.792  0.00  0.00    -0.027 A 
ATOM     13  C   UNL     1      44.929  22.524  20.985  0.00  0.00    +0.144 A 
ATOM     16  C   UNL     1      45.272  21.484  20.099  0.00  0.00    -0.106 A 
ATOM     17  C   UNL     1      44.306  20.897  19.257  0.00  0.00    +0.177 A 
ATOM     20  C   UNL     1      44.667  19.883  18.399  0.00  0.00    -0.117 A 
ATOM     21  C   UNL     1      45.983  19.427  18.345  0.00  0.00    +0.167 A 
ENDROOT
BRANCH   8   7
ATOM      1  C   UNL     1      53.948  16.180  19.331  0.00  0.00    +0.036 C 
ATOM      2  C   UNL     1      52.484  16.595  19.172  0.00  0.00    +0.124 C 
ATOM      3  C   UNL     1      52.402  18.100  18.914  0.00  0.00    +0.092 C 
ATOM      4  C   UNL     1      50.968  18.558  18.994  0.00  0.00    -0.050 A 
ATOM      5  C   UNL     1      50.639  19.791  18.446  0.00  0.00    -0.001 A 
ATOM      6  C   UNL     1      49.344  20.259  18.495  0.00  0.00    +0.044 A 
ATOM      7  C   UNL     1      48.353  19.489  19.102  0.00  0.00    -0.057 A 
ATOM     24  C   UNL     1      48.685  18.248  19.652  0.00  0.00    +0.121 A 
ATOM     27  C   UNL     1      49.994  17.786  19.593  0.00  0.00    -0.095 A 
ATOM     28  C   UNL     1      50.304  16.437  20.188  0.00  0.00    +0.228 C 
ATOM     29  C   UNL     1      49.828  15.341  19.233  0.00  0.00    -0.002 C 
ATOM     30  N   UNL     1      51.745  16.288  20.408  0.00  0.00    -0.675 NA
ATOM     31  H   UNL     1      51.969  15.363  20.742  0.00  0.00    +0.347 HD
BRANCH  24  25
ATOM     25  O   UNL     1      47.726  17.490  20.246  0.00  0.00    -0.486 OA
ATOM     26  H   UNL     1      47.482  17.791  21.133  0.00  0.00    +0.381 HD
ENDBRANCH  24  25
ENDBRANCH   8   7
BRANCH  13  14
ATOM     14  O   UNL     1      43.651  22.979  21.044  0.00  0.00    -0.480 OA
ATOM     15  H   UNL     1      43.441  23.651  20.381  0.00  0.00    +0.392 HD
ENDBRANCH  13  14
BRANCH  17  18
ATOM     18  O   UNL     1      43.020  21.330  19.294  0.00  0.00    -0.292 OA
ATOM     19  C   UNL     1      42.020  20.439  18.795  0.00  0.00    +0.242 C 
ENDBRANCH  17  18
BRANCH  21  22
ATOM     22  O   UNL     1      46.314  18.428  17.486  0.00  0.00    -0.489 OA
ATOM     23  H   UNL     1      45.828  17.606  17.632  0.00  0.00    +0.388 HD
ENDBRANCH  21  22
TORSDOF 5
ENDMDL
MODEL 6
REMARK VINA RESULT:      -5.8      3.754      6.684
REMARK  Name = ZINC95486316
REMARK  8 active torsions:
REMARK  status: ('A' for Active; 'I' for Inactive)
REMARK    1  A    between atoms: C1_1  and  C2_2
REMARK    2  A    between atoms: C7_8  and  C12_16
REMARK    3  A    between atoms: C8_9  and  O1_15
REMARK    4  A    between atoms: C10_11  and  C11_14
REMARK    5  A    between atoms: C17_21  and  O4_29
REMARK    6  A    between atoms: C19_23  and  O3_27
REMARK    7  A    between atoms: C21_25  and  O2_26
REMARK    8  A    between atoms: O3_27  and  C22_28
REMARK                            x       y       z     vdW  Elec       q    Type
REMARK                         _______ _______ _______ _____ _____    ______ ____
ROOT
ATOM      8  C   UNL     1      48.654  18.802  19.019  0.00  0.00    -0.100 A 
ATOM      9  C   UNL     1      49.617  19.659  19.603  0.00  0.00    +0.030 A 
ATOM     10  C   UNL     1      49.353  20.333  20.804  0.00  0.00    +0.011 A 
ATOM     11  C   UNL     1      50.296  21.153  21.347  0.00  0.00    +0.049 A 
ATOM     12  C   UNL     1      51.529  21.336  20.726  0.00  0.00    -0.027 A 
ATOM     13  C   UNL     1      51.825  20.691  19.546  0.00  0.00    +0.144 A 
ATOM     16  C   UNL     1      50.867  19.837  18.962  0.00  0.00    -0.106 A 
ATOM     17  C   UNL     1      51.135  19.160  17.756  0.00  0.00    +0.177 A 
ATOM     20  C   UNL     1      50.184  18.331  17.207  0.00  0.00    -0.117 A 
ATOM     21  C   UNL     1      48.951  18.146  17.831  0.00  0.00    +0.167 A 
ENDROOT
BRANCH   8   7
ATOM      1  C   UNL     1      41.181  18.753  21.757  0.00  0.00    +0.036 C 
ATOM      2  C   UNL     1      42.455  18.807  20.911  0.00  0.00    +0.124 C 
ATOM      3  C   UNL     1      43.558  17.995  21.592  0.00  0.00    +0.092 C 
ATOM      4  C   UNL     1      44.875  18.235  20.898  0.00  0.00    -0.050 A 
ATOM      5  C   UNL     1      45.911  17.338  21.124  0.00  0.00    -0.001 A 
ATOM      6  C   UNL     1      47.137  17.513  20.519  0.00  0.00    +0.044 A 
ATOM      7  C   UNL     1      47.341  18.602  19.672  0.00  0.00    -0.057 A 
ATOM     24  C   UNL     1      46.298  19.503  19.446  0.00  0.00    +0.121 A 
ATOM     27  C   UNL     1      45.065  19.314  20.060  0.00  0.00    -0.095 A 
ATOM     28  C   UNL     1      43.966  20.305  19.777  0.00  0.00    +0.228 C 
ATOM     29  C   UNL     1      43.371  20.020  18.397  0.00  0.00    -0.002 C 
ATOM     30  N   UNL     1      42.907  20.203  20.785  0.00  0.00    -0.675 NA
ATOM     31  H   UNL     1      42.135  20.814  20.566  0.00  0.00    +0.347 HD
BRANCH  24  25
ATOM     25  O   UNL     1      46.488  20.568  18.623  0.00  0.00    -0.486 OA
ATOM     26  H   UNL     1      46.636  20.328  17.698  0.00  0.00    +0.381 HD
ENDBRANCH  24  25
ENDBRANCH   8   7
BRANCH  13  14
ATOM     14  O   UNL     1      53.030  20.876  18.949  0.00  0.00    -0.480 OA
ATOM     15  H   UNL     1      53.132  20.401  18.113  0.00  0.00    +0.392 HD
ENDBRANCH  13  14
BRANCH  17  18
ATOM     18  O   UNL     1      52.332  19.325  17.136  0.00  0.00    -0.292 OA
ATOM     19  C   UNL     1      52.301  19.739  15.768  0.00  0.00    +0.242 C 
ENDBRANCH  17  18
BRANCH  21  22
ATOM     22  O   UNL     1      48.031  17.318  17.271  0.00  0.00    -0.489 OA
ATOM     23  H   UNL     1      47.985  16.445  17.683  0.00  0.00    +0.388 HD
ENDBRANCH  21  22
TORSDOF 5
ENDMDL
MODEL 7
REMARK VINA RESULT:      -5.7      4.815      9.894
REMARK  Name = ZINC95486316
REMARK  8 active torsions:
REMARK  status: ('A' for Active; 'I' for Inactive)
REMARK    1  A    between atoms: C1_1  and  C2_2
REMARK    2  A    between atoms: C7_8  and  C12_16
REMARK    3  A    between atoms: C8_9  and  O1_15
REMARK    4  A    between atoms: C10_11  and  C11_14
REMARK    5  A    between atoms: C17_21  and  O4_29
REMARK    6  A    between atoms: C19_23  and  O3_27
REMARK    7  A    between atoms: C21_25  and  O2_26
REMARK    8  A    between atoms: O3_27  and  C22_28
REMARK                            x       y       z     vdW  Elec       q    Type
REMARK                         _______ _______ _______ _____ _____    ______ ____
ROOT
ATOM      8  C   UNL     1      48.817  12.855  15.736  0.00  0.00    -0.100 A 
ATOM      9  C   UNL     1      50.073  12.284  16.049  0.00  0.00    +0.030 A 
ATOM     10  C   UNL     1      50.480  12.116  17.381  0.00  0.00    +0.011 A 
ATOM     11  C   UNL     1      51.694  11.564  17.658  0.00  0.00    +0.049 A 
ATOM     12  C   UNL     1      52.546  11.158  16.635  0.00  0.00    -0.027 A 
ATOM     13  C   UNL     1      52.181  11.307  15.315  0.00  0.00    +0.144 A 
ATOM     16  C   UNL     1      50.931  11.876  15.000  0.00  0.00    -0.106 A 
ATOM     17  C   UNL     1      50.523  12.042  13.661  0.00  0.00    +0.177 A 
ATOM     20  C   UNL     1      49.297  12.599  13.380  0.00  0.00    -0.117 A 
ATOM     21  C   UNL     1      48.443  13.002  14.406  0.00  0.00    +0.167 A 
ENDROOT
BRANCH   8   7
ATOM      1  C   UNL     1      44.385  16.428  21.299  0.00  0.00    +0.036 C 
ATOM      2  C   UNL     1      45.142  16.027  20.030  0.00  0.00    +0.124 C 
ATOM      3  C   UNL     1      45.256  14.504  19.961  0.00  0.00    +0.092 C 
ATOM      4  C   UNL     1      46.199  14.110  18.851  0.00  0.00    -0.050 A 
ATOM      5  C   UNL     1      46.164  12.799  18.393  0.00  0.00    -0.001 A 
ATOM      6  C   UNL     1      47.006  12.385  17.384  0.00  0.00    +0.044 A 
ATOM      7  C   UNL     1      47.905  13.289  16.818  0.00  0.00    -0.057 A 
ATOM     24  C   UNL     1      47.937  14.608  17.280  0.00  0.00    +0.121 A 
ATOM     27  C   UNL     1      47.080  15.013  18.296  0.00  0.00    -0.095 A 
ATOM     28  C   UNL     1      47.143  16.447  18.754  0.00  0.00    +0.228 C 
ATOM     29  C   UNL     1      46.427  17.336  17.735  0.00  0.00    -0.002 C 
ATOM     30  N   UNL     1      46.497  16.601  20.060  0.00  0.00    -0.675 NA
ATOM     31  H   UNL     1      46.474  17.569  20.344  0.00  0.00    +0.347 HD
BRANCH  24  25
ATOM     25  O   UNL     1      48.810  15.496  16.735  0.00  0.00    -0.486 OA
ATOM     26  H   UNL     1      48.827  16.354  17.182  0.00  0.00    +0.381 HD
ENDBRANCH  24  25
ENDBRANCH   8   7
BRANCH  13  14
ATOM     14  O   UNL     1      53.020  10.908  14.324  0.00  0.00    -0.480 OA
ATOM     15  H   UNL     1      53.593  11.610  13.986  0.00  0.00    +0.392 HD
ENDBRANCH  13  14
BRANCH  17  18
ATOM     18  O   UNL     1      51.341  11.653  12.649  0.00  0.00    -0.292 OA
ATOM     19  C   UNL     1      51.112  12.242  11.368  0.00  0.00    +0.242 C 
ENDBRANCH  17  18
BRANCH  21  22
ATOM     22  O   UNL     1      47.236  13.545  14.102  0.00  0.00    -0.489 OA
ATOM     23  H   UNL     1      47.086  13.664  13.154  0.00  0.00    +0.388 HD
ENDBRANCH  21  22
TORSDOF 5
ENDMDL
MODEL 8
REMARK VINA RESULT:      -5.7      3.307      4.752
REMARK  Name = ZINC95486316
REMARK  8 active torsions:
REMARK  status: ('A' for Active; 'I' for Inactive)
REMARK    1  A    between atoms: C1_1  and  C2_2
REMARK    2  A    between atoms: C7_8  and  C12_16
REMARK    3  A    between atoms: C8_9  and  O1_15
REMARK    4  A    between atoms: C10_11  and  C11_14
REMARK    5  A    between atoms: C17_21  and  O4_29
REMARK    6  A    between atoms: C19_23  and  O3_27
REMARK    7  A    between atoms: C21_25  and  O2_26
REMARK    8  A    between atoms: O3_27  and  C22_28
REMARK                            x       y       z     vdW  Elec       q    Type
REMARK                         _______ _______ _______ _____ _____    ______ ____
ROOT
ATOM      8  C   UNL     1      46.718  19.374  19.483  0.00  0.00    -0.100 A 
ATOM      9  C   UNL     1      46.514  20.447  20.383  0.00  0.00    +0.030 A 
ATOM     10  C   UNL     1      47.484  20.784  21.339  0.00  0.00    +0.011 A 
ATOM     11  C   UNL     1      47.265  21.822  22.194  0.00  0.00    +0.049 A 
ATOM     12  C   UNL     1      46.086  22.560  22.138  0.00  0.00    -0.027 A 
ATOM     13  C   UNL     1      45.111  22.258  21.213  0.00  0.00    +0.144 A 
ATOM     16  C   UNL     1      45.311  21.190  20.316  0.00  0.00    -0.106 A 
ATOM     17  C   UNL     1      44.336  20.854  19.355  0.00  0.00    +0.177 A 
ATOM     20  C   UNL     1      44.556  19.806  18.490  0.00  0.00    -0.117 A 
ATOM     21  C   UNL     1      45.739  19.071  18.545  0.00  0.00    +0.167 A 
ENDROOT
BRANCH   8   7
ATOM      1  C   UNL     1      54.026  16.230  19.247  0.00  0.00    +0.036 C 
ATOM      2  C   UNL     1      52.797  17.126  19.414  0.00  0.00    +0.124 C 
ATOM      3  C   UNL     1      51.567  16.263  19.699  0.00  0.00    +0.092 C 
ATOM      4  C   UNL     1      50.319  17.106  19.628  0.00  0.00    -0.050 A 
ATOM      5  C   UNL     1      49.155  16.608  20.197  0.00  0.00    -0.001 A 
ATOM      6  C   UNL     1      47.985  17.335  20.156  0.00  0.00    +0.044 A 
ATOM      7  C   UNL     1      47.969  18.584  19.536  0.00  0.00    -0.057 A 
ATOM     24  C   UNL     1      49.142  19.085  18.965  0.00  0.00    +0.121 A 
ATOM     27  C   UNL     1      50.315  18.342  19.015  0.00  0.00    -0.095 A 
ATOM     28  C   UNL     1      51.558  18.926  18.396  0.00  0.00    +0.228 C 
ATOM     29  C   UNL     1      52.139  19.988  19.332  0.00  0.00    -0.002 C 
ATOM     30  N   UNL     1      52.563  17.883  18.174  0.00  0.00    -0.675 NA
ATOM     31  H   UNL     1      53.424  18.276  17.823  0.00  0.00    +0.347 HD
BRANCH  24  25
ATOM     25  O   UNL     1      49.136  20.300  18.358  0.00  0.00    -0.486 OA
ATOM     26  H   UNL     1      49.149  21.047  18.973  0.00  0.00    +0.381 HD
ENDBRANCH  24  25
ENDBRANCH   8   7
BRANCH  13  14
ATOM     14  O   UNL     1      43.965  22.985  21.166  0.00  0.00    -0.480 OA
ATOM     15  H   UNL     1      43.238  22.545  20.703  0.00  0.00    +0.392 HD
ENDBRANCH  13  14
BRANCH  17  18
ATOM     18  O   UNL     1      43.180  21.562  19.285  0.00  0.00    -0.292 OA
ATOM     19  C   UNL     1      42.003  20.847  18.901  0.00  0.00    +0.242 C 
ENDBRANCH  17  18
BRANCH  21  22
ATOM     22  O   UNL     1      45.933  18.045  17.676  0.00  0.00    -0.489 OA
ATOM     23  H   UNL     1      45.271  17.993  16.974  0.00  0.00    +0.388 HD
ENDBRANCH  21  22
TORSDOF 5
ENDMDL
MODEL 9
REMARK VINA RESULT:      -5.7      2.959      5.652
REMARK  Name = ZINC95486316
REMARK  8 active torsions:
REMARK  status: ('A' for Active; 'I' for Inactive)
REMARK    1  A    between atoms: C1_1  and  C2_2
REMARK    2  A    between atoms: C7_8  and  C12_16
REMARK    3  A    between atoms: C8_9  and  O1_15
REMARK    4  A    between atoms: C10_11  and  C11_14
REMARK    5  A    between atoms: C17_21  and  O4_29
REMARK    6  A    between atoms: C19_23  and  O3_27
REMARK    7  A    between atoms: C21_25  and  O2_26
REMARK    8  A    between atoms: O3_27  and  C22_28
REMARK                            x       y       z     vdW  Elec       q    Type
REMARK                         _______ _______ _______ _____ _____    ______ ____
ROOT
ATOM      8  C   UNL     1      46.617  15.761  17.867  0.00  0.00    -0.100 A 
ATOM      9  C   UNL     1      46.052  15.454  19.127  0.00  0.00    +0.030 A 
ATOM     10  C   UNL     1      46.209  14.183  19.700  0.00  0.00    +0.011 A 
ATOM     11  C   UNL     1      45.656  13.911  20.915  0.00  0.00    +0.049 A 
ATOM     12  C   UNL     1      44.932  14.879  21.606  0.00  0.00    -0.027 A 
ATOM     13  C   UNL     1      44.758  16.138  21.075  0.00  0.00    +0.144 A 
ATOM     16  C   UNL     1      45.319  16.446  19.820  0.00  0.00    -0.106 A 
ATOM     17  C   UNL     1      45.162  17.725  19.247  0.00  0.00    +0.177 A 
ATOM     20  C   UNL     1      45.720  18.001  18.019  0.00  0.00    -0.117 A 
ATOM     21  C   UNL     1      46.447  17.031  17.331  0.00  0.00    +0.167 A 
ENDROOT
BRANCH   8   7
ATOM      1  C   UNL     1      51.852  10.871  14.399  0.00  0.00    +0.036 C 
ATOM      2  C   UNL     1      51.064  11.772  15.351  0.00  0.00    +0.124 C 
ATOM      3  C   UNL     1      49.585  11.761  14.962  0.00  0.00    +0.092 C 
ATOM      4  C   UNL     1      48.842  12.822  15.734  0.00  0.00    -0.050 A 
ATOM      5  C   UNL     1      47.457  12.742  15.798  0.00  0.00    -0.001 A 
ATOM      6  C   UNL     1      46.729  13.687  16.487  0.00  0.00    +0.044 A 
ATOM      7  C   UNL     1      47.388  14.737  17.126  0.00  0.00    -0.057 A 
ATOM     24  C   UNL     1      48.782  14.816  17.062  0.00  0.00    +0.121 A 
ATOM     27  C   UNL     1      49.504  13.854  16.366  0.00  0.00    -0.095 A 
ATOM     28  C   UNL     1      51.006  13.973  16.333  0.00  0.00    +0.228 C 
ATOM     29  C   UNL     1      51.580  13.500  17.670  0.00  0.00    -0.002 C 
ATOM     30  N   UNL     1      51.565  13.153  15.256  0.00  0.00    -0.675 NA
ATOM     31  H   UNL     1      52.574  13.172  15.269  0.00  0.00    +0.347 HD
BRANCH  24  25
ATOM     25  O   UNL     1      49.433  15.835  17.681  0.00  0.00    -0.486 OA
ATOM     26  H   UNL     1      50.156  15.548  18.255  0.00  0.00    +0.381 HD
ENDBRANCH  24  25
ENDBRANCH   8   7
BRANCH  13  14
ATOM     14  O   UNL     1      44.050  17.076  21.757  0.00  0.00    -0.480 OA
ATOM     15  H   UNL     1      44.548  17.508  22.464  0.00  0.00    +0.392 HD
ENDBRANCH  13  14
BRANCH  17  18
ATOM     18  O   UNL     1      44.459  18.682  19.905  0.00  0.00    -0.292 OA
ATOM     19  C   UNL     1      43.814  19.677  19.107  0.00  0.00    +0.242 C 
ENDBRANCH  17  18
BRANCH  21  22
ATOM     22  O   UNL     1      46.992  17.331  16.123  0.00  0.00    -0.489 OA
ATOM     23  H   UNL     1      47.484  16.602  15.721  0.00  0.00    +0.388 HD
ENDBRANCH  21  22
TORSDOF 5
ENDMDL
