MODEL 1
REMARK VINA RESULT:      -5.9      0.000      0.000
REMARK  Name = ZINC95486347
REMARK  12 active torsions:
REMARK  status: ('A' for Active; 'I' for Inactive)
REMARK    1  A    between atoms: C1_1  and  C2_2
REMARK    2  A    between atoms: C2_2  and  C3_3
REMARK    3  A    between atoms: C3_3  and  C4_5
REMARK    4  A    between atoms: C3_3  and  C27_35
REMARK    5  A    between atoms: C4_5  and  C5_6
REMARK    6  A    between atoms: C5_6  and  C6_7
REMARK    7  A    between atoms: C6_7  and  C7_9
REMARK    8  A    between atoms: C6_7  and  C8_10
REMARK    9  A    between atoms: C12_16  and  C26_34
REMARK   10  A    between atoms: C20_26  and  C25_33
REMARK   11  A    between atoms: C23_29  and  O1_32
REMARK   12  A    between atoms: C27_35  and  C28_37
REMARK                            x       y       z     vdW  Elec       q    Type
REMARK                         _______ _______ _______ _____ _____    ______ ____
ROOT
ATOM     10  C   UNL     1      44.041  18.599  21.206  0.00  0.00    -0.005 C 
ATOM     11  C   UNL     1      43.500  17.656  22.310  0.00  0.00    +0.006 C 
ATOM     12  C   UNL     1      44.171  16.276  22.075  0.00  0.00    +0.010 C 
ATOM     13  C   UNL     1      44.533  16.319  20.586  0.00  0.00    -0.005 C 
ATOM     14  C   UNL     1      45.634  15.372  20.147  0.00  0.00    +0.008 C 
ATOM     15  C   UNL     1      45.157  13.924  20.302  0.00  0.00    +0.058 C 
ATOM     16  C   UNL     1      46.178  12.998  19.708  0.00  0.00    -0.061 C 
ATOM     17  C   UNL     1      46.992  13.357  18.759  0.00  0.00    -0.092 C 
ATOM     18  C   UNL     1      47.046  14.762  18.157  0.00  0.00    -0.009 C 
ATOM     19  C   UNL     1      48.373  15.433  18.513  0.00  0.00    +0.024 C 
ATOM     20  C   UNL     1      46.983  14.644  16.631  0.00  0.00    +0.032 C 
ATOM     21  C   UNL     1      48.114  13.736  16.145  0.00  0.00    +0.033 C 
ATOM     22  C   UNL     1      47.926  12.329  16.712  0.00  0.00    +0.163 C 
ATOM     25  C   UNL     1      47.979  12.329  18.231  0.00  0.00    +0.026 C 
ATOM     26  C   UNL     1      45.916  15.647  18.658  0.00  0.00    -0.004 C 
ATOM     27  C   UNL     1      46.250  17.111  18.386  0.00  0.00    +0.011 C 
ATOM     28  C   UNL     1      45.174  18.054  18.947  0.00  0.00    +0.023 C 
ATOM     29  C   UNL     1      45.064  17.772  20.433  0.00  0.00    -0.055 C 
ATOM     30  C   UNL     1      46.438  17.897  21.094  0.00  0.00    +0.021 C 
ENDROOT
BRANCH  10   9
ATOM      9  C   UNL     1      42.906  19.040  20.281  0.00  0.00    -0.007 C 
ATOM     31  C   UNL     1      41.564  18.845  20.990  0.00  0.00    +0.016 C 
BRANCH   9   8
ATOM      8  C   UNL     1      43.084  20.516  19.923  0.00  0.00    +0.003 C 
BRANCH   8   7
ATOM      7  C   UNL     1      44.198  21.120  20.780  0.00  0.00    +0.034 C 
BRANCH   7   3
ATOM      3  C   UNL     1      45.215  21.820  19.877  0.00  0.00    -0.043 C 
BRANCH   3   4
ATOM      4  C   UNL     1      45.018  23.312  19.962  0.00  0.00    +0.359 C 
ATOM      5  C   UNL     1      45.710  24.103  21.042  0.00  0.00    +0.056 C 
ATOM      6  O   UNL     1      44.305  23.873  19.166  0.00  0.00    -0.454 OA
ENDBRANCH   3   4
BRANCH   3   2
ATOM      1  C   UNL     1      47.419  20.897  19.151  0.00  0.00    +0.022 C 
ATOM      2  C   UNL     1      46.631  21.465  20.332  0.00  0.00    +0.022 C 
ENDBRANCH   3   2
ENDBRANCH   7   3
ENDBRANCH   8   7
ENDBRANCH   9   8
ENDBRANCH  10   9
BRANCH  22  23
ATOM     23  O   UNL     1      46.636  11.835  16.346  0.00  0.00    -0.565 OA
ATOM     24  H   UNL     1      46.218  11.287  17.023  0.00  0.00    +0.374 HD
ENDBRANCH  22  23
TORSDOF 7
ENDMDL
MODEL 2
REMARK VINA RESULT:      -5.8      2.795      4.084
REMARK  Name = ZINC95486347
REMARK  12 active torsions:
REMARK  status: ('A' for Active; 'I' for Inactive)
REMARK    1  A    between atoms: C1_1  and  C2_2
REMARK    2  A    between atoms: C2_2  and  C3_3
REMARK    3  A    between atoms: C3_3  and  C4_5
REMARK    4  A    between atoms: C3_3  and  C27_35
REMARK    5  A    between atoms: C4_5  and  C5_6
REMARK    6  A    between atoms: C5_6  and  C6_7
REMARK    7  A    between atoms: C6_7  and  C7_9
REMARK    8  A    between atoms: C6_7  and  C8_10
REMARK    9  A    between atoms: C12_16  and  C26_34
REMARK   10  A    between atoms: C20_26  and  C25_33
REMARK   11  A    between atoms: C23_29  and  O1_32
REMARK   12  A    between atoms: C27_35  and  C28_37
REMARK                            x       y       z     vdW  Elec       q    Type
REMARK                         _______ _______ _______ _____ _____    ______ ____
ROOT
ATOM     10  C   UNL     1      47.676  18.467  19.787  0.00  0.00    -0.005 C 
ATOM     11  C   UNL     1      46.490  18.184  20.743  0.00  0.00    +0.006 C 
ATOM     12  C   UNL     1      46.106  16.693  20.536  0.00  0.00    +0.010 C 
ATOM     13  C   UNL     1      46.623  16.398  19.124  0.00  0.00    -0.005 C 
ATOM     14  C   UNL     1      46.873  14.936  18.805  0.00  0.00    +0.008 C 
ATOM     15  C   UNL     1      45.541  14.177  18.807  0.00  0.00    +0.058 C 
ATOM     16  C   UNL     1      45.769  12.775  18.324  0.00  0.00    -0.061 C 
ATOM     17  C   UNL     1      46.746  12.449  17.529  0.00  0.00    -0.092 C 
ATOM     18  C   UNL     1      47.805  13.428  17.021  0.00  0.00    -0.009 C 
ATOM     19  C   UNL     1      49.171  13.076  17.609  0.00  0.00    +0.024 C 
ATOM     20  C   UNL     1      47.908  13.292  15.499  0.00  0.00    +0.032 C 
ATOM     21  C   UNL     1      48.213  11.836  15.139  0.00  0.00    +0.033 C 
ATOM     22  C   UNL     1      47.060  10.940  15.594  0.00  0.00    +0.163 C 
ATOM     25  C   UNL     1      46.872  10.996  17.101  0.00  0.00    +0.026 C 
ATOM     26  C   UNL     1      47.484  14.867  17.393  0.00  0.00    -0.004 C 
ATOM     27  C   UNL     1      48.738  15.726  17.255  0.00  0.00    +0.011 C 
ATOM     28  C   UNL     1      48.486  17.176  17.698  0.00  0.00    +0.023 C 
ATOM     29  C   UNL     1      47.997  17.126  19.133  0.00  0.00    -0.055 C 
ATOM     30  C   UNL     1      48.991  16.351  20.000  0.00  0.00    +0.021 C 
ENDROOT
BRANCH  10   9
ATOM      9  C   UNL     1      47.271  19.491  18.726  0.00  0.00    -0.007 C 
ATOM     31  C   UNL     1      45.811  19.900  18.943  0.00  0.00    +0.016 C 
BRANCH   9   8
ATOM      8  C   UNL     1      48.168  20.725  18.839  0.00  0.00    +0.003 C 
BRANCH   8   7
ATOM      7  C   UNL     1      49.425  20.371  19.636  0.00  0.00    +0.034 C 
BRANCH   7   3
ATOM      3  C   UNL     1      50.657  20.925  18.919  0.00  0.00    -0.043 C 
BRANCH   3   4
ATOM      4  C   UNL     1      51.876  20.715  19.779  0.00  0.00    +0.359 C 
ATOM      5  C   UNL     1      52.675  21.901  20.256  0.00  0.00    +0.056 C 
ATOM      6  O   UNL     1      52.214  19.597  20.086  0.00  0.00    -0.454 OA
ENDBRANCH   3   4
BRANCH   3   2
ATOM      1  C   UNL     1      51.463  21.151  16.565  0.00  0.00    +0.022 C 
ATOM      2  C   UNL     1      50.842  20.197  17.587  0.00  0.00    +0.022 C 
ENDBRANCH   3   2
ENDBRANCH   7   3
ENDBRANCH   8   7
ENDBRANCH   9   8
ENDBRANCH  10   9
BRANCH  22  23
ATOM     23  O   UNL     1      45.840  11.402  15.010  0.00  0.00    -0.565 OA
ATOM     24  H   UNL     1      45.932  12.217  14.499  0.00  0.00    +0.374 HD
ENDBRANCH  22  23
TORSDOF 7
ENDMDL
MODEL 3
REMARK VINA RESULT:      -5.4      2.711      8.490
REMARK  Name = ZINC95486347
REMARK  12 active torsions:
REMARK  status: ('A' for Active; 'I' for Inactive)
REMARK    1  A    between atoms: C1_1  and  C2_2
REMARK    2  A    between atoms: C2_2  and  C3_3
REMARK    3  A    between atoms: C3_3  and  C4_5
REMARK    4  A    between atoms: C3_3  and  C27_35
REMARK    5  A    between atoms: C4_5  and  C5_6
REMARK    6  A    between atoms: C5_6  and  C6_7
REMARK    7  A    between atoms: C6_7  and  C7_9
REMARK    8  A    between atoms: C6_7  and  C8_10
REMARK    9  A    between atoms: C12_16  and  C26_34
REMARK   10  A    between atoms: C20_26  and  C25_33
REMARK   11  A    between atoms: C23_29  and  O1_32
REMARK   12  A    between atoms: C27_35  and  C28_37
REMARK                            x       y       z     vdW  Elec       q    Type
REMARK                         _______ _______ _______ _____ _____    ______ ____
ROOT
ATOM     10  C   UNL     1      50.946  17.502  18.332  0.00  0.00    -0.005 C 
ATOM     11  C   UNL     1      51.772  18.554  19.114  0.00  0.00    +0.006 C 
ATOM     12  C   UNL     1      50.747  19.443  19.869  0.00  0.00    +0.010 C 
ATOM     13  C   UNL     1      49.470  19.277  19.038  0.00  0.00    -0.005 C 
ATOM     14  C   UNL     1      48.170  19.584  19.758  0.00  0.00    +0.008 C 
ATOM     15  C   UNL     1      48.116  21.077  20.102  0.00  0.00    +0.058 C 
ATOM     16  C   UNL     1      46.762  21.410  20.656  0.00  0.00    -0.061 C 
ATOM     17  C   UNL     1      45.691  20.731  20.364  0.00  0.00    -0.092 C 
ATOM     18  C   UNL     1      45.674  19.496  19.463  0.00  0.00    -0.009 C 
ATOM     19  C   UNL     1      45.319  18.254  20.283  0.00  0.00    +0.024 C 
ATOM     20  C   UNL     1      44.583  19.676  18.404  0.00  0.00    +0.032 C 
ATOM     21  C   UNL     1      43.242  19.937  19.094  0.00  0.00    +0.033 C 
ATOM     22  C   UNL     1      43.317  21.241  19.890  0.00  0.00    +0.163 C 
ATOM     25  C   UNL     1      44.372  21.168  20.980  0.00  0.00    +0.026 C 
ATOM     26  C   UNL     1      47.016  19.254  18.792  0.00  0.00    -0.004 C 
ATOM     27  C   UNL     1      47.080  17.820  18.272  0.00  0.00    +0.011 C 
ATOM     28  C   UNL     1      48.451  17.500  17.655  0.00  0.00    +0.023 C 
ATOM     29  C   UNL     1      49.494  17.753  18.726  0.00  0.00    -0.055 C 
ATOM     30  C   UNL     1      49.153  16.958  19.988  0.00  0.00    +0.021 C 
ENDROOT
BRANCH  10   9
ATOM      9  C   UNL     1      51.128  17.696  16.826  0.00  0.00    -0.007 C 
ATOM     31  C   UNL     1      52.048  18.893  16.573  0.00  0.00    +0.016 C 
BRANCH   9   8
ATOM      8  C   UNL     1      51.753  16.437  16.222  0.00  0.00    +0.003 C 
BRANCH   8   7
ATOM      7  C   UNL     1      51.508  15.247  17.153  0.00  0.00    +0.034 C 
BRANCH   7   3
ATOM      3  C   UNL     1      50.356  14.401  16.607  0.00  0.00    -0.043 C 
BRANCH   3   4
ATOM      4  C   UNL     1      50.913  13.245  15.817  0.00  0.00    +0.359 C 
ATOM      5  C   UNL     1      50.288  12.861  14.501  0.00  0.00    +0.056 C 
ATOM      6  O   UNL     1      51.860  12.625  16.239  0.00  0.00    -0.454 OA
ENDBRANCH   3   4
BRANCH   3   2
ATOM      1  C   UNL     1      48.040  13.870  17.377  0.00  0.00    +0.022 C 
ATOM      2  C   UNL     1      49.519  13.868  17.770  0.00  0.00    +0.022 C 
ENDBRANCH   3   2
ENDBRANCH   7   3
ENDBRANCH   8   7
ENDBRANCH   9   8
ENDBRANCH  10   9
BRANCH  22  23
ATOM     23  O   UNL     1      43.698  22.309  19.020  0.00  0.00    -0.565 OA
ATOM     24  H   UNL     1      43.586  22.109  18.080  0.00  0.00    +0.374 HD
ENDBRANCH  22  23
TORSDOF 7
ENDMDL
MODEL 4
REMARK VINA RESULT:      -5.2      1.588      8.352
REMARK  Name = ZINC95486347
REMARK  12 active torsions:
REMARK  status: ('A' for Active; 'I' for Inactive)
REMARK    1  A    between atoms: C1_1  and  C2_2
REMARK    2  A    between atoms: C2_2  and  C3_3
REMARK    3  A    between atoms: C3_3  and  C4_5
REMARK    4  A    between atoms: C3_3  and  C27_35
REMARK    5  A    between atoms: C4_5  and  C5_6
REMARK    6  A    between atoms: C5_6  and  C6_7
REMARK    7  A    between atoms: C6_7  and  C7_9
REMARK    8  A    between atoms: C6_7  and  C8_10
REMARK    9  A    between atoms: C12_16  and  C26_34
REMARK   10  A    between atoms: C20_26  and  C25_33
REMARK   11  A    between atoms: C23_29  and  O1_32
REMARK   12  A    between atoms: C27_35  and  C28_37
REMARK                            x       y       z     vdW  Elec       q    Type
REMARK                         _______ _______ _______ _____ _____    ______ ____
ROOT
ATOM     10  C   UNL     1      48.911  15.711  19.126  0.00  0.00    -0.005 C 
ATOM     11  C   UNL     1      50.230  16.408  19.544  0.00  0.00    +0.006 C 
ATOM     12  C   UNL     1      49.833  17.813  20.075  0.00  0.00    +0.010 C 
ATOM     13  C   UNL     1      48.488  18.073  19.388  0.00  0.00    -0.005 C 
ATOM     14  C   UNL     1      47.591  19.097  20.059  0.00  0.00    +0.008 C 
ATOM     15  C   UNL     1      48.246  20.481  19.980  0.00  0.00    +0.058 C 
ATOM     16  C   UNL     1      47.283  21.514  20.487  0.00  0.00    -0.061 C 
ATOM     17  C   UNL     1      45.992  21.360  20.448  0.00  0.00    -0.092 C 
ATOM     18  C   UNL     1      45.291  20.105  19.927  0.00  0.00    -0.009 C 
ATOM     19  C   UNL     1      44.582  19.385  21.074  0.00  0.00    +0.024 C 
ATOM     20  C   UNL     1      44.222  20.526  18.914  0.00  0.00    +0.032 C 
ATOM     21  C   UNL     1      43.264  21.522  19.572  0.00  0.00    +0.033 C 
ATOM     22  C   UNL     1      44.028  22.785  19.972  0.00  0.00    +0.163 C 
ATOM     25  C   UNL     1      45.117  22.480  20.986  0.00  0.00    +0.026 C 
ATOM     26  C   UNL     1      46.262  19.129  19.282  0.00  0.00    -0.004 C 
ATOM     27  C   UNL     1      45.612  17.752  19.175  0.00  0.00    +0.011 C 
ATOM     28  C   UNL     1      46.583  16.707  18.602  0.00  0.00    +0.023 C 
ATOM     29  C   UNL     1      47.800  16.684  19.508  0.00  0.00    -0.055 C 
ATOM     30  C   UNL     1      47.370  16.439  20.956  0.00  0.00    +0.021 C 
ENDROOT
BRANCH  10   9
ATOM      9  C   UNL     1      48.899  15.457  17.618  0.00  0.00    -0.007 C 
ATOM     31  C   UNL     1      50.280  15.772  17.037  0.00  0.00    +0.016 C 
BRANCH   9   8
ATOM      8  C   UNL     1      48.556  13.990  17.350  0.00  0.00    +0.003 C 
BRANCH   8   7
ATOM      7  C   UNL     1      47.281  13.910  16.507  0.00  0.00    +0.034 C 
BRANCH   7   3
ATOM      3  C   UNL     1      46.359  12.832  17.078  0.00  0.00    -0.043 C 
BRANCH   3   4
ATOM      4  C   UNL     1      46.767  11.485  16.539  0.00  0.00    +0.359 C 
ATOM      5  C   UNL     1      46.963  11.294  15.057  0.00  0.00    +0.056 C 
ATOM      6  O   UNL     1      46.935  10.558  17.295  0.00  0.00    -0.454 OA
ENDBRANCH   3   4
BRANCH   3   2
ATOM      1  C   UNL     1      45.160  13.346  19.208  0.00  0.00    +0.022 C 
ATOM      2  C   UNL     1      46.465  12.825  18.604  0.00  0.00    +0.022 C 
ENDBRANCH   3   2
ENDBRANCH   7   3
ENDBRANCH   8   7
ENDBRANCH   9   8
ENDBRANCH  10   9
BRANCH  22  23
ATOM     23  O   UNL     1      44.678  23.332  18.823  0.00  0.00    -0.565 OA
ATOM     24  H   UNL     1      44.184  24.044  18.394  0.00  0.00    +0.374 HD
ENDBRANCH  22  23
TORSDOF 7
ENDMDL
MODEL 5
REMARK VINA RESULT:      -5.2      3.930      8.253
REMARK  Name = ZINC95486347
REMARK  12 active torsions:
REMARK  status: ('A' for Active; 'I' for Inactive)
REMARK    1  A    between atoms: C1_1  and  C2_2
REMARK    2  A    between atoms: C2_2  and  C3_3
REMARK    3  A    between atoms: C3_3  and  C4_5
REMARK    4  A    between atoms: C3_3  and  C27_35
REMARK    5  A    between atoms: C4_5  and  C5_6
REMARK    6  A    between atoms: C5_6  and  C6_7
REMARK    7  A    between atoms: C6_7  and  C7_9
REMARK    8  A    between atoms: C6_7  and  C8_10
REMARK    9  A    between atoms: C12_16  and  C26_34
REMARK   10  A    between atoms: C20_26  and  C25_33
REMARK   11  A    between atoms: C23_29  and  O1_32
REMARK   12  A    between atoms: C27_35  and  C28_37
REMARK                            x       y       z     vdW  Elec       q    Type
REMARK                         _______ _______ _______ _____ _____    ______ ____
ROOT
ATOM     10  C   UNL     1      51.197  18.846  18.597  0.00  0.00    -0.005 C 
ATOM     11  C   UNL     1      51.209  20.318  18.115  0.00  0.00    +0.006 C 
ATOM     12  C   UNL     1      49.873  20.947  18.599  0.00  0.00    +0.010 C 
ATOM     13  C   UNL     1      48.956  19.729  18.755  0.00  0.00    -0.005 C 
ATOM     14  C   UNL     1      47.767  19.912  19.680  0.00  0.00    +0.008 C 
ATOM     15  C   UNL     1      46.805  20.942  19.079  0.00  0.00    +0.058 C 
ATOM     16  C   UNL     1      45.553  20.994  19.905  0.00  0.00    -0.061 C 
ATOM     17  C   UNL     1      45.131  19.989  20.614  0.00  0.00    -0.092 C 
ATOM     18  C   UNL     1      45.863  18.652  20.734  0.00  0.00    -0.009 C 
ATOM     19  C   UNL     1      46.381  18.463  22.160  0.00  0.00    +0.024 C 
ATOM     20  C   UNL     1      44.869  17.521  20.449  0.00  0.00    +0.032 C 
ATOM     21  C   UNL     1      43.677  17.642  21.401  0.00  0.00    +0.033 C 
ATOM     22  C   UNL     1      42.945  18.960  21.146  0.00  0.00    +0.163 C 
ATOM     25  C   UNL     1      43.844  20.156  21.406  0.00  0.00    +0.026 C 
ATOM     26  C   UNL     1      47.045  18.556  19.783  0.00  0.00    -0.004 C 
ATOM     27  C   UNL     1      47.975  17.430  20.229  0.00  0.00    +0.011 C 
ATOM     28  C   UNL     1      49.229  17.344  19.345  0.00  0.00    +0.023 C 
ATOM     29  C   UNL     1      49.915  18.695  19.411  0.00  0.00    -0.055 C 
ATOM     30  C   UNL     1      50.178  19.080  20.868  0.00  0.00    +0.021 C 
ENDROOT
BRANCH  10   9
ATOM      9  C   UNL     1      51.179  17.895  17.398  0.00  0.00    -0.007 C 
ATOM     31  C   UNL     1      51.577  18.661  16.134  0.00  0.00    +0.016 C 
BRANCH   9   8
ATOM      8  C   UNL     1      52.169  16.754  17.637  0.00  0.00    +0.003 C 
BRANCH   8   7
ATOM      7  C   UNL     1      52.938  17.008  18.936  0.00  0.00    +0.034 C 
BRANCH   7   3
ATOM      3  C   UNL     1      52.908  15.747  19.800  0.00  0.00    -0.043 C 
BRANCH   3   4
ATOM      4  C   UNL     1      54.293  15.158  19.878  0.00  0.00    +0.359 C 
ATOM      5  C   UNL     1      54.528  13.882  20.644  0.00  0.00    +0.056 C 
ATOM      6  O   UNL     1      55.215  15.710  19.328  0.00  0.00    -0.454 OA
ENDBRANCH   3   4
BRANCH   3   2
ATOM      1  C   UNL     1      53.247  17.277  21.746  0.00  0.00    +0.022 C 
ATOM      2  C   UNL     1      52.426  16.104  21.207  0.00  0.00    +0.022 C 
ENDBRANCH   3   2
ENDBRANCH   7   3
ENDBRANCH   8   7
ENDBRANCH   9   8
ENDBRANCH  10   9
BRANCH  22  23
ATOM     23  O   UNL     1      42.555  19.030  19.773  0.00  0.00    -0.565 OA
ATOM     24  H   UNL     1      42.095  19.846  19.536  0.00  0.00    +0.374 HD
ENDBRANCH  22  23
TORSDOF 7
ENDMDL
MODEL 6
REMARK VINA RESULT:      -5.0      2.057      3.883
REMARK  Name = ZINC95486347
REMARK  12 active torsions:
REMARK  status: ('A' for Active; 'I' for Inactive)
REMARK    1  A    between atoms: C1_1  and  C2_2
REMARK    2  A    between atoms: C2_2  and  C3_3
REMARK    3  A    between atoms: C3_3  and  C4_5
REMARK    4  A    between atoms: C3_3  and  C27_35
REMARK    5  A    between atoms: C4_5  and  C5_6
REMARK    6  A    between atoms: C5_6  and  C6_7
REMARK    7  A    between atoms: C6_7  and  C7_9
REMARK    8  A    between atoms: C6_7  and  C8_10
REMARK    9  A    between atoms: C12_16  and  C26_34
REMARK   10  A    between atoms: C20_26  and  C25_33
REMARK   11  A    between atoms: C23_29  and  O1_32
REMARK   12  A    between atoms: C27_35  and  C28_37
REMARK                            x       y       z     vdW  Elec       q    Type
REMARK                         _______ _______ _______ _____ _____    ______ ____
ROOT
ATOM     10  C   UNL     1      46.474  21.544  20.385  0.00  0.00    -0.005 C 
ATOM     11  C   UNL     1      47.324  21.461  21.677  0.00  0.00    +0.006 C 
ATOM     12  C   UNL     1      48.160  20.156  21.568  0.00  0.00    +0.010 C 
ATOM     13  C   UNL     1      47.336  19.299  20.601  0.00  0.00    -0.005 C 
ATOM     14  C   UNL     1      48.094  18.197  19.886  0.00  0.00    +0.008 C 
ATOM     15  C   UNL     1      48.555  17.148  20.904  0.00  0.00    +0.058 C 
ATOM     16  C   UNL     1      49.151  15.979  20.177  0.00  0.00    -0.061 C 
ATOM     17  C   UNL     1      48.822  15.658  18.960  0.00  0.00    -0.092 C 
ATOM     18  C   UNL     1      47.828  16.443  18.103  0.00  0.00    -0.009 C 
ATOM     19  C   UNL     1      48.552  17.098  16.926  0.00  0.00    +0.024 C 
ATOM     20  C   UNL     1      46.800  15.465  17.526  0.00  0.00    +0.032 C 
ATOM     21  C   UNL     1      47.526  14.365  16.750  0.00  0.00    +0.033 C 
ATOM     22  C   UNL     1      48.420  13.567  17.700  0.00  0.00    +0.163 C 
ATOM     25  C   UNL     1      49.488  14.447  18.329  0.00  0.00    +0.026 C 
ATOM     26  C   UNL     1      47.122  17.533  18.893  0.00  0.00    -0.004 C 
ATOM     27  C   UNL     1      46.490  18.538  17.932  0.00  0.00    +0.011 C 
ATOM     28  C   UNL     1      45.831  19.706  18.683  0.00  0.00    +0.023 C 
ATOM     29  C   UNL     1      46.906  20.350  19.538  0.00  0.00    -0.055 C 
ATOM     30  C   UNL     1      48.106  20.735  18.671  0.00  0.00    +0.021 C 
ENDROOT
BRANCH  10   9
ATOM      9  C   UNL     1      44.985  21.445  20.721  0.00  0.00    -0.007 C 
ATOM     31  C   UNL     1      44.714  22.155  22.050  0.00  0.00    +0.016 C 
BRANCH   9   8
ATOM      8  C   UNL     1      44.166  22.108  19.612  0.00  0.00    +0.003 C 
BRANCH   8   7
ATOM      7  C   UNL     1      42.691  21.737  19.775  0.00  0.00    +0.034 C 
BRANCH   7   3
ATOM      3  C   UNL     1      42.446  20.347  19.185  0.00  0.00    -0.043 C 
BRANCH   3   4
ATOM      4  C   UNL     1      42.159  19.373  20.298  0.00  0.00    +0.359 C 
ATOM      5  C   UNL     1      43.229  18.418  20.760  0.00  0.00    +0.056 C 
ATOM      6  O   UNL     1      41.070  19.356  20.820  0.00  0.00    -0.454 OA
ENDBRANCH   3   4
BRANCH   3   2
ATOM      1  C   UNL     1      40.540  21.746  18.380  0.00  0.00    +0.022 C 
ATOM      2  C   UNL     1      41.252  20.400  18.232  0.00  0.00    +0.022 C 
ENDBRANCH   3   2
ENDBRANCH   7   3
ENDBRANCH   8   7
ENDBRANCH   9   8
ENDBRANCH  10   9
BRANCH  22  23
ATOM     23  O   UNL     1      47.632  13.048  18.773  0.00  0.00    -0.565 OA
ATOM     24  H   UNL     1      48.123  12.920  19.596  0.00  0.00    +0.374 HD
ENDBRANCH  22  23
TORSDOF 7
ENDMDL
MODEL 7
REMARK VINA RESULT:      -5.0      1.819      4.206
REMARK  Name = ZINC95486347
REMARK  12 active torsions:
REMARK  status: ('A' for Active; 'I' for Inactive)
REMARK    1  A    between atoms: C1_1  and  C2_2
REMARK    2  A    between atoms: C2_2  and  C3_3
REMARK    3  A    between atoms: C3_3  and  C4_5
REMARK    4  A    between atoms: C3_3  and  C27_35
REMARK    5  A    between atoms: C4_5  and  C5_6
REMARK    6  A    between atoms: C5_6  and  C6_7
REMARK    7  A    between atoms: C6_7  and  C7_9
REMARK    8  A    between atoms: C6_7  and  C8_10
REMARK    9  A    between atoms: C12_16  and  C26_34
REMARK   10  A    between atoms: C20_26  and  C25_33
REMARK   11  A    between atoms: C23_29  and  O1_32
REMARK   12  A    between atoms: C27_35  and  C28_37
REMARK                            x       y       z     vdW  Elec       q    Type
REMARK                         _______ _______ _______ _____ _____    ______ ____
ROOT
ATOM     10  C   UNL     1      46.615  17.820  19.009  0.00  0.00    -0.005 C 
ATOM     11  C   UNL     1      47.912  18.667  18.984  0.00  0.00    +0.006 C 
ATOM     12  C   UNL     1      48.956  17.846  18.177  0.00  0.00    +0.010 C 
ATOM     13  C   UNL     1      48.448  16.408  18.323  0.00  0.00    -0.005 C 
ATOM     14  C   UNL     1      48.921  15.431  17.262  0.00  0.00    +0.008 C 
ATOM     15  C   UNL     1      50.436  15.233  17.385  0.00  0.00    +0.058 C 
ATOM     16  C   UNL     1      50.871  14.142  16.453  0.00  0.00    -0.061 C 
ATOM     17  C   UNL     1      50.082  13.183  16.066  0.00  0.00    -0.092 C 
ATOM     18  C   UNL     1      48.611  13.064  16.470  0.00  0.00    -0.009 C 
ATOM     19  C   UNL     1      47.714  13.271  15.249  0.00  0.00    +0.024 C 
ATOM     20  C   UNL     1      48.360  11.646  16.992  0.00  0.00    +0.032 C 
ATOM     21  C   UNL     1      48.776  10.631  15.926  0.00  0.00    +0.033 C 
ATOM     22  C   UNL     1      50.277  10.751  15.656  0.00  0.00    +0.163 C 
ATOM     25  C   UNL     1      50.638  12.128  15.125  0.00  0.00    +0.026 C 
ATOM     26  C   UNL     1      48.220  14.085  17.526  0.00  0.00    -0.004 C 
ATOM     27  C   UNL     1      46.700  14.216  17.576  0.00  0.00    +0.011 C 
ATOM     28  C   UNL     1      46.254  15.297  18.573  0.00  0.00    +0.023 C 
ATOM     29  C   UNL     1      46.914  16.595  18.150  0.00  0.00    -0.055 C 
ATOM     30  C   UNL     1      46.589  16.896  16.686  0.00  0.00    +0.021 C 
ENDROOT
BRANCH  10   9
ATOM      9  C   UNL     1      46.285  17.396  20.441  0.00  0.00    -0.007 C 
ATOM     31  C   UNL     1      47.273  18.053  21.408  0.00  0.00    +0.016 C 
BRANCH   9   8
ATOM      8  C   UNL     1      44.862  17.838  20.788  0.00  0.00    +0.003 C 
BRANCH   8   7
ATOM      7  C   UNL     1      44.283  18.653  19.630  0.00  0.00    +0.034 C 
BRANCH   7   3
ATOM      3  C   UNL     1      43.411  19.780  20.185  0.00  0.00    -0.043 C 
BRANCH   3   4
ATOM      4  C   UNL     1      43.857  21.095  19.599  0.00  0.00    +0.359 C 
ATOM      5  C   UNL     1      45.279  21.267  19.131  0.00  0.00    +0.056 C 
ATOM      6  O   UNL     1      43.075  22.010  19.505  0.00  0.00    -0.454 OA
ENDBRANCH   3   4
BRANCH   3   2
ATOM      1  C   UNL     1      41.221  18.901  21.006  0.00  0.00    +0.022 C 
ATOM      2  C   UNL     1      41.950  19.525  19.814  0.00  0.00    +0.022 C 
ENDBRANCH   3   2
ENDBRANCH   7   3
ENDBRANCH   8   7
ENDBRANCH   9   8
ENDBRANCH  10   9
BRANCH  22  23
ATOM     23  O   UNL     1      50.995  10.582  16.880  0.00  0.00    -0.565 OA
ATOM     24  H   UNL     1      50.430  10.505  17.660  0.00  0.00    +0.374 HD
ENDBRANCH  22  23
TORSDOF 7
ENDMDL
MODEL 8
REMARK VINA RESULT:      -4.9      3.684      5.362
REMARK  Name = ZINC95486347
REMARK  12 active torsions:
REMARK  status: ('A' for Active; 'I' for Inactive)
REMARK    1  A    between atoms: C1_1  and  C2_2
REMARK    2  A    between atoms: C2_2  and  C3_3
REMARK    3  A    between atoms: C3_3  and  C4_5
REMARK    4  A    between atoms: C3_3  and  C27_35
REMARK    5  A    between atoms: C4_5  and  C5_6
REMARK    6  A    between atoms: C5_6  and  C6_7
REMARK    7  A    between atoms: C6_7  and  C7_9
REMARK    8  A    between atoms: C6_7  and  C8_10
REMARK    9  A    between atoms: C12_16  and  C26_34
REMARK   10  A    between atoms: C20_26  and  C25_33
REMARK   11  A    between atoms: C23_29  and  O1_32
REMARK   12  A    between atoms: C27_35  and  C28_37
REMARK                            x       y       z     vdW  Elec       q    Type
REMARK                         _______ _______ _______ _____ _____    ______ ____
ROOT
ATOM     10  C   UNL     1      47.531  16.486  19.109  0.00  0.00    -0.005 C 
ATOM     11  C   UNL     1      46.087  15.967  18.898  0.00  0.00    +0.006 C 
ATOM     12  C   UNL     1      46.212  14.634  18.110  0.00  0.00    +0.010 C 
ATOM     13  C   UNL     1      47.564  14.777  17.404  0.00  0.00    -0.005 C 
ATOM     14  C   UNL     1      48.224  13.481  16.972  0.00  0.00    +0.008 C 
ATOM     15  C   UNL     1      47.380  12.815  15.880  0.00  0.00    +0.058 C 
ATOM     16  C   UNL     1      48.119  11.629  15.335  0.00  0.00    -0.061 C 
ATOM     17  C   UNL     1      49.416  11.530  15.359  0.00  0.00    -0.092 C 
ATOM     18  C   UNL     1      50.347  12.575  15.974  0.00  0.00    -0.009 C 
ATOM     19  C   UNL     1      51.038  11.998  17.211  0.00  0.00    +0.024 C 
ATOM     20  C   UNL     1      51.437  12.920  14.955  0.00  0.00    +0.032 C 
ATOM     21  C   UNL     1      52.162  11.640  14.534  0.00  0.00    +0.033 C 
ATOM     22  C   UNL     1      51.180  10.695  13.840  0.00  0.00    +0.163 C 
ATOM     25  C   UNL     1      50.053  10.282  14.771  0.00  0.00    +0.026 C 
ATOM     26  C   UNL     1      49.605  13.835  16.389  0.00  0.00    -0.004 C 
ATOM     27  C   UNL     1      50.462  14.641  17.361  0.00  0.00    +0.011 C 
ATOM     28  C   UNL     1      49.723  15.887  17.874  0.00  0.00    +0.023 C 
ATOM     29  C   UNL     1      48.439  15.408  18.525  0.00  0.00    -0.055 C 
ATOM     30  C   UNL     1      48.752  14.358  19.593  0.00  0.00    +0.021 C 
ENDROOT
BRANCH  10   9
ATOM      9  C   UNL     1      47.733  17.808  18.367  0.00  0.00    -0.007 C 
ATOM     31  C   UNL     1      46.483  18.128  17.543  0.00  0.00    +0.016 C 
BRANCH   9   8
ATOM      8  C   UNL     1      47.977  18.929  19.379  0.00  0.00    +0.003 C 
BRANCH   8   7
ATOM      7  C   UNL     1      49.107  19.832  18.880  0.00  0.00    +0.034 C 
BRANCH   7   3
ATOM      3  C   UNL     1      50.412  19.036  18.832  0.00  0.00    -0.043 C 
BRANCH   3   4
ATOM      4  C   UNL     1      51.331  19.640  17.801  0.00  0.00    +0.359 C 
ATOM      5  C   UNL     1      51.209  21.099  17.446  0.00  0.00    +0.056 C 
ATOM      6  O   UNL     1      52.165  18.954  17.260  0.00  0.00    -0.454 OA
ENDBRANCH   3   4
BRANCH   3   2
ATOM      1  C   UNL     1      51.142  17.664  20.787  0.00  0.00    +0.022 C 
ATOM      2  C   UNL     1      51.086  19.077  20.204  0.00  0.00    +0.022 C 
ENDBRANCH   3   2
ENDBRANCH   7   3
ENDBRANCH   8   7
ENDBRANCH   9   8
ENDBRANCH  10   9
BRANCH  22  23
ATOM     23  O   UNL     1      50.574  11.367  12.734  0.00  0.00    -0.565 OA
ATOM     24  H   UNL     1      51.122  11.385  11.937  0.00  0.00    +0.374 HD
ENDBRANCH  22  23
TORSDOF 7
ENDMDL
MODEL 9
REMARK VINA RESULT:      -4.9      2.080      3.889
REMARK  Name = ZINC95486347
REMARK  12 active torsions:
REMARK  status: ('A' for Active; 'I' for Inactive)
REMARK    1  A    between atoms: C1_1  and  C2_2
REMARK    2  A    between atoms: C2_2  and  C3_3
REMARK    3  A    between atoms: C3_3  and  C4_5
REMARK    4  A    between atoms: C3_3  and  C27_35
REMARK    5  A    between atoms: C4_5  and  C5_6
REMARK    6  A    between atoms: C5_6  and  C6_7
REMARK    7  A    between atoms: C6_7  and  C7_9
REMARK    8  A    between atoms: C6_7  and  C8_10
REMARK    9  A    between atoms: C12_16  and  C26_34
REMARK   10  A    between atoms: C20_26  and  C25_33
REMARK   11  A    between atoms: C23_29  and  O1_32
REMARK   12  A    between atoms: C27_35  and  C28_37
REMARK                            x       y       z     vdW  Elec       q    Type
REMARK                         _______ _______ _______ _____ _____    ______ ____
ROOT
ATOM     10  C   UNL     1      47.214  17.197  19.319  0.00  0.00    -0.005 C 
ATOM     11  C   UNL     1      45.832  16.499  19.354  0.00  0.00    +0.006 C 
ATOM     12  C   UNL     1      46.036  15.091  18.730  0.00  0.00    +0.010 C 
ATOM     13  C   UNL     1      47.277  15.282  17.851  0.00  0.00    -0.005 C 
ATOM     14  C   UNL     1      48.043  14.018  17.508  0.00  0.00    +0.008 C 
ATOM     15  C   UNL     1      47.176  13.119  16.619  0.00  0.00    +0.058 C 
ATOM     16  C   UNL     1      47.994  11.956  16.142  0.00  0.00    -0.061 C 
ATOM     17  C   UNL     1      49.288  12.003  16.019  0.00  0.00    -0.092 C 
ATOM     18  C   UNL     1      50.143  13.218  16.379  0.00  0.00    -0.009 C 
ATOM     19  C   UNL     1      51.029  12.898  17.584  0.00  0.00    +0.024 C 
ATOM     20  C   UNL     1      51.066  13.535  15.199  0.00  0.00    +0.032 C 
ATOM     21  C   UNL     1      51.896  12.296  14.856  0.00  0.00    +0.033 C 
ATOM     22  C   UNL     1      50.971  11.162  14.411  0.00  0.00    +0.163 C 
ATOM     25  C   UNL     1      50.009  10.762  15.518  0.00  0.00    +0.026 C 
ATOM     26  C   UNL     1      49.299  14.435  16.720  0.00  0.00    -0.004 C 
ATOM     27  C   UNL     1      50.148  15.457  17.471  0.00  0.00    +0.011 C 
ATOM     28  C   UNL     1      49.319  16.674  17.910  0.00  0.00    +0.023 C 
ATOM     29  C   UNL     1      48.182  16.154  18.768  0.00  0.00    -0.055 C 
ATOM     30  C   UNL     1      48.735  15.303  19.913  0.00  0.00    +0.021 C 
ENDROOT
BRANCH  10   9
ATOM      9  C   UNL     1      47.170  18.418  18.398  0.00  0.00    -0.007 C 
ATOM     31  C   UNL     1      45.775  18.539  17.779  0.00  0.00    +0.016 C 
BRANCH   9   8
ATOM      8  C   UNL     1      47.481  19.679  19.207  0.00  0.00    +0.003 C 
BRANCH   8   7
ATOM      7  C   UNL     1      46.567  20.818  18.748  0.00  0.00    +0.034 C 
BRANCH   7   3
ATOM      3  C   UNL     1      46.014  21.552  19.970  0.00  0.00    -0.043 C 
BRANCH   3   4
ATOM      4  C   UNL     1      44.602  21.095  20.233  0.00  0.00    +0.359 C 
ATOM      5  C   UNL     1      44.345  19.941  21.168  0.00  0.00    +0.056 C 
ATOM      6  O   UNL     1      43.677  21.653  19.694  0.00  0.00    -0.454 OA
ENDBRANCH   3   4
BRANCH   3   2
ATOM      1  C   UNL     1      47.169  22.538  21.953  0.00  0.00    +0.022 C 
ATOM      2  C   UNL     1      46.885  21.244  21.188  0.00  0.00    +0.022 C 
ENDBRANCH   3   2
ENDBRANCH   7   3
ENDBRANCH   8   7
ENDBRANCH   9   8
ENDBRANCH  10   9
BRANCH  22  23
ATOM     23  O   UNL     1      50.171  11.604  13.312  0.00  0.00    -0.565 OA
ATOM     24  H   UNL     1      49.464  10.991  13.069  0.00  0.00    +0.374 HD
ENDBRANCH  22  23
TORSDOF 7
ENDMDL
