MODEL 1
REMARK VINA RESULT:      -6.0      0.000      0.000
REMARK  Name = ZINC06524916
REMARK  2 active torsions:
REMARK  status: ('A' for Active; 'I' for Inactive)
REMARK    1  A    between atoms: C3_3  and  O4_17
REMARK    2  A    between atoms: C10_11  and  O3_16
REMARK                            x       y       z     vdW  Elec       q    Type
REMARK                         _______ _______ _______ _____ _____    ______ ____
ROOT
ATOM      1  C   UNL     1      46.865  21.745  21.902  0.00  0.00    +0.147 A 
ATOM      2  C   UNL     1      46.681  23.064  21.526  0.00  0.00    -0.067 A 
ATOM      3  C   UNL     1      45.553  23.431  20.811  0.00  0.00    +0.267 A 
ATOM      6  C   UNL     1      44.604  22.457  20.473  0.00  0.00    -0.340 A 
ATOM      7  C   UNL     1      44.794  21.120  20.857  0.00  0.00    +0.211 A 
ATOM      8  O   UNL     1      43.890  20.170  20.539  0.00  0.00    -0.226 OA
ATOM      9  C   UNL     1      42.760  20.419  19.846  0.00  0.00    +0.126 A 
ATOM     10  C   UNL     1      41.879  19.380  19.560  0.00  0.00    +0.052 A 
ATOM     11  C   UNL     1      40.723  19.627  18.852  0.00  0.00    +0.061 A 
ATOM     12  C   UNL     1      40.419  20.913  18.415  0.00  0.00    +0.131 A 
ATOM     15  C   UNL     1      41.281  21.958  18.689  0.00  0.00    +0.020 A 
ATOM     16  C   UNL     1      42.453  21.716  19.405  0.00  0.00    -0.188 A 
ATOM     17  C   UNL     1      43.390  22.815  19.718  0.00  0.00    +0.454 A 
ATOM     18  O   UNL     1      43.174  23.958  19.361  0.00  0.00    -0.470 OA
ATOM     19  C   UNL     1      45.935  20.779  21.575  0.00  0.00    -0.054 A 
ENDROOT
BRANCH   3   4
ATOM      4  O   UNL     1      45.367  24.722  20.440  0.00  0.00    -0.505 OA
ATOM      5  H   UNL     1      46.222  25.327  20.104  0.00  0.00    +0.447 HD
ENDBRANCH   3   4
BRANCH  12  13
ATOM     13  O   UNL     1      39.275  21.141  17.718  0.00  0.00    -0.505 OA
ATOM     14  H   UNL     1      39.154  22.074  17.148  0.00  0.00    +0.441 HD
ENDBRANCH  12  13
TORSDOF 2
ENDMDL
MODEL 2
REMARK VINA RESULT:      -5.8      0.990      5.157
REMARK  Name = ZINC06524916
REMARK  2 active torsions:
REMARK  status: ('A' for Active; 'I' for Inactive)
REMARK    1  A    between atoms: C3_3  and  O4_17
REMARK    2  A    between atoms: C10_11  and  O3_16
REMARK                            x       y       z     vdW  Elec       q    Type
REMARK                         _______ _______ _______ _____ _____    ______ ____
ROOT
ATOM      1  C   UNL     1      40.889  19.487  18.971  0.00  0.00    +0.147 A 
ATOM      2  C   UNL     1      40.678  20.720  18.381  0.00  0.00    -0.067 A 
ATOM      3  C   UNL     1      41.541  21.772  18.641  0.00  0.00    +0.267 A 
ATOM      6  C   UNL     1      42.627  21.574  19.504  0.00  0.00    -0.340 A 
ATOM      7  C   UNL     1      42.838  20.321  20.102  0.00  0.00    +0.211 A 
ATOM      8  O   UNL     1      43.878  20.115  20.935  0.00  0.00    -0.226 OA
ATOM      9  C   UNL     1      44.777  21.069  21.256  0.00  0.00    +0.126 A 
ATOM     10  C   UNL     1      45.822  20.773  22.126  0.00  0.00    +0.052 A 
ATOM     11  C   UNL     1      46.744  21.742  22.457  0.00  0.00    +0.061 A 
ATOM     12  C   UNL     1      46.644  23.026  21.931  0.00  0.00    +0.131 A 
ATOM     15  C   UNL     1      45.613  23.341  21.066  0.00  0.00    +0.020 A 
ATOM     16  C   UNL     1      44.676  22.365  20.725  0.00  0.00    -0.188 A 
ATOM     17  C   UNL     1      43.568  22.671  19.798  0.00  0.00    +0.454 A 
ATOM     18  O   UNL     1      43.432  23.776  19.307  0.00  0.00    -0.470 OA
ATOM     19  C   UNL     1      41.956  19.284  19.822  0.00  0.00    -0.054 A 
ENDROOT
BRANCH   3   4
ATOM      4  O   UNL     1      41.339  22.982  18.065  0.00  0.00    -0.505 OA
ATOM      5  H   UNL     1      42.144  23.460  17.487  0.00  0.00    +0.447 HD
ENDBRANCH   3   4
BRANCH  12  13
ATOM     13  O   UNL     1      47.560  23.973  22.268  0.00  0.00    -0.505 OA
ATOM     14  H   UNL     1      48.379  24.217  21.576  0.00  0.00    +0.441 HD
ENDBRANCH  12  13
TORSDOF 2
ENDMDL
MODEL 3
REMARK VINA RESULT:      -5.6     20.623     22.119
REMARK  Name = ZINC06524916
REMARK  2 active torsions:
REMARK  status: ('A' for Active; 'I' for Inactive)
REMARK    1  A    between atoms: C3_3  and  O4_17
REMARK    2  A    between atoms: C10_11  and  O3_16
REMARK                            x       y       z     vdW  Elec       q    Type
REMARK                         _______ _______ _______ _____ _____    ______ ____
ROOT
ATOM      1  C   UNL     1      58.638  33.323   4.451  0.00  0.00    +0.147 A 
ATOM      2  C   UNL     1      58.150  32.309   3.645  0.00  0.00    -0.067 A 
ATOM      3  C   UNL     1      56.802  31.991   3.669  0.00  0.00    +0.267 A 
ATOM      6  C   UNL     1      55.941  32.703   4.514  0.00  0.00    -0.340 A 
ATOM      7  C   UNL     1      56.439  33.731   5.330  0.00  0.00    +0.211 A 
ATOM      8  O   UNL     1      55.624  34.426   6.149  0.00  0.00    -0.226 OA
ATOM      9  C   UNL     1      54.298  34.197   6.250  0.00  0.00    +0.126 A 
ATOM     10  C   UNL     1      53.527  34.961   7.121  0.00  0.00    +0.052 A 
ATOM     11  C   UNL     1      52.172  34.733   7.229  0.00  0.00    +0.061 A 
ATOM     12  C   UNL     1      51.557  33.741   6.472  0.00  0.00    +0.131 A 
ATOM     15  C   UNL     1      52.305  32.971   5.601  0.00  0.00    +0.020 A 
ATOM     16  C   UNL     1      53.677  33.196   5.487  0.00  0.00    -0.188 A 
ATOM     17  C   UNL     1      54.501  32.394   4.559  0.00  0.00    +0.454 A 
ATOM     18  O   UNL     1      54.015  31.513   3.873  0.00  0.00    -0.470 OA
ATOM     19  C   UNL     1      57.797  34.030   5.286  0.00  0.00    -0.054 A 
ENDROOT
BRANCH   3   4
ATOM      4  O   UNL     1      56.319  30.998   2.881  0.00  0.00    -0.505 OA
ATOM      5  H   UNL     1      55.760  31.244   1.966  0.00  0.00    +0.447 HD
ENDBRANCH   3   4
BRANCH  12  13
ATOM     13  O   UNL     1      50.219  33.527   6.590  0.00  0.00    -0.505 OA
ATOM     14  H   UNL     1      49.791  32.552   6.316  0.00  0.00    +0.441 HD
ENDBRANCH  12  13
TORSDOF 2
ENDMDL
MODEL 4
REMARK VINA RESULT:      -5.2      2.164      3.881
REMARK  Name = ZINC06524916
REMARK  2 active torsions:
REMARK  status: ('A' for Active; 'I' for Inactive)
REMARK    1  A    between atoms: C3_3  and  O4_17
REMARK    2  A    between atoms: C10_11  and  O3_16
REMARK                            x       y       z     vdW  Elec       q    Type
REMARK                         _______ _______ _______ _____ _____    ______ ____
ROOT
ATOM      1  C   UNL     1      45.953  18.682  22.015  0.00  0.00    +0.147 A 
ATOM      2  C   UNL     1      45.053  17.726  22.452  0.00  0.00    -0.067 A 
ATOM      3  C   UNL     1      43.721  17.806  22.080  0.00  0.00    +0.267 A 
ATOM      6  C   UNL     1      43.296  18.860  21.261  0.00  0.00    -0.340 A 
ATOM      7  C   UNL     1      44.212  19.828  20.819  0.00  0.00    +0.211 A 
ATOM      8  O   UNL     1      43.819  20.849  20.031  0.00  0.00    -0.226 OA
ATOM      9  C   UNL     1      42.548  21.020  19.612  0.00  0.00    +0.126 A 
ATOM     10  C   UNL     1      42.226  22.103  18.798  0.00  0.00    +0.052 A 
ATOM     11  C   UNL     1      40.931  22.284  18.367  0.00  0.00    +0.061 A 
ATOM     12  C   UNL     1      39.928  21.392  18.736  0.00  0.00    +0.131 A 
ATOM     15  C   UNL     1      40.227  20.311  19.543  0.00  0.00    +0.020 A 
ATOM     16  C   UNL     1      41.537  20.121  19.984  0.00  0.00    -0.188 A 
ATOM     17  C   UNL     1      41.887  18.971  20.843  0.00  0.00    +0.454 A 
ATOM     18  O   UNL     1      41.050  18.160  21.195  0.00  0.00    -0.470 OA
ATOM     19  C   UNL     1      45.543  19.723  21.207  0.00  0.00    -0.054 A 
ENDROOT
BRANCH   3   4
ATOM      4  O   UNL     1      42.834  16.872  22.505  0.00  0.00    -0.505 OA
ATOM      5  H   UNL     1      43.181  15.859  22.761  0.00  0.00    +0.447 HD
ENDBRANCH   3   4
BRANCH  12  13
ATOM     13  O   UNL     1      38.654  21.585  18.302  0.00  0.00    -0.505 OA
ATOM     14  H   UNL     1      37.893  20.807  18.466  0.00  0.00    +0.441 HD
ENDBRANCH  12  13
TORSDOF 2
ENDMDL
MODEL 5
REMARK VINA RESULT:      -5.2      5.084      6.578
REMARK  Name = ZINC06524916
REMARK  2 active torsions:
REMARK  status: ('A' for Active; 'I' for Inactive)
REMARK    1  A    between atoms: C3_3  and  O4_17
REMARK    2  A    between atoms: C10_11  and  O3_16
REMARK                            x       y       z     vdW  Elec       q    Type
REMARK                         _______ _______ _______ _____ _____    ______ ____
ROOT
ATOM      1  C   UNL     1      46.832  13.673  17.516  0.00  0.00    +0.147 A 
ATOM      2  C   UNL     1      47.073  14.756  16.689  0.00  0.00    -0.067 A 
ATOM      3  C   UNL     1      46.647  16.021  17.059  0.00  0.00    +0.267 A 
ATOM      6  C   UNL     1      45.974  16.193  18.276  0.00  0.00    -0.340 A 
ATOM      7  C   UNL     1      45.732  15.092  19.113  0.00  0.00    +0.211 A 
ATOM      8  O   UNL     1      45.085  15.240  20.288  0.00  0.00    -0.226 OA
ATOM      9  C   UNL     1      44.629  16.425  20.742  0.00  0.00    +0.126 A 
ATOM     10  C   UNL     1      43.970  16.491  21.967  0.00  0.00    +0.052 A 
ATOM     11  C   UNL     1      43.502  17.698  22.438  0.00  0.00    +0.061 A 
ATOM     12  C   UNL     1      43.679  18.865  21.700  0.00  0.00    +0.131 A 
ATOM     15  C   UNL     1      44.330  18.821  20.482  0.00  0.00    +0.020 A 
ATOM     16  C   UNL     1      44.807  17.602  19.999  0.00  0.00    -0.188 A 
ATOM     17  C   UNL     1      45.513  17.526  18.703  0.00  0.00    +0.454 A 
ATOM     18  O   UNL     1      45.696  18.514  18.016  0.00  0.00    -0.470 OA
ATOM     19  C   UNL     1      46.171  13.833  18.716  0.00  0.00    -0.054 A 
ENDROOT
BRANCH   3   4
ATOM      4  O   UNL     1      46.880  17.085  16.252  0.00  0.00    -0.505 OA
ATOM      5  H   UNL     1      46.547  17.065  15.203  0.00  0.00    +0.447 HD
ENDBRANCH   3   4
BRANCH  12  13
ATOM     13  O   UNL     1      43.211  20.048  22.177  0.00  0.00    -0.505 OA
ATOM     14  H   UNL     1      42.131  20.258  22.167  0.00  0.00    +0.441 HD
ENDBRANCH  12  13
TORSDOF 2
ENDMDL
MODEL 6
REMARK VINA RESULT:      -5.1     20.527     22.255
REMARK  Name = ZINC06524916
REMARK  2 active torsions:
REMARK  status: ('A' for Active; 'I' for Inactive)
REMARK    1  A    between atoms: C3_3  and  O4_17
REMARK    2  A    between atoms: C10_11  and  O3_16
REMARK                            x       y       z     vdW  Elec       q    Type
REMARK                         _______ _______ _______ _____ _____    ______ ____
ROOT
ATOM      1  C   UNL     1      50.869  33.190   6.300  0.00  0.00    +0.147 A 
ATOM      2  C   UNL     1      51.437  34.161   7.105  0.00  0.00    -0.067 A 
ATOM      3  C   UNL     1      52.788  34.449   6.997  0.00  0.00    +0.267 A 
ATOM      6  C   UNL     1      53.569  33.751   6.068  0.00  0.00    -0.340 A 
ATOM      7  C   UNL     1      52.989  32.766   5.253  0.00  0.00    +0.211 A 
ATOM      8  O   UNL     1      53.728  32.084   4.354  0.00  0.00    -0.226 OA
ATOM      9  C   UNL     1      55.049  32.285   4.168  0.00  0.00    +0.126 A 
ATOM     10  C   UNL     1      55.738  31.537   3.218  0.00  0.00    +0.052 A 
ATOM     11  C   UNL     1      57.087  31.738   3.023  0.00  0.00    +0.061 A 
ATOM     12  C   UNL     1      57.778  32.687   3.770  0.00  0.00    +0.131 A 
ATOM     15  C   UNL     1      57.113  33.440   4.718  0.00  0.00    +0.020 A 
ATOM     16  C   UNL     1      55.747  33.242   4.921  0.00  0.00    -0.188 A 
ATOM     17  C   UNL     1      55.008  34.037   5.924  0.00  0.00    +0.454 A 
ATOM     18  O   UNL     1      55.562  34.881   6.604  0.00  0.00    -0.470 OA
ATOM     19  C   UNL     1      51.631  32.497   5.382  0.00  0.00    -0.054 A 
ENDROOT
BRANCH   3   4
ATOM      4  O   UNL     1      53.349  35.401   7.784  0.00  0.00    -0.505 OA
ATOM      5  H   UNL     1      53.983  35.109   8.634  0.00  0.00    +0.447 HD
ENDBRANCH   3   4
BRANCH  12  13
ATOM     13  O   UNL     1      59.110  32.874   3.567  0.00  0.00    -0.505 OA
ATOM     14  H   UNL     1      59.659  32.218   2.875  0.00  0.00    +0.441 HD
ENDBRANCH  12  13
TORSDOF 2
ENDMDL
MODEL 7
REMARK VINA RESULT:      -5.1      5.134      6.740
REMARK  Name = ZINC06524916
REMARK  2 active torsions:
REMARK  status: ('A' for Active; 'I' for Inactive)
REMARK    1  A    between atoms: C3_3  and  O4_17
REMARK    2  A    between atoms: C10_11  and  O3_16
REMARK                            x       y       z     vdW  Elec       q    Type
REMARK                         _______ _______ _______ _____ _____    ______ ____
ROOT
ATOM      1  C   UNL     1      46.063  13.202  19.085  0.00  0.00    +0.147 A 
ATOM      2  C   UNL     1      46.727  13.497  17.907  0.00  0.00    -0.067 A 
ATOM      3  C   UNL     1      46.789  14.805  17.455  0.00  0.00    +0.267 A 
ATOM      6  C   UNL     1      46.176  15.822  18.198  0.00  0.00    -0.340 A 
ATOM      7  C   UNL     1      45.503  15.518  19.392  0.00  0.00    +0.211 A 
ATOM      8  O   UNL     1      44.907  16.485  20.120  0.00  0.00    -0.226 OA
ATOM      9  C   UNL     1      44.907  17.788  19.770  0.00  0.00    +0.126 A 
ATOM     10  C   UNL     1      44.267  18.723  20.577  0.00  0.00    +0.052 A 
ATOM     11  C   UNL     1      44.264  20.056  20.226  0.00  0.00    +0.061 A 
ATOM     12  C   UNL     1      44.897  20.485  19.064  0.00  0.00    +0.131 A 
ATOM     15  C   UNL     1      45.538  19.572  18.248  0.00  0.00    +0.020 A 
ATOM     16  C   UNL     1      45.546  18.221  18.597  0.00  0.00    -0.188 A 
ATOM     17  C   UNL     1      46.229  17.224  17.748  0.00  0.00    +0.454 A 
ATOM     18  O   UNL     1      46.799  17.544  16.721  0.00  0.00    -0.470 OA
ATOM     19  C   UNL     1      45.456  14.197  19.823  0.00  0.00    -0.054 A 
ENDROOT
BRANCH   3   4
ATOM      4  O   UNL     1      47.439  15.100  16.301  0.00  0.00    -0.505 OA
ATOM      5  H   UNL     1      48.514  14.888  16.205  0.00  0.00    +0.447 HD
ENDBRANCH   3   4
BRANCH  12  13
ATOM     13  O   UNL     1      44.885  21.803  18.731  0.00  0.00    -0.505 OA
ATOM     14  H   UNL     1      44.218  22.163  17.934  0.00  0.00    +0.441 HD
ENDBRANCH  12  13
TORSDOF 2
ENDMDL
MODEL 8
REMARK VINA RESULT:      -5.1     21.308     22.208
REMARK  Name = ZINC06524916
REMARK  2 active torsions:
REMARK  status: ('A' for Active; 'I' for Inactive)
REMARK    1  A    between atoms: C3_3  and  O4_17
REMARK    2  A    between atoms: C10_11  and  O3_16
REMARK                            x       y       z     vdW  Elec       q    Type
REMARK                         _______ _______ _______ _____ _____    ______ ____
ROOT
ATOM      1  C   UNL     1      57.711  31.735   3.690  0.00  0.00    +0.147 A 
ATOM      2  C   UNL     1      57.750  32.543   4.813  0.00  0.00    -0.067 A 
ATOM      3  C   UNL     1      56.594  33.157   5.266  0.00  0.00    +0.267 A 
ATOM      6  C   UNL     1      55.390  32.953   4.580  0.00  0.00    -0.340 A 
ATOM      7  C   UNL     1      55.354  32.133   3.441  0.00  0.00    +0.211 A 
ATOM      8  O   UNL     1      54.203  31.926   2.769  0.00  0.00    -0.226 OA
ATOM      9  C   UNL     1      53.024  32.476   3.125  0.00  0.00    +0.126 A 
ATOM     10  C   UNL     1      51.881  32.211   2.375  0.00  0.00    +0.052 A 
ATOM     11  C   UNL     1      50.673  32.768   2.733  0.00  0.00    +0.061 A 
ATOM     12  C   UNL     1      50.576  33.601   3.844  0.00  0.00    +0.131 A 
ATOM     15  C   UNL     1      51.699  33.876   4.601  0.00  0.00    +0.020 A 
ATOM     16  C   UNL     1      52.926  33.315   4.245  0.00  0.00    -0.188 A 
ATOM     17  C   UNL     1      54.141  33.587   5.040  0.00  0.00    +0.454 A 
ATOM     18  O   UNL     1      54.115  34.307   6.022  0.00  0.00    -0.470 OA
ATOM     19  C   UNL     1      56.529  31.528   3.008  0.00  0.00    -0.054 A 
ENDROOT
BRANCH   3   4
ATOM      4  O   UNL     1      56.627  33.949   6.367  0.00  0.00    -0.505 OA
ATOM      5  H   UNL     1      56.451  35.031   6.272  0.00  0.00    +0.447 HD
ENDBRANCH   3   4
BRANCH  12  13
ATOM     13  O   UNL     1      49.378  34.144   4.184  0.00  0.00    -0.505 OA
ATOM     14  H   UNL     1      48.468  33.525   4.169  0.00  0.00    +0.441 HD
ENDBRANCH  12  13
TORSDOF 2
ENDMDL
MODEL 9
REMARK VINA RESULT:      -5.1     20.952     22.706
REMARK  Name = ZINC06524916
REMARK  2 active torsions:
REMARK  status: ('A' for Active; 'I' for Inactive)
REMARK    1  A    between atoms: C3_3  and  O4_17
REMARK    2  A    between atoms: C10_11  and  O3_16
REMARK                            x       y       z     vdW  Elec       q    Type
REMARK                         _______ _______ _______ _____ _____    ______ ____
ROOT
ATOM      1  C   UNL     1      50.845  32.422   2.563  0.00  0.00    +0.147 A 
ATOM      2  C   UNL     1      50.473  33.077   3.725  0.00  0.00    -0.067 A 
ATOM      3  C   UNL     1      51.437  33.477   4.635  0.00  0.00    +0.267 A 
ATOM      6  C   UNL     1      52.787  33.214   4.370  0.00  0.00    -0.340 A 
ATOM      7  C   UNL     1      53.161  32.550   3.190  0.00  0.00    +0.211 A 
ATOM      8  O   UNL     1      54.456  32.289   2.920  0.00  0.00    -0.226 OA
ATOM      9  C   UNL     1      55.472  32.634   3.738  0.00  0.00    +0.126 A 
ATOM     10  C   UNL     1      56.783  32.327   3.384  0.00  0.00    +0.052 A 
ATOM     11  C   UNL     1      57.825  32.677   4.214  0.00  0.00    +0.061 A 
ATOM     12  C   UNL     1      57.586  33.340   5.414  0.00  0.00    +0.131 A 
ATOM     15  C   UNL     1      56.292  33.654   5.784  0.00  0.00    +0.020 A 
ATOM     16  C   UNL     1      55.231  33.303   4.948  0.00  0.00    -0.188 A 
ATOM     17  C   UNL     1      53.838  33.632   5.315  0.00  0.00    +0.454 A 
ATOM     18  O   UNL     1      53.571  34.210   6.352  0.00  0.00    -0.470 OA
ATOM     19  C   UNL     1      52.173  32.160   2.294  0.00  0.00    -0.054 A 
ENDROOT
BRANCH   3   4
ATOM      4  O   UNL     1      51.077  34.118   5.775  0.00  0.00    -0.505 OA
ATOM      5  H   UNL     1      51.831  34.335   6.546  0.00  0.00    +0.447 HD
ENDBRANCH   3   4
BRANCH  12  13
ATOM     13  O   UNL     1      58.624  33.678   6.223  0.00  0.00    -0.505 OA
ATOM     14  H   UNL     1      59.456  34.280   5.829  0.00  0.00    +0.441 HD
ENDBRANCH  12  13
TORSDOF 2
ENDMDL
