MODEL 1
REMARK VINA RESULT:      -5.3      0.000      0.000
REMARK  Name = ZINC13386152
REMARK  6 active torsions:
REMARK  status: ('A' for Active; 'I' for Inactive)
REMARK    1  A    between atoms: C1_1  and  C2_2
REMARK    2  A    between atoms: C3_3  and  C4_4
REMARK    3  A    between atoms: C5_5  and  C6_6
REMARK    4  A    between atoms: C7_7  and  C8_8
REMARK    5  A    between atoms: C13_13  and  O1_14
REMARK    6  A    between atoms: O1_14  and  C14_15
REMARK                            x       y       z     vdW  Elec       q    Type
REMARK                         _______ _______ _______ _____ _____    ______ ____
ROOT
ATOM      8  C   UNL     1      43.247  20.009  19.822  0.00  0.00    -0.015 A 
ATOM      9  C   UNL     1      42.334  20.758  19.072  0.00  0.00    +0.108 A 
ATOM     10  C   UNL     1      40.980  20.595  19.277  0.00  0.00    -0.074 A 
ATOM     11 CL   UNL     1      39.846  21.518  18.341  0.00  0.00    -0.058 Cl
ATOM     12  C   UNL     1      40.521  19.700  20.231  0.00  0.00    +0.093 A 
ATOM     13  C   UNL     1      41.413  18.959  20.983  0.00  0.00    -0.050 A 
ATOM     14  C   UNL     1      42.776  19.106  20.787  0.00  0.00    +0.164 A 
ENDROOT
BRANCH   8   7
ATOM      6  C   UNL     1      45.809  20.302  19.439  0.00  0.00    -0.052 C 
ATOM      7  C   UNL     1      44.655  20.170  19.612  0.00  0.00    -0.055 C 
BRANCH   6   5
ATOM      4  C   UNL     1      48.316  20.589  19.064  0.00  0.00    -0.010 C 
ATOM      5  C   UNL     1      47.162  20.457  19.237  0.00  0.00    -0.026 C 
BRANCH   4   3
ATOM      1  C   UNL     1      52.269  21.038  18.473  0.00  0.00    +0.227 C 
ATOM      2  C   UNL     1      50.822  20.874  18.689  0.00  0.00    -0.097 C 
ATOM      3  C   UNL     1      49.669  20.743  18.862  0.00  0.00    -0.104 C 
ENDBRANCH   4   3
ENDBRANCH   6   5
ENDBRANCH   8   7
BRANCH  14  15
ATOM     15  O   UNL     1      43.653  18.378  21.525  0.00  0.00    -0.304 OA
ATOM     16  C   UNL     1      43.135  17.234  22.206  0.00  0.00    +0.252 C 
ENDBRANCH  14  15
TORSDOF 4
ENDMDL
MODEL 2
REMARK VINA RESULT:      -4.8      4.091      4.549
REMARK  Name = ZINC13386152
REMARK  6 active torsions:
REMARK  status: ('A' for Active; 'I' for Inactive)
REMARK    1  A    between atoms: C1_1  and  C2_2
REMARK    2  A    between atoms: C3_3  and  C4_4
REMARK    3  A    between atoms: C5_5  and  C6_6
REMARK    4  A    between atoms: C7_7  and  C8_8
REMARK    5  A    between atoms: C13_13  and  O1_14
REMARK    6  A    between atoms: O1_14  and  C14_15
REMARK                            x       y       z     vdW  Elec       q    Type
REMARK                         _______ _______ _______ _____ _____    ______ ____
ROOT
ATOM      8  C   UNL     1      43.400  21.887  19.521  0.00  0.00    -0.015 A 
ATOM      9  C   UNL     1      42.065  22.174  19.215  0.00  0.00    +0.108 A 
ATOM     10  C   UNL     1      41.234  21.171  18.762  0.00  0.00    -0.074 A 
ATOM     11 CL   UNL     1      39.580  21.528  18.374  0.00  0.00    -0.058 Cl
ATOM     12  C   UNL     1      41.712  19.878  18.619  0.00  0.00    +0.093 A 
ATOM     13  C   UNL     1      43.028  19.580  18.924  0.00  0.00    -0.050 A 
ATOM     14  C   UNL     1      43.878  20.576  19.376  0.00  0.00    +0.164 A 
ENDROOT
BRANCH   8   7
ATOM      6  C   UNL     1      44.983  23.775  20.371  0.00  0.00    -0.052 C 
ATOM      7  C   UNL     1      44.270  22.924  19.988  0.00  0.00    -0.055 C 
BRANCH   6   5
ATOM      4  C   UNL     1      46.534  25.623  21.201  0.00  0.00    -0.010 C 
ATOM      5  C   UNL     1      45.820  24.773  20.818  0.00  0.00    -0.026 C 
BRANCH   4   3
ATOM      1  C   UNL     1      48.981  28.537  22.505  0.00  0.00    +0.227 C 
ATOM      2  C   UNL     1      48.086  27.470  22.028  0.00  0.00    -0.097 C 
ATOM      3  C   UNL     1      47.372  26.620  21.648  0.00  0.00    -0.104 C 
ENDBRANCH   4   3
ENDBRANCH   6   5
ENDBRANCH   8   7
BRANCH  14  15
ATOM     15  O   UNL     1      45.171  20.285  19.675  0.00  0.00    -0.304 OA
ATOM     16  C   UNL     1      46.007  19.861  18.597  0.00  0.00    +0.252 C 
ENDBRANCH  14  15
TORSDOF 4
ENDMDL
MODEL 3
REMARK VINA RESULT:      -4.8      3.909      8.171
REMARK  Name = ZINC13386152
REMARK  6 active torsions:
REMARK  status: ('A' for Active; 'I' for Inactive)
REMARK    1  A    between atoms: C1_1  and  C2_2
REMARK    2  A    between atoms: C3_3  and  C4_4
REMARK    3  A    between atoms: C5_5  and  C6_6
REMARK    4  A    between atoms: C7_7  and  C8_8
REMARK    5  A    between atoms: C13_13  and  O1_14
REMARK    6  A    between atoms: O1_14  and  C14_15
REMARK                            x       y       z     vdW  Elec       q    Type
REMARK                         _______ _______ _______ _____ _____    ______ ____
ROOT
ATOM      8  C   UNL     1      49.414  20.780  19.125  0.00  0.00    -0.015 A 
ATOM      9  C   UNL     1      50.116  20.813  17.914  0.00  0.00    +0.108 A 
ATOM     10  C   UNL     1      51.494  20.795  17.920  0.00  0.00    -0.074 A 
ATOM     11 CL   UNL     1      52.365  20.844  16.419  0.00  0.00    -0.058 Cl
ATOM     12  C   UNL     1      52.188  20.734  19.118  0.00  0.00    +0.093 A 
ATOM     13  C   UNL     1      51.507  20.694  20.320  0.00  0.00    -0.050 A 
ATOM     14  C   UNL     1      50.122  20.717  20.335  0.00  0.00    +0.164 A 
ENDROOT
BRANCH   8   7
ATOM      6  C   UNL     1      46.808  20.821  19.130  0.00  0.00    -0.052 C 
ATOM      7  C   UNL     1      47.982  20.803  19.128  0.00  0.00    -0.055 C 
BRANCH   6   5
ATOM      4  C   UNL     1      44.257  20.864  19.134  0.00  0.00    -0.010 C 
ATOM      5  C   UNL     1      45.431  20.844  19.132  0.00  0.00    -0.026 C 
BRANCH   4   3
ATOM      1  C   UNL     1      40.236  20.931  19.136  0.00  0.00    +0.227 C 
ATOM      2  C   UNL     1      41.708  20.906  19.136  0.00  0.00    -0.097 C 
ATOM      3  C   UNL     1      42.880  20.886  19.135  0.00  0.00    -0.104 C 
ENDBRANCH   4   3
ENDBRANCH   6   5
ENDBRANCH   8   7
BRANCH  14  15
ATOM     15  O   UNL     1      49.452  20.678  21.515  0.00  0.00    -0.304 OA
ATOM     16  C   UNL     1      49.596  19.497  22.305  0.00  0.00    +0.252 C 
ENDBRANCH  14  15
TORSDOF 4
ENDMDL
MODEL 4
REMARK VINA RESULT:      -4.4      4.414      5.351
REMARK  Name = ZINC13386152
REMARK  6 active torsions:
REMARK  status: ('A' for Active; 'I' for Inactive)
REMARK    1  A    between atoms: C1_1  and  C2_2
REMARK    2  A    between atoms: C3_3  and  C4_4
REMARK    3  A    between atoms: C5_5  and  C6_6
REMARK    4  A    between atoms: C7_7  and  C8_8
REMARK    5  A    between atoms: C13_13  and  O1_14
REMARK    6  A    between atoms: O1_14  and  C14_15
REMARK                            x       y       z     vdW  Elec       q    Type
REMARK                         _______ _______ _______ _____ _____    ______ ____
ROOT
ATOM      8  C   UNL     1      45.022  20.401  19.223  0.00  0.00    -0.015 A 
ATOM      9  C   UNL     1      45.917  21.188  19.956  0.00  0.00    +0.108 A 
ATOM     10  C   UNL     1      45.490  22.376  20.511  0.00  0.00    -0.074 A 
ATOM     11 CL   UNL     1      46.602  23.357  21.414  0.00  0.00    -0.058 Cl
ATOM     12  C   UNL     1      44.177  22.789  20.353  0.00  0.00    +0.093 A 
ATOM     13  C   UNL     1      43.281  22.018  19.636  0.00  0.00    -0.050 A 
ATOM     14  C   UNL     1      43.693  20.824  19.067  0.00  0.00    +0.164 A 
ENDROOT
BRANCH   8   7
ATOM      6  C   UNL     1      45.816  18.157  18.161  0.00  0.00    -0.052 C 
ATOM      7  C   UNL     1      45.458  19.168  18.640  0.00  0.00    -0.055 C 
BRANCH   6   5
ATOM      4  C   UNL     1      46.593  15.960  17.123  0.00  0.00    -0.010 C 
ATOM      5  C   UNL     1      46.235  16.971  17.600  0.00  0.00    -0.026 C 
BRANCH   4   3
ATOM      1  C   UNL     1      47.816  12.494  15.488  0.00  0.00    +0.227 C 
ATOM      2  C   UNL     1      47.369  13.763  16.087  0.00  0.00    -0.097 C 
ATOM      3  C   UNL     1      47.012  14.774  16.563  0.00  0.00    -0.104 C 
ENDBRANCH   4   3
ENDBRANCH   6   5
ENDBRANCH   8   7
BRANCH  14  15
ATOM     15  O   UNL     1      42.814  20.066  18.362  0.00  0.00    -0.304 OA
ATOM     16  C   UNL     1      41.439  20.451  18.412  0.00  0.00    +0.252 C 
ENDBRANCH  14  15
TORSDOF 4
ENDMDL
MODEL 5
REMARK VINA RESULT:      -4.3      4.422      5.028
REMARK  Name = ZINC13386152
REMARK  6 active torsions:
REMARK  status: ('A' for Active; 'I' for Inactive)
REMARK    1  A    between atoms: C1_1  and  C2_2
REMARK    2  A    between atoms: C3_3  and  C4_4
REMARK    3  A    between atoms: C5_5  and  C6_6
REMARK    4  A    between atoms: C7_7  and  C8_8
REMARK    5  A    between atoms: C13_13  and  O1_14
REMARK    6  A    between atoms: O1_14  and  C14_15
REMARK                            x       y       z     vdW  Elec       q    Type
REMARK                         _______ _______ _______ _____ _____    ______ ____
ROOT
ATOM      8  C   UNL     1      43.955  20.875  20.643  0.00  0.00    -0.015 A 
ATOM      9  C   UNL     1      44.343  19.702  21.300  0.00  0.00    +0.108 A 
ATOM     10  C   UNL     1      43.631  18.537  21.102  0.00  0.00    -0.074 A 
ATOM     11 CL   UNL     1      44.106  17.083  21.923  0.00  0.00    -0.058 Cl
ATOM     12  C   UNL     1      42.541  18.521  20.247  0.00  0.00    +0.093 A 
ATOM     13  C   UNL     1      42.151  19.672  19.587  0.00  0.00    -0.050 A 
ATOM     14  C   UNL     1      42.851  20.853  19.778  0.00  0.00    +0.164 A 
ENDROOT
BRANCH   8   7
ATOM      6  C   UNL     1      45.287  23.084  21.015  0.00  0.00    -0.052 C 
ATOM      7  C   UNL     1      44.687  22.089  20.847  0.00  0.00    -0.055 C 
BRANCH   6   5
ATOM      4  C   UNL     1      46.589  25.248  21.381  0.00  0.00    -0.010 C 
ATOM      5  C   UNL     1      45.990  24.252  21.212  0.00  0.00    -0.026 C 
BRANCH   4   3
ATOM      1  C   UNL     1      48.643  28.657  21.961  0.00  0.00    +0.227 C 
ATOM      2  C   UNL     1      47.891  27.409  21.748  0.00  0.00    -0.097 C 
ATOM      3  C   UNL     1      47.292  26.415  21.579  0.00  0.00    -0.104 C 
ENDBRANCH   4   3
ENDBRANCH   6   5
ENDBRANCH   8   7
BRANCH  14  15
ATOM     15  O   UNL     1      42.469  21.984  19.131  0.00  0.00    -0.304 OA
ATOM     16  C   UNL     1      41.146  22.008  18.592  0.00  0.00    +0.252 C 
ENDBRANCH  14  15
TORSDOF 4
ENDMDL
MODEL 6
REMARK VINA RESULT:      -4.1      4.579      8.159
REMARK  Name = ZINC13386152
REMARK  6 active torsions:
REMARK  status: ('A' for Active; 'I' for Inactive)
REMARK    1  A    between atoms: C1_1  and  C2_2
REMARK    2  A    between atoms: C3_3  and  C4_4
REMARK    3  A    between atoms: C5_5  and  C6_6
REMARK    4  A    between atoms: C7_7  and  C8_8
REMARK    5  A    between atoms: C13_13  and  O1_14
REMARK    6  A    between atoms: O1_14  and  C14_15
REMARK                            x       y       z     vdW  Elec       q    Type
REMARK                         _______ _______ _______ _____ _____    ______ ____
ROOT
ATOM      8  C   UNL     1      48.479  17.943  18.013  0.00  0.00    -0.015 A 
ATOM      9  C   UNL     1      49.578  18.665  18.491  0.00  0.00    +0.108 A 
ATOM     10  C   UNL     1      50.850  18.151  18.347  0.00  0.00    -0.074 A 
ATOM     11 CL   UNL     1      52.214  19.042  18.947  0.00  0.00    -0.058 Cl
ATOM     12  C   UNL     1      51.045  16.930  17.723  0.00  0.00    +0.093 A 
ATOM     13  C   UNL     1      49.967  16.210  17.241  0.00  0.00    -0.050 A 
ATOM     14  C   UNL     1      48.682  16.707  17.381  0.00  0.00    +0.164 A 
ENDROOT
BRANCH   8   7
ATOM      6  C   UNL     1      46.069  18.898  18.285  0.00  0.00    -0.052 C 
ATOM      7  C   UNL     1      47.154  18.468  18.162  0.00  0.00    -0.055 C 
BRANCH   6   5
ATOM      4  C   UNL     1      43.710  19.833  18.552  0.00  0.00    -0.010 C 
ATOM      5  C   UNL     1      44.795  19.402  18.429  0.00  0.00    -0.026 C 
BRANCH   4   3
ATOM      1  C   UNL     1      39.990  21.305  18.969  0.00  0.00    +0.227 C 
ATOM      2  C   UNL     1      41.352  20.767  18.816  0.00  0.00    -0.097 C 
ATOM      3  C   UNL     1      42.437  20.337  18.695  0.00  0.00    -0.104 C 
ENDBRANCH   4   3
ENDBRANCH   6   5
ENDBRANCH   8   7
BRANCH  14  15
ATOM     15  O   UNL     1      47.622  16.001  16.909  0.00  0.00    -0.304 OA
ATOM     16  C   UNL     1      47.777  14.584  16.817  0.00  0.00    +0.252 C 
ENDBRANCH  14  15
TORSDOF 4
ENDMDL
MODEL 7
REMARK VINA RESULT:      -4.1     10.324     11.935
REMARK  Name = ZINC13386152
REMARK  6 active torsions:
REMARK  status: ('A' for Active; 'I' for Inactive)
REMARK    1  A    between atoms: C1_1  and  C2_2
REMARK    2  A    between atoms: C3_3  and  C4_4
REMARK    3  A    between atoms: C5_5  and  C6_6
REMARK    4  A    between atoms: C7_7  and  C8_8
REMARK    5  A    between atoms: C13_13  and  O1_14
REMARK    6  A    between atoms: O1_14  and  C14_15
REMARK                            x       y       z     vdW  Elec       q    Type
REMARK                         _______ _______ _______ _____ _____    ______ ____
ROOT
ATOM      8  C   UNL     1      48.484  30.580  22.138  0.00  0.00    -0.015 A 
ATOM      9  C   UNL     1      49.839  30.919  22.056  0.00  0.00    +0.108 A 
ATOM     10  C   UNL     1      50.226  32.236  22.191  0.00  0.00    -0.074 A 
ATOM     11 CL   UNL     1      51.907  32.659  22.082  0.00  0.00    -0.058 Cl
ATOM     12  C   UNL     1      49.280  33.223  22.416  0.00  0.00    +0.093 A 
ATOM     13  C   UNL     1      47.939  32.900  22.505  0.00  0.00    -0.050 A 
ATOM     14  C   UNL     1      47.531  31.584  22.368  0.00  0.00    +0.164 A 
ENDROOT
BRANCH   8   7
ATOM      6  C   UNL     1      47.738  28.097  21.878  0.00  0.00    -0.052 C 
ATOM      7  C   UNL     1      48.074  29.216  21.995  0.00  0.00    -0.055 C 
BRANCH   6   5
ATOM      4  C   UNL     1      47.007  25.666  21.622  0.00  0.00    -0.010 C 
ATOM      5  C   UNL     1      47.344  26.784  21.740  0.00  0.00    -0.026 C 
BRANCH   4   3
ATOM      1  C   UNL     1      45.854  21.834  21.215  0.00  0.00    +0.227 C 
ATOM      2  C   UNL     1      46.275  23.236  21.364  0.00  0.00    -0.097 C 
ATOM      3  C   UNL     1      46.612  24.354  21.483  0.00  0.00    -0.104 C 
ENDBRANCH   4   3
ENDBRANCH   6   5
ENDBRANCH   8   7
BRANCH  14  15
ATOM     15  O   UNL     1      46.213  31.266  22.454  0.00  0.00    -0.304 OA
ATOM     16  C   UNL     1      45.284  32.350  22.471  0.00  0.00    +0.252 C 
ENDBRANCH  14  15
TORSDOF 4
ENDMDL
MODEL 8
REMARK VINA RESULT:      -4.1      3.887      7.930
REMARK  Name = ZINC13386152
REMARK  6 active torsions:
REMARK  status: ('A' for Active; 'I' for Inactive)
REMARK    1  A    between atoms: C1_1  and  C2_2
REMARK    2  A    between atoms: C3_3  and  C4_4
REMARK    3  A    between atoms: C5_5  and  C6_6
REMARK    4  A    between atoms: C7_7  and  C8_8
REMARK    5  A    between atoms: C13_13  and  O1_14
REMARK    6  A    between atoms: O1_14  and  C14_15
REMARK                            x       y       z     vdW  Elec       q    Type
REMARK                         _______ _______ _______ _____ _____    ______ ____
ROOT
ATOM      8  C   UNL     1      48.027  18.587  18.528  0.00  0.00    -0.015 A 
ATOM      9  C   UNL     1      48.358  17.375  17.912  0.00  0.00    +0.108 A 
ATOM     10  C   UNL     1      49.670  16.953  17.888  0.00  0.00    -0.074 A 
ATOM     11 CL   UNL     1      50.083  15.453  17.118  0.00  0.00    -0.058 Cl
ATOM     12  C   UNL     1      50.661  17.720  18.480  0.00  0.00    +0.093 A 
ATOM     13  C   UNL     1      50.347  18.916  19.097  0.00  0.00    -0.050 A 
ATOM     14  C   UNL     1      49.034  19.358  19.127  0.00  0.00    +0.164 A 
ENDROOT
BRANCH   8   7
ATOM      6  C   UNL     1      45.551  19.401  18.573  0.00  0.00    -0.052 C 
ATOM      7  C   UNL     1      46.666  19.034  18.553  0.00  0.00    -0.055 C 
BRANCH   6   5
ATOM      4  C   UNL     1      43.128  20.196  18.618  0.00  0.00    -0.010 C 
ATOM      5  C   UNL     1      44.243  19.831  18.598  0.00  0.00    -0.026 C 
BRANCH   4   3
ATOM      1  C   UNL     1      39.306  21.449  18.691  0.00  0.00    +0.227 C 
ATOM      2  C   UNL     1      40.705  20.991  18.665  0.00  0.00    -0.097 C 
ATOM      3  C   UNL     1      41.819  20.625  18.644  0.00  0.00    -0.104 C 
ENDBRANCH   4   3
ENDBRANCH   6   5
ENDBRANCH   8   7
BRANCH  14  15
ATOM     15  O   UNL     1      48.724  20.534  19.732  0.00  0.00    -0.304 OA
ATOM     16  C   UNL     1      49.254  20.749  21.041  0.00  0.00    +0.252 C 
ENDBRANCH  14  15
TORSDOF 4
ENDMDL
MODEL 9
REMARK VINA RESULT:      -4.0      5.888      7.192
REMARK  Name = ZINC13386152
REMARK  6 active torsions:
REMARK  status: ('A' for Active; 'I' for Inactive)
REMARK    1  A    between atoms: C1_1  and  C2_2
REMARK    2  A    between atoms: C3_3  and  C4_4
REMARK    3  A    between atoms: C5_5  and  C6_6
REMARK    4  A    between atoms: C7_7  and  C8_8
REMARK    5  A    between atoms: C13_13  and  O1_14
REMARK    6  A    between atoms: O1_14  and  C14_15
REMARK                            x       y       z     vdW  Elec       q    Type
REMARK                         _______ _______ _______ _____ _____    ______ ____
ROOT
ATOM      8  C   UNL     1      46.547  14.858  17.561  0.00  0.00    -0.015 A 
ATOM      9  C   UNL     1      47.368  14.539  16.473  0.00  0.00    +0.108 A 
ATOM     10  C   UNL     1      47.640  13.219  16.182  0.00  0.00    -0.074 A 
ATOM     11 CL   UNL     1      48.665  12.823  14.838  0.00  0.00    -0.058 Cl
ATOM     12  C   UNL     1      47.096  12.206  16.956  0.00  0.00    +0.093 A 
ATOM     13  C   UNL     1      46.279  12.507  18.030  0.00  0.00    -0.050 A 
ATOM     14  C   UNL     1      45.999  13.828  18.340  0.00  0.00    +0.164 A 
ENDROOT
BRANCH   8   7
ATOM      6  C   UNL     1      46.032  17.349  18.127  0.00  0.00    -0.052 C 
ATOM      7  C   UNL     1      46.264  16.227  17.872  0.00  0.00    -0.055 C 
BRANCH   6   5
ATOM      4  C   UNL     1      45.527  19.787  18.683  0.00  0.00    -0.010 C 
ATOM      5  C   UNL     1      45.760  18.665  18.427  0.00  0.00    -0.026 C 
BRANCH   4   3
ATOM      1  C   UNL     1      44.735  23.632  19.559  0.00  0.00    +0.227 C 
ATOM      2  C   UNL     1      45.025  22.225  19.239  0.00  0.00    -0.097 C 
ATOM      3  C   UNL     1      45.256  21.103  18.984  0.00  0.00    -0.104 C 
ENDBRANCH   4   3
ENDBRANCH   6   5
ENDBRANCH   8   7
BRANCH  14  15
ATOM     15  O   UNL     1      45.196  14.125  19.395  0.00  0.00    -0.304 OA
ATOM     16  C   UNL     1      45.651  13.725  20.689  0.00  0.00    +0.252 C 
ENDBRANCH  14  15
TORSDOF 4
ENDMDL
