MODEL 1
REMARK VINA RESULT:      -7.0      0.000      0.000
REMARK  Name = ZINC00689728
REMARK  13 active torsions:
REMARK  status: ('A' for Active; 'I' for Inactive)
REMARK    1  A    between atoms: C1_1  and  C2_2
REMARK    2  A    between atoms: C2_2  and  C26_32
REMARK    3  A    between atoms: C3_3  and  C4_4
REMARK    4  A    between atoms: C4_4  and  C5_5
REMARK    5  A    between atoms: C7_7  and  C17_18
REMARK    6  A    between atoms: C9_9  and  C12_13
REMARK    7  A    between atoms: C10_10  and  O1_11
REMARK    8  A    between atoms: O1_11  and  C11_12
REMARK    9  A    between atoms: C12_13  and  C13_14
REMARK   10  A    between atoms: C14_15  and  C15_16
REMARK   11  A    between atoms: C14_15  and  C16_17
REMARK   12  A    between atoms: C21_24  and  O5_31
REMARK   13  A    between atoms: C23_26  and  O4_30
REMARK                            x       y       z     vdW  Elec       q    Type
REMARK                         _______ _______ _______ _____ _____    ______ ____
ROOT
ATOM      6  C   UNL     1      49.489  17.982  18.237  0.00  0.00    -0.082 A 
ATOM      7  C   UNL     1      48.506  18.810  18.743  0.00  0.00    +0.040 A 
ATOM      8  C   UNL     1      47.179  18.427  18.685  0.00  0.00    -0.091 A 
ATOM     24  C   UNL     1      46.833  17.213  18.120  0.00  0.00    +0.052 A 
ATOM     25  C   UNL     1      47.812  16.382  17.613  0.00  0.00    -0.092 A 
ATOM     31  C   UNL     1      49.144  16.767  17.664  0.00  0.00    +0.111 A 
ENDROOT
BRANCH   8   9
ATOM      9  C   UNL     1      46.110  19.333  19.239  0.00  0.00    +0.238 C 
ATOM     10  C   UNL     1      46.617  20.783  19.240  0.00  0.00    +0.038 C 
ATOM     11  C   UNL     1      45.491  21.651  19.772  0.00  0.00    +0.399 C 
ATOM     12  C   UNL     1      44.135  21.317  19.322  0.00  0.00    -0.293 A 
ATOM     13  C   UNL     1      43.068  22.200  19.547  0.00  0.00    +0.221 A 
ATOM     16  C   UNL     1      41.796  21.855  19.124  0.00  0.00    -0.074 A 
ATOM     17  C   UNL     1      41.583  20.642  18.479  0.00  0.00    +0.198 A 
ATOM     20  C   UNL     1      42.636  19.767  18.250  0.00  0.00    -0.053 A 
ATOM     21  C   UNL     1      43.916  20.093  18.663  0.00  0.00    +0.215 A 
ATOM     22  O   UNL     1      45.702  22.575  20.530  0.00  0.00    -0.425 OA
ATOM     23  O   UNL     1      44.941  19.241  18.425  0.00  0.00    -0.296 OA
BRANCH  13  14
ATOM     14  O   UNL     1      43.280  23.383  20.175  0.00  0.00    -0.476 OA
ATOM     15  H   UNL     1      44.148  23.454  20.598  0.00  0.00    +0.400 HD
ENDBRANCH  13  14
BRANCH  17  18
ATOM     18  O   UNL     1      40.333  20.310  18.071  0.00  0.00    -0.490 OA
ATOM     19  H   UNL     1      40.313  19.692  17.328  0.00  0.00    +0.403 HD
ENDBRANCH  17  18
ENDBRANCH   8   9
BRANCH  31  32
ATOM     32  O   UNL     1      50.107  15.953  17.160  0.00  0.00    -0.329 OA
ATOM     33  C   UNL     1      50.704  15.017  18.060  0.00  0.00    +0.224 C 
ENDBRANCH  31  32
BRANCH   6   5
ATOM      5  C   UNL     1      50.936  18.401  18.300  0.00  0.00    +0.117 C 
BRANCH   5   4
ATOM      1  C   UNL     1      51.366  21.173  18.580  0.00  0.00    +0.074 C 
ATOM      2  C   UNL     1      51.416  20.535  17.216  0.00  0.00    -0.125 C 
ATOM      3  C   UNL     1      51.635  21.388  15.993  0.00  0.00    +0.074 C 
ATOM      4  C   UNL     1      51.269  19.239  17.093  0.00  0.00    -0.057 C 
ENDBRANCH   5   4
ENDBRANCH   6   5
BRANCH  25  26
ATOM     26  C   UNL     1      47.432  15.059  16.997  0.00  0.00    +0.111 C 
BRANCH  26  27
ATOM     27  C   UNL     1      46.188  14.533  17.665  0.00  0.00    -0.042 C 
ATOM     28  C   UNL     1      46.278  13.578  18.557  0.00  0.00    -0.131 C 
ATOM     29  C   UNL     1      45.054  13.148  19.326  0.00  0.00    +0.073 C 
ATOM     30  C   UNL     1      47.603  12.911  18.817  0.00  0.00    +0.071 C 
ENDBRANCH  26  27
ENDBRANCH  25  26
TORSDOF 8
ENDMDL
MODEL 2
REMARK VINA RESULT:      -6.9      0.382      4.794
REMARK  Name = ZINC00689728
REMARK  13 active torsions:
REMARK  status: ('A' for Active; 'I' for Inactive)
REMARK    1  A    between atoms: C1_1  and  C2_2
REMARK    2  A    between atoms: C2_2  and  C26_32
REMARK    3  A    between atoms: C3_3  and  C4_4
REMARK    4  A    between atoms: C4_4  and  C5_5
REMARK    5  A    between atoms: C7_7  and  C17_18
REMARK    6  A    between atoms: C9_9  and  C12_13
REMARK    7  A    between atoms: C10_10  and  O1_11
REMARK    8  A    between atoms: O1_11  and  C11_12
REMARK    9  A    between atoms: C12_13  and  C13_14
REMARK   10  A    between atoms: C14_15  and  C15_16
REMARK   11  A    between atoms: C14_15  and  C16_17
REMARK   12  A    between atoms: C21_24  and  O5_31
REMARK   13  A    between atoms: C23_26  and  O4_30
REMARK                            x       y       z     vdW  Elec       q    Type
REMARK                         _______ _______ _______ _____ _____    ______ ____
ROOT
ATOM      6  C   UNL     1      47.867  16.445  17.562  0.00  0.00    -0.082 A 
ATOM      7  C   UNL     1      46.888  17.273  18.074  0.00  0.00    +0.040 A 
ATOM      8  C   UNL     1      47.237  18.463  18.686  0.00  0.00    -0.091 A 
ATOM     24  C   UNL     1      48.568  18.826  18.787  0.00  0.00    +0.052 A 
ATOM     25  C   UNL     1      49.551  18.000  18.276  0.00  0.00    -0.092 A 
ATOM     31  C   UNL     1      49.203  16.803  17.666  0.00  0.00    +0.111 A 
ENDROOT
BRANCH   8   9
ATOM      9  C   UNL     1      46.166  19.364  19.244  0.00  0.00    +0.238 C 
ATOM     10  C   UNL     1      46.664  20.817  19.235  0.00  0.00    +0.038 C 
ATOM     11  C   UNL     1      45.537  21.681  19.771  0.00  0.00    +0.399 C 
ATOM     12  C   UNL     1      44.180  21.336  19.333  0.00  0.00    -0.293 A 
ATOM     13  C   UNL     1      43.109  22.214  19.562  0.00  0.00    +0.221 A 
ATOM     16  C   UNL     1      41.836  21.858  19.150  0.00  0.00    -0.074 A 
ATOM     17  C   UNL     1      41.626  20.642  18.511  0.00  0.00    +0.198 A 
ATOM     20  C   UNL     1      42.683  19.772  18.278  0.00  0.00    -0.053 A 
ATOM     21  C   UNL     1      43.964  20.108  18.680  0.00  0.00    +0.215 A 
ATOM     22  O   UNL     1      45.747  22.609  20.524  0.00  0.00    -0.425 OA
ATOM     23  O   UNL     1      44.992  19.262  18.439  0.00  0.00    -0.296 OA
BRANCH  13  14
ATOM     14  O   UNL     1      43.318  23.400  20.183  0.00  0.00    -0.476 OA
ATOM     15  H   UNL     1      42.913  23.463  21.060  0.00  0.00    +0.400 HD
ENDBRANCH  13  14
BRANCH  17  18
ATOM     18  O   UNL     1      40.375  20.301  18.114  0.00  0.00    -0.490 OA
ATOM     19  H   UNL     1      39.884  21.022  17.696  0.00  0.00    +0.403 HD
ENDBRANCH  17  18
ENDBRANCH   8   9
BRANCH  31  32
ATOM     32  O   UNL     1      50.168  15.988  17.169  0.00  0.00    -0.329 OA
ATOM     33  C   UNL     1      50.723  15.018  18.061  0.00  0.00    +0.224 C 
ENDBRANCH  31  32
BRANCH   6   5
ATOM      5  C   UNL     1      47.485  15.148  16.895  0.00  0.00    +0.117 C 
BRANCH   5   4
ATOM      1  C   UNL     1      47.613  12.920  18.617  0.00  0.00    +0.074 C 
ATOM      2  C   UNL     1      46.281  13.541  18.284  0.00  0.00    -0.125 C 
ATOM      3  C   UNL     1      45.011  12.935  18.824  0.00  0.00    +0.074 C 
ATOM      4  C   UNL     1      46.228  14.609  17.527  0.00  0.00    -0.057 C 
ENDBRANCH   5   4
ENDBRANCH   6   5
BRANCH  25  26
ATOM     26  C   UNL     1      51.001  18.397  18.387  0.00  0.00    +0.111 C 
BRANCH  26  27
ATOM     27  C   UNL     1      51.178  19.801  17.868  0.00  0.00    -0.042 C 
ATOM     28  C   UNL     1      51.550  19.999  16.628  0.00  0.00    -0.131 C 
ATOM     29  C   UNL     1      51.593  21.398  16.069  0.00  0.00    +0.073 C 
ATOM     30  C   UNL     1      51.935  18.829  15.761  0.00  0.00    +0.071 C 
ENDBRANCH  26  27
ENDBRANCH  25  26
TORSDOF 8
ENDMDL
MODEL 3
REMARK VINA RESULT:      -6.6      1.908      5.249
REMARK  Name = ZINC00689728
REMARK  13 active torsions:
REMARK  status: ('A' for Active; 'I' for Inactive)
REMARK    1  A    between atoms: C1_1  and  C2_2
REMARK    2  A    between atoms: C2_2  and  C26_32
REMARK    3  A    between atoms: C3_3  and  C4_4
REMARK    4  A    between atoms: C4_4  and  C5_5
REMARK    5  A    between atoms: C7_7  and  C17_18
REMARK    6  A    between atoms: C9_9  and  C12_13
REMARK    7  A    between atoms: C10_10  and  O1_11
REMARK    8  A    between atoms: O1_11  and  C11_12
REMARK    9  A    between atoms: C12_13  and  C13_14
REMARK   10  A    between atoms: C14_15  and  C15_16
REMARK   11  A    between atoms: C14_15  and  C16_17
REMARK   12  A    between atoms: C21_24  and  O5_31
REMARK   13  A    between atoms: C23_26  and  O4_30
REMARK                            x       y       z     vdW  Elec       q    Type
REMARK                         _______ _______ _______ _____ _____    ______ ____
ROOT
ATOM      6  C   UNL     1      48.161  16.862  18.779  0.00  0.00    -0.082 A 
ATOM      7  C   UNL     1      46.800  16.953  19.000  0.00  0.00    +0.040 A 
ATOM      8  C   UNL     1      46.233  18.167  19.341  0.00  0.00    -0.091 A 
ATOM     24  C   UNL     1      47.027  19.293  19.463  0.00  0.00    +0.052 A 
ATOM     25  C   UNL     1      48.388  19.207  19.243  0.00  0.00    -0.092 A 
ATOM     31  C   UNL     1      48.960  17.989  18.906  0.00  0.00    +0.111 A 
ENDROOT
BRANCH   8   9
ATOM      9  C   UNL     1      44.749  18.262  19.581  0.00  0.00    +0.238 C 
ATOM     10  C   UNL     1      44.465  18.153  21.086  0.00  0.00    +0.038 C 
ATOM     11  C   UNL     1      42.964  18.290  21.271  0.00  0.00    +0.399 C 
ATOM     12  C   UNL     1      42.289  19.291  20.438  0.00  0.00    -0.293 A 
ATOM     13  C   UNL     1      40.965  19.672  20.708  0.00  0.00    +0.221 A 
ATOM     16  C   UNL     1      40.348  20.610  19.898  0.00  0.00    -0.074 A 
ATOM     17  C   UNL     1      41.038  21.169  18.829  0.00  0.00    +0.198 A 
ATOM     20  C   UNL     1      42.349  20.799  18.561  0.00  0.00    -0.053 A 
ATOM     21  C   UNL     1      42.987  19.865  19.359  0.00  0.00    +0.215 A 
ATOM     22  O   UNL     1      42.354  17.607  22.068  0.00  0.00    -0.425 OA
ATOM     23  O   UNL     1      44.269  19.518  19.099  0.00  0.00    -0.296 OA
BRANCH  13  14
ATOM     14  O   UNL     1      40.296  19.126  21.752  0.00  0.00    -0.476 OA
ATOM     15  H   UNL     1      39.635  18.468  21.496  0.00  0.00    +0.400 HD
ENDBRANCH  13  14
BRANCH  17  18
ATOM     18  O   UNL     1      40.423  22.084  18.039  0.00  0.00    -0.490 OA
ATOM     19  H   UNL     1      39.870  21.697  17.346  0.00  0.00    +0.403 HD
ENDBRANCH  17  18
ENDBRANCH   8   9
BRANCH  31  32
ATOM     32  O   UNL     1      50.299  17.901  18.696  0.00  0.00    -0.329 OA
ATOM     33  C   UNL     1      51.113  17.561  19.821  0.00  0.00    +0.224 C 
ENDBRANCH  31  32
BRANCH   6   5
ATOM      5  C   UNL     1      48.778  15.538  18.407  0.00  0.00    +0.117 C 
BRANCH   5   4
ATOM      1  C   UNL     1      47.584  13.974  16.389  0.00  0.00    +0.074 C 
ATOM      2  C   UNL     1      47.238  13.732  17.835  0.00  0.00    -0.125 C 
ATOM      3  C   UNL     1      46.208  12.694  18.200  0.00  0.00    +0.074 C 
ATOM      4  C   UNL     1      47.834  14.423  18.775  0.00  0.00    -0.057 C 
ENDBRANCH   5   4
ENDBRANCH   6   5
BRANCH  25  26
ATOM     26  C   UNL     1      49.252  20.435  19.376  0.00  0.00    +0.111 C 
BRANCH  26  27
ATOM     27  C   UNL     1      49.735  20.860  18.013  0.00  0.00    -0.042 C 
ATOM     28  C   UNL     1      51.010  21.076  17.809  0.00  0.00    -0.131 C 
ATOM     29  C   UNL     1      51.512  21.364  16.417  0.00  0.00    +0.073 C 
ATOM     30  C   UNL     1      51.976  21.037  18.964  0.00  0.00    +0.071 C 
ENDBRANCH  26  27
ENDBRANCH  25  26
TORSDOF 8
ENDMDL
MODEL 4
REMARK VINA RESULT:      -6.4      2.272      8.117
REMARK  Name = ZINC00689728
REMARK  13 active torsions:
REMARK  status: ('A' for Active; 'I' for Inactive)
REMARK    1  A    between atoms: C1_1  and  C2_2
REMARK    2  A    between atoms: C2_2  and  C26_32
REMARK    3  A    between atoms: C3_3  and  C4_4
REMARK    4  A    between atoms: C4_4  and  C5_5
REMARK    5  A    between atoms: C7_7  and  C17_18
REMARK    6  A    between atoms: C9_9  and  C12_13
REMARK    7  A    between atoms: C10_10  and  O1_11
REMARK    8  A    between atoms: O1_11  and  C11_12
REMARK    9  A    between atoms: C12_13  and  C13_14
REMARK   10  A    between atoms: C14_15  and  C15_16
REMARK   11  A    between atoms: C14_15  and  C16_17
REMARK   12  A    between atoms: C21_24  and  O5_31
REMARK   13  A    between atoms: C23_26  and  O4_30
REMARK                            x       y       z     vdW  Elec       q    Type
REMARK                         _______ _______ _______ _____ _____    ______ ____
ROOT
ATOM      6  C   UNL     1      45.673  19.644  20.593  0.00  0.00    -0.082 A 
ATOM      7  C   UNL     1      45.755  18.311  20.244  0.00  0.00    +0.040 A 
ATOM      8  C   UNL     1      46.960  17.776  19.828  0.00  0.00    -0.091 A 
ATOM     24  C   UNL     1      48.087  18.575  19.761  0.00  0.00    +0.052 A 
ATOM     25  C   UNL     1      48.010  19.910  20.110  0.00  0.00    -0.092 A 
ATOM     31  C   UNL     1      46.800  20.450  20.523  0.00  0.00    +0.111 A 
ENDROOT
BRANCH   8   9
ATOM      9  C   UNL     1      47.046  16.321  19.447  0.00  0.00    +0.238 C 
ATOM     10  C   UNL     1      45.631  15.762  19.234  0.00  0.00    +0.038 C 
ATOM     11  C   UNL     1      45.779  14.310  18.820  0.00  0.00    +0.399 C 
ATOM     12  C   UNL     1      46.870  14.001  17.888  0.00  0.00    -0.293 A 
ATOM     13  C   UNL     1      46.935  12.751  17.251  0.00  0.00    +0.221 A 
ATOM     16  C   UNL     1      47.981  12.481  16.386  0.00  0.00    -0.074 A 
ATOM     17  C   UNL     1      48.955  13.443  16.151  0.00  0.00    +0.198 A 
ATOM     20  C   UNL     1      48.893  14.682  16.775  0.00  0.00    -0.053 A 
ATOM     21  C   UNL     1      47.855  14.975  17.642  0.00  0.00    +0.215 A 
ATOM     22  O   UNL     1      45.034  13.448  19.238  0.00  0.00    -0.425 OA
ATOM     23  O   UNL     1      47.793  16.189  18.237  0.00  0.00    -0.296 OA
BRANCH  13  14
ATOM     14  O   UNL     1      45.981  11.816  17.482  0.00  0.00    -0.476 OA
ATOM     15  H   UNL     1      45.834  11.212  16.740  0.00  0.00    +0.400 HD
ENDBRANCH  13  14
BRANCH  17  18
ATOM     18  O   UNL     1      49.979  13.168  15.305  0.00  0.00    -0.490 OA
ATOM     19  H   UNL     1      50.301  12.258  15.360  0.00  0.00    +0.403 HD
ENDBRANCH  17  18
ENDBRANCH   8   9
BRANCH  31  32
ATOM     32  O   UNL     1      46.721  21.763  20.860  0.00  0.00    -0.329 OA
ATOM     33  C   UNL     1      46.960  22.098  22.229  0.00  0.00    +0.224 C 
ENDBRANCH  31  32
BRANCH   6   5
ATOM      5  C   UNL     1      44.358  20.226  21.047  0.00  0.00    +0.117 C 
BRANCH   5   4
ATOM      1  C   UNL     1      41.815  19.084  20.630  0.00  0.00    +0.074 C 
ATOM      2  C   UNL     1      42.384  20.048  19.622  0.00  0.00    -0.125 C 
ATOM      3  C   UNL     1      41.620  20.357  18.360  0.00  0.00    +0.074 C 
ATOM      4  C   UNL     1      43.542  20.620  19.843  0.00  0.00    -0.057 C 
ENDBRANCH   5   4
ENDBRANCH   6   5
BRANCH  25  26
ATOM     26  C   UNL     1      49.239  20.780  20.037  0.00  0.00    +0.111 C 
BRANCH  26  27
ATOM     27  C   UNL     1      49.696  20.885  18.604  0.00  0.00    -0.042 C 
ATOM     28  C   UNL     1      50.963  21.076  18.334  0.00  0.00    -0.131 C 
ATOM     29  C   UNL     1      51.441  21.042  16.905  0.00  0.00    +0.073 C 
ATOM     30  C   UNL     1      51.942  21.330  19.450  0.00  0.00    +0.071 C 
ENDBRANCH  26  27
ENDBRANCH  25  26
TORSDOF 8
ENDMDL
MODEL 5
REMARK VINA RESULT:      -6.3      2.171      5.482
REMARK  Name = ZINC00689728
REMARK  13 active torsions:
REMARK  status: ('A' for Active; 'I' for Inactive)
REMARK    1  A    between atoms: C1_1  and  C2_2
REMARK    2  A    between atoms: C2_2  and  C26_32
REMARK    3  A    between atoms: C3_3  and  C4_4
REMARK    4  A    between atoms: C4_4  and  C5_5
REMARK    5  A    between atoms: C7_7  and  C17_18
REMARK    6  A    between atoms: C9_9  and  C12_13
REMARK    7  A    between atoms: C10_10  and  O1_11
REMARK    8  A    between atoms: O1_11  and  C11_12
REMARK    9  A    between atoms: C12_13  and  C13_14
REMARK   10  A    between atoms: C14_15  and  C15_16
REMARK   11  A    between atoms: C14_15  and  C16_17
REMARK   12  A    between atoms: C21_24  and  O5_31
REMARK   13  A    between atoms: C23_26  and  O4_30
REMARK                            x       y       z     vdW  Elec       q    Type
REMARK                         _______ _______ _______ _____ _____    ______ ____
ROOT
ATOM      6  C   UNL     1      48.771  15.266  17.244  0.00  0.00    -0.082 A 
ATOM      7  C   UNL     1      47.502  15.533  17.719  0.00  0.00    +0.040 A 
ATOM      8  C   UNL     1      47.265  16.678  18.456  0.00  0.00    -0.091 A 
ATOM     24  C   UNL     1      48.297  17.560  18.719  0.00  0.00    +0.052 A 
ATOM     25  C   UNL     1      49.568  17.297  18.246  0.00  0.00    -0.092 A 
ATOM     31  C   UNL     1      49.810  16.145  17.511  0.00  0.00    +0.111 A 
ENDROOT
BRANCH   8   9
ATOM      9  C   UNL     1      45.879  16.967  18.972  0.00  0.00    +0.238 C 
ATOM     10  C   UNL     1      45.838  16.732  20.489  0.00  0.00    +0.038 C 
ATOM     11  C   UNL     1      44.435  17.070  20.958  0.00  0.00    +0.399 C 
ATOM     12  C   UNL     1      43.805  18.248  20.351  0.00  0.00    -0.293 A 
ATOM     13  C   UNL     1      42.628  18.790  20.892  0.00  0.00    +0.221 A 
ATOM     16  C   UNL     1      42.049  19.894  20.292  0.00  0.00    -0.074 A 
ATOM     17  C   UNL     1      42.632  20.460  19.166  0.00  0.00    +0.198 A 
ATOM     20  C   UNL     1      43.799  19.932  18.630  0.00  0.00    -0.053 A 
ATOM     21  C   UNL     1      44.397  18.829  19.214  0.00  0.00    +0.215 A 
ATOM     22  O   UNL     1      43.862  16.400  21.793  0.00  0.00    -0.425 OA
ATOM     23  O   UNL     1      45.541  18.326  18.695  0.00  0.00    -0.296 OA
BRANCH  13  14
ATOM     14  O   UNL     1      42.063  18.235  21.992  0.00  0.00    -0.476 OA
ATOM     15  H   UNL     1      42.678  18.107  22.728  0.00  0.00    +0.400 HD
ENDBRANCH  13  14
BRANCH  17  18
ATOM     18  O   UNL     1      42.055  21.541  18.582  0.00  0.00    -0.490 OA
ATOM     19  H   UNL     1      41.919  21.447  17.629  0.00  0.00    +0.403 HD
ENDBRANCH  17  18
ENDBRANCH   8   9
BRANCH  31  32
ATOM     32  O   UNL     1      51.061  15.882  17.051  0.00  0.00    -0.329 OA
ATOM     33  C   UNL     1      51.938  15.167  17.924  0.00  0.00    +0.224 C 
ENDBRANCH  31  32
BRANCH   6   5
ATOM      5  C   UNL     1      49.029  14.016  16.440  0.00  0.00    +0.117 C 
BRANCH   5   4
ATOM      1  C   UNL     1      48.421  12.072  14.492  0.00  0.00    +0.074 C 
ATOM      2  C   UNL     1      47.602  12.158  15.753  0.00  0.00    -0.125 C 
ATOM      3  C   UNL     1      46.419  11.245  15.947  0.00  0.00    +0.074 C 
ATOM      4  C   UNL     1      47.918  13.026  16.682  0.00  0.00    -0.057 C 
ENDBRANCH   5   4
ENDBRANCH   6   5
BRANCH  25  26
ATOM     26  C   UNL     1      50.693  18.258  18.534  0.00  0.00    +0.111 C 
BRANCH  26  27
ATOM     27  C   UNL     1      50.938  19.122  17.323  0.00  0.00    -0.042 C 
ATOM     28  C   UNL     1      51.105  20.414  17.464  0.00  0.00    -0.131 C 
ATOM     29  C   UNL     1      51.488  21.257  16.275  0.00  0.00    +0.073 C 
ATOM     30  C   UNL     1      50.916  21.056  18.814  0.00  0.00    +0.071 C 
ENDBRANCH  26  27
ENDBRANCH  25  26
TORSDOF 8
ENDMDL
MODEL 6
REMARK VINA RESULT:      -6.0      4.251      7.420
REMARK  Name = ZINC00689728
REMARK  13 active torsions:
REMARK  status: ('A' for Active; 'I' for Inactive)
REMARK    1  A    between atoms: C1_1  and  C2_2
REMARK    2  A    between atoms: C2_2  and  C26_32
REMARK    3  A    between atoms: C3_3  and  C4_4
REMARK    4  A    between atoms: C4_4  and  C5_5
REMARK    5  A    between atoms: C7_7  and  C17_18
REMARK    6  A    between atoms: C9_9  and  C12_13
REMARK    7  A    between atoms: C10_10  and  O1_11
REMARK    8  A    between atoms: O1_11  and  C11_12
REMARK    9  A    between atoms: C12_13  and  C13_14
REMARK   10  A    between atoms: C14_15  and  C15_16
REMARK   11  A    between atoms: C14_15  and  C16_17
REMARK   12  A    between atoms: C21_24  and  O5_31
REMARK   13  A    between atoms: C23_26  and  O4_30
REMARK                            x       y       z     vdW  Elec       q    Type
REMARK                         _______ _______ _______ _____ _____    ______ ____
ROOT
ATOM      6  C   UNL     1      48.730  12.874  17.464  0.00  0.00    -0.082 A 
ATOM      7  C   UNL     1      48.637  14.227  17.728  0.00  0.00    +0.040 A 
ATOM      8  C   UNL     1      49.556  15.104  17.181  0.00  0.00    -0.091 A 
ATOM     24  C   UNL     1      50.569  14.629  16.369  0.00  0.00    +0.052 A 
ATOM     25  C   UNL     1      50.666  13.277  16.103  0.00  0.00    -0.092 A 
ATOM     31  C   UNL     1      49.749  12.394  16.655  0.00  0.00    +0.111 A 
ENDROOT
BRANCH   8   9
ATOM      9  C   UNL     1      49.452  16.579  17.471  0.00  0.00    +0.238 C 
ATOM     10  C   UNL     1      49.440  16.803  18.990  0.00  0.00    +0.038 C 
ATOM     11  C   UNL     1      49.370  18.302  19.221  0.00  0.00    +0.399 C 
ATOM     12  C   UNL     1      50.179  19.142  18.332  0.00  0.00    -0.293 A 
ATOM     13  C   UNL     1      50.383  20.501  18.621  0.00  0.00    +0.221 A 
ATOM     16  C   UNL     1      51.141  21.274  17.758  0.00  0.00    -0.074 A 
ATOM     17  C   UNL     1      51.696  20.705  16.619  0.00  0.00    +0.198 A 
ATOM     20  C   UNL     1      51.501  19.361  16.331  0.00  0.00    -0.053 A 
ATOM     21  C   UNL     1      50.749  18.568  17.181  0.00  0.00    +0.215 A 
ATOM     22  O   UNL     1      48.680  18.780  20.098  0.00  0.00    -0.425 OA
ATOM     23  O   UNL     1      50.573  17.255  16.902  0.00  0.00    -0.296 OA
BRANCH  13  14
ATOM     14  O   UNL     1      49.842  21.052  19.735  0.00  0.00    -0.476 OA
ATOM     15  H   UNL     1      49.001  21.505  19.581  0.00  0.00    +0.400 HD
ENDBRANCH  13  14
BRANCH  17  18
ATOM     18  O   UNL     1      52.434  21.472  15.777  0.00  0.00    -0.490 OA
ATOM     19  H   UNL     1      52.480  22.403  16.032  0.00  0.00    +0.403 HD
ENDBRANCH  17  18
ENDBRANCH   8   9
BRANCH  31  32
ATOM     32  O   UNL     1      49.846  11.064  16.399  0.00  0.00    -0.329 OA
ATOM     33  C   UNL     1      50.602  10.278  17.322  0.00  0.00    +0.224 C 
ENDBRANCH  31  32
BRANCH   6   5
ATOM      5  C   UNL     1      47.727  11.919  18.061  0.00  0.00    +0.117 C 
BRANCH   5   4
ATOM      1  C   UNL     1      45.173  13.005  18.551  0.00  0.00    +0.074 C 
ATOM      2  C   UNL     1      45.408  12.149  17.334  0.00  0.00    -0.125 C 
ATOM      3  C   UNL     1      44.263  11.821  16.410  0.00  0.00    +0.074 C 
ATOM      4  C   UNL     1      46.607  11.689  17.079  0.00  0.00    -0.057 C 
ENDBRANCH   5   4
ENDBRANCH   6   5
BRANCH  25  26
ATOM     26  C   UNL     1      51.772  12.760  15.218  0.00  0.00    +0.111 C 
BRANCH  26  27
ATOM     27  C   UNL     1      51.554  13.245  13.807  0.00  0.00    -0.042 C 
ATOM     28  C   UNL     1      51.209  12.397  12.870  0.00  0.00    -0.131 C 
ATOM     29  C   UNL     1      50.856  12.900  11.494  0.00  0.00    +0.073 C 
ATOM     30  C   UNL     1      51.165  10.922  13.167  0.00  0.00    +0.071 C 
ENDBRANCH  26  27
ENDBRANCH  25  26
TORSDOF 8
ENDMDL
MODEL 7
REMARK VINA RESULT:      -6.0      2.125      3.064
REMARK  Name = ZINC00689728
REMARK  13 active torsions:
REMARK  status: ('A' for Active; 'I' for Inactive)
REMARK    1  A    between atoms: C1_1  and  C2_2
REMARK    2  A    between atoms: C2_2  and  C26_32
REMARK    3  A    between atoms: C3_3  and  C4_4
REMARK    4  A    between atoms: C4_4  and  C5_5
REMARK    5  A    between atoms: C7_7  and  C17_18
REMARK    6  A    between atoms: C9_9  and  C12_13
REMARK    7  A    between atoms: C10_10  and  O1_11
REMARK    8  A    between atoms: O1_11  and  C11_12
REMARK    9  A    between atoms: C12_13  and  C13_14
REMARK   10  A    between atoms: C14_15  and  C15_16
REMARK   11  A    between atoms: C14_15  and  C16_17
REMARK   12  A    between atoms: C21_24  and  O5_31
REMARK   13  A    between atoms: C23_26  and  O4_30
REMARK                            x       y       z     vdW  Elec       q    Type
REMARK                         _______ _______ _______ _____ _____    ______ ____
ROOT
ATOM      6  C   UNL     1      49.145  18.827  18.621  0.00  0.00    -0.082 A 
ATOM      7  C   UNL     1      47.803  18.843  18.945  0.00  0.00    +0.040 A 
ATOM      8  C   UNL     1      47.091  17.659  19.011  0.00  0.00    -0.091 A 
ATOM     24  C   UNL     1      47.723  16.456  18.755  0.00  0.00    +0.052 A 
ATOM     25  C   UNL     1      49.066  16.435  18.431  0.00  0.00    -0.092 A 
ATOM     31  C   UNL     1      49.780  17.622  18.358  0.00  0.00    +0.111 A 
ENDROOT
BRANCH   8   9
ATOM      9  C   UNL     1      45.627  17.681  19.365  0.00  0.00    +0.238 C 
ATOM     10  C   UNL     1      45.461  17.462  20.876  0.00  0.00    +0.038 C 
ATOM     11  C   UNL     1      43.975  17.528  21.178  0.00  0.00    +0.399 C 
ATOM     12  C   UNL     1      43.205  18.555  20.467  0.00  0.00    -0.293 A 
ATOM     13  C   UNL     1      41.893  18.866  20.858  0.00  0.00    +0.221 A 
ATOM     16  C   UNL     1      41.185  19.830  20.162  0.00  0.00    -0.074 A 
ATOM     17  C   UNL     1      41.774  20.485  19.086  0.00  0.00    +0.198 A 
ATOM     20  C   UNL     1      43.072  20.184  18.698  0.00  0.00    -0.053 A 
ATOM     21  C   UNL     1      43.800  19.225  19.381  0.00  0.00    +0.215 A 
ATOM     22  O   UNL     1      43.450  16.771  21.968  0.00  0.00    -0.425 OA
ATOM     23  O   UNL     1      45.070  18.946  19.006  0.00  0.00    -0.296 OA
BRANCH  13  14
ATOM     14  O   UNL     1      41.324  18.227  21.909  0.00  0.00    -0.476 OA
ATOM     15  H   UNL     1      40.410  18.493  22.083  0.00  0.00    +0.400 HD
ENDBRANCH  13  14
BRANCH  17  18
ATOM     18  O   UNL     1      41.070  21.425  18.407  0.00  0.00    -0.490 OA
ATOM     19  H   UNL     1      41.543  21.801  17.651  0.00  0.00    +0.403 HD
ENDBRANCH  17  18
ENDBRANCH   8   9
BRANCH  31  32
ATOM     32  O   UNL     1      51.099  17.603  18.033  0.00  0.00    -0.329 OA
ATOM     33  C   UNL     1      51.430  17.758  16.652  0.00  0.00    +0.224 C 
ENDBRANCH  31  32
BRANCH   6   5
ATOM      5  C   UNL     1      49.920  20.118  18.549  0.00  0.00    +0.117 C 
BRANCH   5   4
ATOM      1  C   UNL     1      52.227  20.202  20.167  0.00  0.00    +0.074 C 
ATOM      2  C   UNL     1      50.934  20.797  20.663  0.00  0.00    -0.125 C 
ATOM      3  C   UNL     1      50.858  21.382  22.050  0.00  0.00    +0.074 C 
ATOM      4  C   UNL     1      49.877  20.805  19.890  0.00  0.00    -0.057 C 
ENDBRANCH   5   4
ENDBRANCH   6   5
BRANCH  25  26
ATOM     26  C   UNL     1      49.753  15.122  18.151  0.00  0.00    +0.111 C 
BRANCH  26  27
ATOM     27  C   UNL     1      49.316  14.604  16.805  0.00  0.00    -0.042 C 
ATOM     28  C   UNL     1      48.558  13.538  16.729  0.00  0.00    -0.131 C 
ATOM     29  C   UNL     1      48.006  13.100  15.397  0.00  0.00    +0.073 C 
ATOM     30  C   UNL     1      48.237  12.750  17.972  0.00  0.00    +0.071 C 
ENDBRANCH  26  27
ENDBRANCH  25  26
TORSDOF 8
ENDMDL
MODEL 8
REMARK VINA RESULT:      -5.8      4.043      7.104
REMARK  Name = ZINC00689728
REMARK  13 active torsions:
REMARK  status: ('A' for Active; 'I' for Inactive)
REMARK    1  A    between atoms: C1_1  and  C2_2
REMARK    2  A    between atoms: C2_2  and  C26_32
REMARK    3  A    between atoms: C3_3  and  C4_4
REMARK    4  A    between atoms: C4_4  and  C5_5
REMARK    5  A    between atoms: C7_7  and  C17_18
REMARK    6  A    between atoms: C9_9  and  C12_13
REMARK    7  A    between atoms: C10_10  and  O1_11
REMARK    8  A    between atoms: O1_11  and  C11_12
REMARK    9  A    between atoms: C12_13  and  C13_14
REMARK   10  A    between atoms: C14_15  and  C15_16
REMARK   11  A    between atoms: C14_15  and  C16_17
REMARK   12  A    between atoms: C21_24  and  O5_31
REMARK   13  A    between atoms: C23_26  and  O4_30
REMARK                            x       y       z     vdW  Elec       q    Type
REMARK                         _______ _______ _______ _____ _____    ______ ____
ROOT
ATOM      6  C   UNL     1      46.929  13.549  18.009  0.00  0.00    -0.082 A 
ATOM      7  C   UNL     1      47.233  14.887  18.162  0.00  0.00    +0.040 A 
ATOM      8  C   UNL     1      48.323  15.430  17.507  0.00  0.00    -0.091 A 
ATOM     24  C   UNL     1      49.111  14.634  16.696  0.00  0.00    +0.052 A 
ATOM     25  C   UNL     1      48.811  13.294  16.540  0.00  0.00    -0.092 A 
ATOM     31  C   UNL     1      47.721  12.746  17.201  0.00  0.00    +0.111 A 
ENDROOT
BRANCH   8   9
ATOM      9  C   UNL     1      48.651  16.891  17.677  0.00  0.00    +0.238 C 
ATOM     10  C   UNL     1      48.840  17.204  19.168  0.00  0.00    +0.038 C 
ATOM     11  C   UNL     1      49.202  18.674  19.276  0.00  0.00    +0.399 C 
ATOM     12  C   UNL     1      50.125  19.199  18.263  0.00  0.00    -0.293 A 
ATOM     13  C   UNL     1      50.717  20.462  18.420  0.00  0.00    +0.221 A 
ATOM     16  C   UNL     1      51.574  20.938  17.444  0.00  0.00    -0.074 A 
ATOM     17  C   UNL     1      51.846  20.167  16.320  0.00  0.00    +0.198 A 
ATOM     20  C   UNL     1      51.268  18.915  16.163  0.00  0.00    -0.053 A 
ATOM     21  C   UNL     1      50.409  18.418  17.127  0.00  0.00    +0.215 A 
ATOM     22  O   UNL     1      48.752  19.379  20.155  0.00  0.00    -0.425 OA
ATOM     23  O   UNL     1      49.857  17.191  16.974  0.00  0.00    -0.296 OA
BRANCH  13  14
ATOM     14  O   UNL     1      50.450  21.210  19.518  0.00  0.00    -0.476 OA
ATOM     15  H   UNL     1      49.910  21.993  19.340  0.00  0.00    +0.400 HD
ENDBRANCH  13  14
BRANCH  17  18
ATOM     18  O   UNL     1      52.685  20.644  15.366  0.00  0.00    -0.490 OA
ATOM     19  H   UNL     1      53.166  19.956  14.886  0.00  0.00    +0.403 HD
ENDBRANCH  17  18
ENDBRANCH   8   9
BRANCH  31  32
ATOM     32  O   UNL     1      47.428  11.428  17.053  0.00  0.00    -0.329 OA
ATOM     33  C   UNL     1      46.457  11.085  16.062  0.00  0.00    +0.224 C 
ENDBRANCH  31  32
BRANCH   6   5
ATOM      5  C   UNL     1      45.740  12.958  18.724  0.00  0.00    +0.117 C 
BRANCH   5   4
ATOM      1  C   UNL     1      46.700  13.125  21.369  0.00  0.00    +0.074 C 
ATOM      2  C   UNL     1      45.575  14.020  20.916  0.00  0.00    -0.125 C 
ATOM      3  C   UNL     1      44.922  14.963  21.894  0.00  0.00    +0.074 C 
ATOM      4  C   UNL     1      45.166  13.979  19.672  0.00  0.00    -0.057 C 
ENDBRANCH   5   4
ENDBRANCH   6   5
BRANCH  25  26
ATOM     26  C   UNL     1      49.671  12.427  15.656  0.00  0.00    +0.111 C 
BRANCH  26  27
ATOM     27  C   UNL     1      49.361  12.720  14.210  0.00  0.00    -0.042 C 
ATOM     28  C   UNL     1      50.322  13.074  13.394  0.00  0.00    -0.131 C 
ATOM     29  C   UNL     1      50.039  13.230  11.922  0.00  0.00    +0.073 C 
ATOM     30  C   UNL     1      51.709  13.323  13.924  0.00  0.00    +0.071 C 
ENDBRANCH  26  27
ENDBRANCH  25  26
TORSDOF 8
ENDMDL
MODEL 9
REMARK VINA RESULT:      -5.8      1.883      2.132
REMARK  Name = ZINC00689728
REMARK  13 active torsions:
REMARK  status: ('A' for Active; 'I' for Inactive)
REMARK    1  A    between atoms: C1_1  and  C2_2
REMARK    2  A    between atoms: C2_2  and  C26_32
REMARK    3  A    between atoms: C3_3  and  C4_4
REMARK    4  A    between atoms: C4_4  and  C5_5
REMARK    5  A    between atoms: C7_7  and  C17_18
REMARK    6  A    between atoms: C9_9  and  C12_13
REMARK    7  A    between atoms: C10_10  and  O1_11
REMARK    8  A    between atoms: O1_11  and  C11_12
REMARK    9  A    between atoms: C12_13  and  C13_14
REMARK   10  A    between atoms: C14_15  and  C15_16
REMARK   11  A    between atoms: C14_15  and  C16_17
REMARK   12  A    between atoms: C21_24  and  O5_31
REMARK   13  A    between atoms: C23_26  and  O4_30
REMARK                            x       y       z     vdW  Elec       q    Type
REMARK                         _______ _______ _______ _____ _____    ______ ____
ROOT
ATOM      6  C   UNL     1      50.190  17.557  17.693  0.00  0.00    -0.082 A 
ATOM      7  C   UNL     1      49.189  18.337  18.239  0.00  0.00    +0.040 A 
ATOM      8  C   UNL     1      48.052  17.743  18.755  0.00  0.00    -0.091 A 
ATOM     24  C   UNL     1      47.914  16.368  18.725  0.00  0.00    +0.052 A 
ATOM     25  C   UNL     1      48.912  15.584  18.180  0.00  0.00    -0.092 A 
ATOM     31  C   UNL     1      50.052  16.177  17.657  0.00  0.00    +0.111 A 
ENDROOT
BRANCH   8   9
ATOM      9  C   UNL     1      46.962  18.597  19.350  0.00  0.00    +0.238 C 
ATOM     10  C   UNL     1      46.515  19.647  18.322  0.00  0.00    +0.038 C 
ATOM     11  C   UNL     1      45.397  20.451  18.960  0.00  0.00    +0.399 C 
ATOM     12  C   UNL     1      44.422  19.702  19.759  0.00  0.00    -0.293 A 
ATOM     13  C   UNL     1      43.223  20.302  20.174  0.00  0.00    +0.221 A 
ATOM     16  C   UNL     1      42.325  19.576  20.937  0.00  0.00    -0.074 A 
ATOM     17  C   UNL     1      42.612  18.262  21.285  0.00  0.00    +0.198 A 
ATOM     20  C   UNL     1      43.794  17.661  20.874  0.00  0.00    -0.053 A 
ATOM     21  C   UNL     1      44.705  18.368  20.108  0.00  0.00    +0.215 A 
ATOM     22  O   UNL     1      45.314  21.654  18.816  0.00  0.00    -0.425 OA
ATOM     23  O   UNL     1      45.850  17.773  19.699  0.00  0.00    -0.296 OA
BRANCH  13  14
ATOM     14  O   UNL     1      42.946  21.584  19.830  0.00  0.00    -0.476 OA
ATOM     15  H   UNL     1      43.671  22.035  19.375  0.00  0.00    +0.400 HD
ENDBRANCH  13  14
BRANCH  17  18
ATOM     18  O   UNL     1      41.728  17.559  22.037  0.00  0.00    -0.490 OA
ATOM     19  H   UNL     1      40.864  17.984  22.129  0.00  0.00    +0.403 HD
ENDBRANCH  17  18
ENDBRANCH   8   9
BRANCH  31  32
ATOM     32  O   UNL     1      51.031  15.408  17.115  0.00  0.00    -0.329 OA
ATOM     33  C   UNL     1      52.027  14.901  18.005  0.00  0.00    +0.224 C 
ENDBRANCH  31  32
BRANCH   6   5
ATOM      5  C   UNL     1      51.430  18.205  17.132  0.00  0.00    +0.117 C 
BRANCH   5   4
ATOM      1  C   UNL     1      51.480  21.019  16.971  0.00  0.00    +0.074 C 
ATOM      2  C   UNL     1      52.177  20.315  18.106  0.00  0.00    -0.125 C 
ATOM      3  C   UNL     1      52.953  21.112  19.124  0.00  0.00    +0.074 C 
ATOM      4  C   UNL     1      52.108  19.011  18.210  0.00  0.00    -0.057 C 
ENDBRANCH   5   4
ENDBRANCH   6   5
BRANCH  25  26
ATOM     26  C   UNL     1      48.760  14.084  18.148  0.00  0.00    +0.111 C 
BRANCH  26  27
ATOM     27  C   UNL     1      47.454  13.726  17.485  0.00  0.00    -0.042 C 
ATOM     28  C   UNL     1      47.009  12.495  17.538  0.00  0.00    -0.131 C 
ATOM     29  C   UNL     1      45.641  12.165  16.999  0.00  0.00    +0.073 C 
ATOM     30  C   UNL     1      47.864  11.409  18.137  0.00  0.00    +0.071 C 
ENDBRANCH  26  27
ENDBRANCH  25  26
TORSDOF 8
ENDMDL
