MODEL 1
REMARK VINA RESULT:      -6.6      0.000      0.000
REMARK  Name = ZINC95486183
REMARK  25 active torsions:
REMARK  status: ('A' for Active; 'I' for Inactive)
REMARK    1  A    between atoms: C1_1  and  C2_2
REMARK    2  A    between atoms: C6_6  and  O1_8
REMARK    3  A    between atoms: C12_14  and  O4_18
REMARK    4  A    between atoms: C14_16  and  O3_17
REMARK    5  A    between atoms: O4_18  and  C15_19
REMARK    6  A    between atoms: C15_19  and  C16_20
REMARK    7  A    between atoms: C17_21  and  C18_22
REMARK    8  A    between atoms: C17_21  and  C19_23
REMARK    9  A    between atoms: C19_23  and  C20_24
REMARK   10  A    between atoms: C20_24  and  C21_25
REMARK   11  A    between atoms: C22_26  and  C23_27
REMARK   12  A    between atoms: C22_26  and  C24_28
REMARK   13  A    between atoms: C25_29  and  C26_31
REMARK   14  A    between atoms: C29_35  and  C50_60
REMARK   15  A    between atoms: C31_37  and  O8_59
REMARK   16  A    between atoms: C37_44  and  O7_58
REMARK   17  A    between atoms: C38_45  and  C40_48
REMARK   18  A    between atoms: C39_46  and  O6_47
REMARK   19  A    between atoms: C40_48  and  C41_49
REMARK   20  A    between atoms: C42_50  and  C43_51
REMARK   21  A    between atoms: C42_50  and  C44_52
REMARK   22  A    between atoms: C44_52  and  C45_53
REMARK   23  A    between atoms: C45_53  and  C46_54
REMARK   24  A    between atoms: C47_55  and  C48_56
REMARK   25  A    between atoms: C47_55  and  C49_57
REMARK                            x       y       z     vdW  Elec       q    Type
REMARK                         _______ _______ _______ _____ _____    ______ ____
ROOT
ATOM     31  C   UNL     1      50.484  14.009  19.036  0.00  0.00    +0.111 C 
ATOM     32  C   UNL     1      51.856  14.160  19.620  0.00  0.00    -0.025 A 
ATOM     33  C   UNL     1      52.863  13.314  19.193  0.00  0.00    +0.015 A 
ATOM     34  C   UNL     1      54.143  13.429  19.702  0.00  0.00    -0.039 A 
ATOM     35  C   UNL     1      55.225  12.495  19.223  0.00  0.00    +0.098 C 
ATOM     36  C   UNL     1      54.442  14.393  20.646  0.00  0.00    -0.016 A 
ATOM     37  C   UNL     1      53.446  15.249  21.092  0.00  0.00    +0.169 A 
ATOM     40  C   UNL     1      52.149  15.128  20.580  0.00  0.00    -0.183 A 
ATOM     41  C   UNL     1      51.076  16.019  21.068  0.00  0.00    +0.443 C 
ATOM     42  C   UNL     1      49.680  15.607  20.831  0.00  0.00    -0.186 A 
ATOM     43  C   UNL     1      48.642  16.184  21.577  0.00  0.00    +0.185 A 
ATOM     46  C   UNL     1      47.342  15.787  21.361  0.00  0.00    -0.131 A 
ATOM     57  C   UNL     1      47.074  14.817  20.405  0.00  0.00    +0.163 A 
ATOM     60  C   UNL     1      48.105  14.253  19.664  0.00  0.00    -0.008 A 
ATOM     61  O   UNL     1      51.335  17.058  21.648  0.00  0.00    -0.424 OA
ATOM     62  C   UNL     1      49.405  14.640  19.864  0.00  0.00    -0.018 A 
ENDROOT
BRANCH  31  30
ATOM      1  C   UNL     1      51.558  10.648  14.886  0.00  0.00    +0.102 C 
ATOM      2  C   UNL     1      50.557  11.685  15.326  0.00  0.00    -0.040 A 
ATOM      3  C   UNL     1      50.932  12.658  16.235  0.00  0.00    +0.014 A 
ATOM      4  C   UNL     1      50.029  13.621  16.650  0.00  0.00    -0.025 A 
ATOM      5  C   UNL     1      48.733  13.601  16.133  0.00  0.00    -0.181 A 
ATOM      6  C   UNL     1      47.765  14.636  16.548  0.00  0.00    +0.439 C 
ATOM      7  C   UNL     1      48.295  15.859  17.180  0.00  0.00    -0.224 A 
ATOM      8  C   UNL     1      49.596  15.865  17.688  0.00  0.00    +0.012 A 
ATOM      9  C   UNL     1      50.085  17.014  18.255  0.00  0.00    -0.017 A 
ATOM     10  C   UNL     1      49.299  18.157  18.336  0.00  0.00    +0.194 A 
ATOM     22  C   UNL     1      48.001  18.157  17.845  0.00  0.00    -0.109 A 
ATOM     23  C   UNL     1      47.492  17.007  17.264  0.00  0.00    +0.210 A 
ATOM     26  O   UNL     1      46.570  14.485  16.374  0.00  0.00    -0.422 OA
ATOM     27  C   UNL     1      48.352  12.613  15.215  0.00  0.00    +0.167 A 
ATOM     30  C   UNL     1      50.471  14.649  17.646  0.00  0.00    +0.112 C 
ATOM     63  C   UNL     1      49.276  11.660  14.811  0.00  0.00    -0.015 A 
BRANCH  23  24
ATOM     24  O   UNL     1      46.226  16.991  16.779  0.00  0.00    -0.482 OA
ATOM     25  H   UNL     1      45.756  16.160  16.935  0.00  0.00    +0.402 HD
ENDBRANCH  23  24
BRANCH  27  28
ATOM     28  O   UNL     1      47.089  12.593  14.721  0.00  0.00    -0.478 OA
ATOM     29  H   UNL     1      47.031  12.806  13.780  0.00  0.00    +0.395 HD
ENDBRANCH  27  28
BRANCH  10  11
ATOM     11  O   UNL     1      49.804  19.283  18.901  0.00  0.00    -0.290 OA
BRANCH  11  12
ATOM     12  C   UNL     1      49.849  19.329  20.329  0.00  0.00    +0.234 C 
BRANCH  12  13
ATOM     13  C   UNL     1      48.692  20.149  20.841  0.00  0.00    -0.052 C 
ATOM     14  C   UNL     1      48.909  21.138  21.673  0.00  0.00    -0.093 C 
ATOM     21  C   UNL     1      50.288  21.357  22.240  0.00  0.00    +0.077 C 
BRANCH  14  15
ATOM     15  C   UNL     1      47.779  22.056  22.062  0.00  0.00    +0.068 C 
BRANCH  15  16
ATOM     16  C   UNL     1      46.450  21.452  21.606  0.00  0.00    +0.054 C 
BRANCH  16  17
ATOM     17  C   UNL     1      45.560  22.544  21.072  0.00  0.00    -0.062 C 
ATOM     18  C   UNL     1      45.269  22.586  19.795  0.00  0.00    -0.131 C 
ATOM     19  C   UNL     1      44.378  23.678  19.261  0.00  0.00    +0.072 C 
ATOM     20  C   UNL     1      45.825  21.543  18.861  0.00  0.00    +0.072 C 
ENDBRANCH  16  17
ENDBRANCH  15  16
ENDBRANCH  14  15
ENDBRANCH  12  13
ENDBRANCH  11  12
ENDBRANCH  10  11
ENDBRANCH  31  30
BRANCH  37  38
ATOM     38  O   UNL     1      53.729  16.199  22.018  0.00  0.00    -0.482 OA
ATOM     39  H   UNL     1      53.018  16.841  22.153  0.00  0.00    +0.398 HD
ENDBRANCH  37  38
BRANCH  43  44
ATOM     44  O   UNL     1      48.917  17.134  22.505  0.00  0.00    -0.473 OA
ATOM     45  H   UNL     1      49.838  17.143  22.799  0.00  0.00    +0.395 HD
ENDBRANCH  43  44
BRANCH  57  58
ATOM     58  O   UNL     1      45.794  14.417  20.191  0.00  0.00    -0.483 OA
ATOM     59  H   UNL     1      45.470  13.773  20.836  0.00  0.00    +0.392 HD
ENDBRANCH  57  58
BRANCH  46  47
ATOM     47  C   UNL     1      46.218  16.398  22.158  0.00  0.00    +0.130 C 
BRANCH  47  48
ATOM     48  C   UNL     1      45.712  17.629  21.452  0.00  0.00    -0.058 C 
ATOM     49  C   UNL     1      44.441  17.941  21.508  0.00  0.00    -0.112 C 
ATOM     56  C   UNL     1      43.465  17.008  22.177  0.00  0.00    +0.075 C 
BRANCH  49  50
ATOM     50  C   UNL     1      43.954  19.232  20.903  0.00  0.00    +0.057 C 
BRANCH  50  51
ATOM     51  C   UNL     1      42.806  18.941  19.934  0.00  0.00    +0.055 C 
BRANCH  51  52
ATOM     52  C   UNL     1      42.511  20.175  19.120  0.00  0.00    -0.059 C 
ATOM     53  C   UNL     1      41.340  20.756  19.213  0.00  0.00    -0.134 C 
ATOM     54  C   UNL     1      41.080  22.047  18.482  0.00  0.00    +0.071 C 
ATOM     55  C   UNL     1      40.254  20.132  20.051  0.00  0.00    +0.071 C 
ENDBRANCH  51  52
ENDBRANCH  50  51
ENDBRANCH  49  50
ENDBRANCH  47  48
ENDBRANCH  46  47
TORSDOF 17
ENDMDL
MODEL 2
REMARK VINA RESULT:      -6.5      1.827      6.204
REMARK  Name = ZINC95486183
REMARK  25 active torsions:
REMARK  status: ('A' for Active; 'I' for Inactive)
REMARK    1  A    between atoms: C1_1  and  C2_2
REMARK    2  A    between atoms: C6_6  and  O1_8
REMARK    3  A    between atoms: C12_14  and  O4_18
REMARK    4  A    between atoms: C14_16  and  O3_17
REMARK    5  A    between atoms: O4_18  and  C15_19
REMARK    6  A    between atoms: C15_19  and  C16_20
REMARK    7  A    between atoms: C17_21  and  C18_22
REMARK    8  A    between atoms: C17_21  and  C19_23
REMARK    9  A    between atoms: C19_23  and  C20_24
REMARK   10  A    between atoms: C20_24  and  C21_25
REMARK   11  A    between atoms: C22_26  and  C23_27
REMARK   12  A    between atoms: C22_26  and  C24_28
REMARK   13  A    between atoms: C25_29  and  C26_31
REMARK   14  A    between atoms: C29_35  and  C50_60
REMARK   15  A    between atoms: C31_37  and  O8_59
REMARK   16  A    between atoms: C37_44  and  O7_58
REMARK   17  A    between atoms: C38_45  and  C40_48
REMARK   18  A    between atoms: C39_46  and  O6_47
REMARK   19  A    between atoms: C40_48  and  C41_49
REMARK   20  A    between atoms: C42_50  and  C43_51
REMARK   21  A    between atoms: C42_50  and  C44_52
REMARK   22  A    between atoms: C44_52  and  C45_53
REMARK   23  A    between atoms: C45_53  and  C46_54
REMARK   24  A    between atoms: C47_55  and  C48_56
REMARK   25  A    between atoms: C47_55  and  C49_57
REMARK                            x       y       z     vdW  Elec       q    Type
REMARK                         _______ _______ _______ _____ _____    ______ ____
ROOT
ATOM     31  C   UNL     1      49.390  16.482  19.959  0.00  0.00    +0.111 C 
ATOM     32  C   UNL     1      49.052  15.712  18.718  0.00  0.00    -0.025 A 
ATOM     33  C   UNL     1      49.805  14.597  18.395  0.00  0.00    +0.015 A 
ATOM     34  C   UNL     1      49.518  13.856  17.264  0.00  0.00    -0.039 A 
ATOM     35  C   UNL     1      50.352  12.646  16.931  0.00  0.00    +0.098 C 
ATOM     36  C   UNL     1      48.472  14.213  16.435  0.00  0.00    -0.016 A 
ATOM     37  C   UNL     1      47.706  15.329  16.737  0.00  0.00    +0.169 A 
ATOM     40  C   UNL     1      48.001  16.083  17.880  0.00  0.00    -0.183 A 
ATOM     41  C   UNL     1      47.207  17.288  18.196  0.00  0.00    +0.443 C 
ATOM     42  C   UNL     1      47.786  18.263  19.138  0.00  0.00    -0.186 A 
ATOM     43  C   UNL     1      47.284  19.573  19.189  0.00  0.00    +0.185 A 
ATOM     46  C   UNL     1      47.836  20.483  20.061  0.00  0.00    -0.131 A 
ATOM     57  C   UNL     1      48.886  20.094  20.881  0.00  0.00    +0.163 A 
ATOM     60  C   UNL     1      49.375  18.795  20.832  0.00  0.00    -0.008 A 
ATOM     61  O   UNL     1      46.113  17.471  17.695  0.00  0.00    -0.424 OA
ATOM     62  C   UNL     1      48.835  17.874  19.972  0.00  0.00    -0.018 A 
ENDROOT
BRANCH  31  30
ATOM      1  C   UNL     1      44.274  17.701  21.373  0.00  0.00    +0.102 C 
ATOM      2  C   UNL     1      45.161  16.516  21.090  0.00  0.00    -0.040 A 
ATOM      3  C   UNL     1      46.530  16.631  21.250  0.00  0.00    +0.014 A 
ATOM      4  C   UNL     1      47.363  15.555  20.997  0.00  0.00    -0.025 A 
ATOM      5  C   UNL     1      46.799  14.347  20.584  0.00  0.00    -0.181 A 
ATOM      6  C   UNL     1      47.672  13.183  20.333  0.00  0.00    +0.439 C 
ATOM      7  C   UNL     1      49.038  13.214  20.889  0.00  0.00    -0.224 A 
ATOM      8  C   UNL     1      49.586  14.431  21.304  0.00  0.00    +0.012 A 
ATOM      9  C   UNL     1      50.849  14.446  21.837  0.00  0.00    -0.017 A 
ATOM     10  C   UNL     1      51.584  13.273  21.958  0.00  0.00    +0.194 A 
ATOM     22  C   UNL     1      51.053  12.062  21.537  0.00  0.00    -0.109 A 
ATOM     23  C   UNL     1      49.777  12.026  21.000  0.00  0.00    +0.210 A 
ATOM     26  O   UNL     1      47.278  12.228  19.689  0.00  0.00    -0.422 OA
ATOM     27  C   UNL     1      45.413  14.232  20.417  0.00  0.00    +0.167 A 
ATOM     30  C   UNL     1      48.841  15.725  21.169  0.00  0.00    +0.112 C 
ATOM     63  C   UNL     1      44.598  15.324  20.680  0.00  0.00    -0.015 A 
BRANCH  23  24
ATOM     24  O   UNL     1      49.244  10.851  20.584  0.00  0.00    -0.482 OA
ATOM     25  H   UNL     1      49.558  10.081  21.077  0.00  0.00    +0.402 HD
ENDBRANCH  23  24
BRANCH  27  28
ATOM     28  O   UNL     1      44.871  13.058  20.007  0.00  0.00    -0.478 OA
ATOM     29  H   UNL     1      43.918  13.099  19.848  0.00  0.00    +0.395 HD
ENDBRANCH  27  28
BRANCH  10  11
ATOM     11  O   UNL     1      52.832  13.312  22.490  0.00  0.00    -0.290 OA
BRANCH  11  12
ATOM     12  C   UNL     1      53.928  13.331  21.573  0.00  0.00    +0.234 C 
BRANCH  12  13
ATOM     13  C   UNL     1      54.159  14.742  21.095  0.00  0.00    -0.052 C 
ATOM     14  C   UNL     1      53.746  15.108  19.907  0.00  0.00    -0.093 C 
ATOM     21  C   UNL     1      53.184  14.082  18.956  0.00  0.00    +0.077 C 
BRANCH  14  15
ATOM     15  C   UNL     1      53.833  16.553  19.490  0.00  0.00    +0.068 C 
BRANCH  15  16
ATOM     16  C   UNL     1      52.656  16.892  18.573  0.00  0.00    +0.054 C 
BRANCH  16  17
ATOM     17  C   UNL     1      52.364  18.368  18.657  0.00  0.00    -0.062 C 
ATOM     18  C   UNL     1      51.570  18.929  17.780  0.00  0.00    -0.131 C 
ATOM     19  C   UNL     1      51.277  20.405  17.864  0.00  0.00    +0.072 C 
ATOM     20  C   UNL     1      50.950  18.100  16.685  0.00  0.00    +0.072 C 
ENDBRANCH  16  17
ENDBRANCH  15  16
ENDBRANCH  14  15
ENDBRANCH  12  13
ENDBRANCH  11  12
ENDBRANCH  10  11
ENDBRANCH  31  30
BRANCH  37  38
ATOM     38  O   UNL     1      46.676  15.689  15.931  0.00  0.00    -0.482 OA
ATOM     39  H   UNL     1      45.970  15.029  15.876  0.00  0.00    +0.398 HD
ENDBRANCH  37  38
BRANCH  43  44
ATOM     44  O   UNL     1      46.255  19.939  18.385  0.00  0.00    -0.473 OA
ATOM     45  H   UNL     1      45.491  19.349  18.429  0.00  0.00    +0.395 HD
ENDBRANCH  43  44
BRANCH  57  58
ATOM     58  O   UNL     1      49.438  20.990  21.739  0.00  0.00    -0.483 OA
ATOM     59  H   UNL     1      49.995  20.590  22.421  0.00  0.00    +0.392 HD
ENDBRANCH  57  58
BRANCH  46  47
ATOM     47  C   UNL     1      47.307  21.893  20.123  0.00  0.00    +0.130 C 
BRANCH  47  48
ATOM     48  C   UNL     1      45.805  21.872  20.020  0.00  0.00    -0.058 C 
ATOM     49  C   UNL     1      45.109  22.926  20.368  0.00  0.00    -0.112 C 
ATOM     56  C   UNL     1      45.800  24.116  20.982  0.00  0.00    +0.075 C 
BRANCH  49  50
ATOM     50  C   UNL     1      43.617  22.948  20.155  0.00  0.00    +0.057 C 
BRANCH  50  51
ATOM     51  C   UNL     1      43.171  21.628  19.525  0.00  0.00    +0.055 C 
BRANCH  51  52
ATOM     52  C   UNL     1      41.834  21.817  18.854  0.00  0.00    -0.059 C 
ATOM     53  C   UNL     1      40.885  20.930  19.024  0.00  0.00    -0.134 C 
ATOM     54  C   UNL     1      39.516  21.171  18.442  0.00  0.00    +0.071 C 
ATOM     55  C   UNL     1      41.162  19.670  19.802  0.00  0.00    +0.071 C 
ENDBRANCH  51  52
ENDBRANCH  50  51
ENDBRANCH  49  50
ENDBRANCH  47  48
ENDBRANCH  46  47
TORSDOF 17
ENDMDL
MODEL 3
REMARK VINA RESULT:      -6.4      1.669      3.213
REMARK  Name = ZINC95486183
REMARK  25 active torsions:
REMARK  status: ('A' for Active; 'I' for Inactive)
REMARK    1  A    between atoms: C1_1  and  C2_2
REMARK    2  A    between atoms: C6_6  and  O1_8
REMARK    3  A    between atoms: C12_14  and  O4_18
REMARK    4  A    between atoms: C14_16  and  O3_17
REMARK    5  A    between atoms: O4_18  and  C15_19
REMARK    6  A    between atoms: C15_19  and  C16_20
REMARK    7  A    between atoms: C17_21  and  C18_22
REMARK    8  A    between atoms: C17_21  and  C19_23
REMARK    9  A    between atoms: C19_23  and  C20_24
REMARK   10  A    between atoms: C20_24  and  C21_25
REMARK   11  A    between atoms: C22_26  and  C23_27
REMARK   12  A    between atoms: C22_26  and  C24_28
REMARK   13  A    between atoms: C25_29  and  C26_31
REMARK   14  A    between atoms: C29_35  and  C50_60
REMARK   15  A    between atoms: C31_37  and  O8_59
REMARK   16  A    between atoms: C37_44  and  O7_58
REMARK   17  A    between atoms: C38_45  and  C40_48
REMARK   18  A    between atoms: C39_46  and  O6_47
REMARK   19  A    between atoms: C40_48  and  C41_49
REMARK   20  A    between atoms: C42_50  and  C43_51
REMARK   21  A    between atoms: C42_50  and  C44_52
REMARK   22  A    between atoms: C44_52  and  C45_53
REMARK   23  A    between atoms: C45_53  and  C46_54
REMARK   24  A    between atoms: C47_55  and  C48_56
REMARK   25  A    between atoms: C47_55  and  C49_57
REMARK                            x       y       z     vdW  Elec       q    Type
REMARK                         _______ _______ _______ _____ _____    ______ ____
ROOT
ATOM     31  C   UNL     1      50.512  13.103  19.143  0.00  0.00    +0.111 C 
ATOM     32  C   UNL     1      51.781  13.368  19.894  0.00  0.00    -0.025 A 
ATOM     33  C   UNL     1      52.905  12.617  19.597  0.00  0.00    +0.015 A 
ATOM     34  C   UNL     1      54.096  12.839  20.263  0.00  0.00    -0.039 A 
ATOM     35  C   UNL     1      55.307  12.008  19.924  0.00  0.00    +0.098 C 
ATOM     36  C   UNL     1      54.188  13.815  21.236  0.00  0.00    -0.016 A 
ATOM     37  C   UNL     1      53.073  14.578  21.552  0.00  0.00    +0.169 A 
ATOM     40  C   UNL     1      51.865  14.348  20.882  0.00  0.00    -0.183 A 
ATOM     41  C   UNL     1      50.666  15.137  21.231  0.00  0.00    +0.443 C 
ATOM     42  C   UNL     1      49.353  14.606  20.820  0.00  0.00    -0.186 A 
ATOM     43  C   UNL     1      48.182  15.084  21.430  0.00  0.00    +0.185 A 
ATOM     46  C   UNL     1      46.959  14.576  21.053  0.00  0.00    -0.131 A 
ATOM     57  C   UNL     1      46.899  13.596  20.073  0.00  0.00    +0.163 A 
ATOM     60  C   UNL     1      48.060  13.131  19.468  0.00  0.00    -0.008 A 
ATOM     61  O   UNL     1      50.758  16.189  21.837  0.00  0.00    -0.424 OA
ATOM     62  C   UNL     1      49.287  13.629  19.828  0.00  0.00    -0.018 A 
ENDROOT
BRANCH  31  30
ATOM      1  C   UNL     1      53.678  10.505  15.551  0.00  0.00    +0.102 C 
ATOM      2  C   UNL     1      52.301  11.105  15.682  0.00  0.00    -0.040 A 
ATOM      3  C   UNL     1      52.077  12.110  16.605  0.00  0.00    +0.014 A 
ATOM      4  C   UNL     1      50.821  12.676  16.740  0.00  0.00    -0.025 A 
ATOM      5  C   UNL     1      49.784  12.223  15.925  0.00  0.00    -0.181 A 
ATOM      6  C   UNL     1      48.444  12.833  16.040  0.00  0.00    +0.439 C 
ATOM      7  C   UNL     1      48.339  14.138  16.720  0.00  0.00    -0.224 A 
ATOM      8  C   UNL     1      49.389  14.581  17.529  0.00  0.00    +0.012 A 
ATOM      9  C   UNL     1      49.289  15.804  18.140  0.00  0.00    -0.017 A 
ATOM     10  C   UNL     1      48.158  16.594  17.970  0.00  0.00    +0.194 A 
ATOM     22  C   UNL     1      47.106  16.157  17.179  0.00  0.00    -0.109 A 
ATOM     23  C   UNL     1      47.191  14.926  16.549  0.00  0.00    +0.210 A 
ATOM     26  O   UNL     1      47.459  12.279  15.589  0.00  0.00    -0.422 OA
ATOM     27  C   UNL     1      50.010  11.202  14.992  0.00  0.00    +0.167 A 
ATOM     30  C   UNL     1      50.616  13.753  17.762  0.00  0.00    +0.112 C 
ATOM     63  C   UNL     1      51.278  10.651  14.873  0.00  0.00    -0.015 A 
BRANCH  23  24
ATOM     24  O   UNL     1      46.170  14.485  15.773  0.00  0.00    -0.482 OA
ATOM     25  H   UNL     1      46.329  13.621  15.368  0.00  0.00    +0.402 HD
ENDBRANCH  23  24
BRANCH  27  28
ATOM     28  O   UNL     1      48.997  10.758  14.207  0.00  0.00    -0.478 OA
ATOM     29  H   UNL     1      48.234  10.426  14.699  0.00  0.00    +0.395 HD
ENDBRANCH  27  28
BRANCH  10  11
ATOM     11  O   UNL     1      48.082  17.802  18.584  0.00  0.00    -0.290 OA
BRANCH  11  12
ATOM     12  C   UNL     1      49.157  18.155  19.457  0.00  0.00    +0.234 C 
BRANCH  12  13
ATOM     13  C   UNL     1      49.757  19.464  19.011  0.00  0.00    -0.052 C 
ATOM     14  C   UNL     1      50.644  20.068  19.763  0.00  0.00    -0.093 C 
ATOM     21  C   UNL     1      50.945  19.541  21.143  0.00  0.00    +0.077 C 
BRANCH  14  15
ATOM     15  C   UNL     1      51.361  21.290  19.250  0.00  0.00    +0.068 C 
BRANCH  15  16
ATOM     16  C   UNL     1      52.711  20.879  18.660  0.00  0.00    +0.054 C 
BRANCH  16  17
ATOM     17  C   UNL     1      52.527  19.673  17.777  0.00  0.00    -0.062 C 
ATOM     18  C   UNL     1      52.126  19.824  16.539  0.00  0.00    -0.131 C 
ATOM     19  C   UNL     1      51.943  18.617  15.654  0.00  0.00    +0.072 C 
ATOM     20  C   UNL     1      51.849  21.203  15.998  0.00  0.00    +0.072 C 
ENDBRANCH  16  17
ENDBRANCH  15  16
ENDBRANCH  14  15
ENDBRANCH  12  13
ENDBRANCH  11  12
ENDBRANCH  10  11
ENDBRANCH  31  30
BRANCH  37  38
ATOM     38  O   UNL     1      53.153  15.539  22.505  0.00  0.00    -0.482 OA
ATOM     39  H   UNL     1      53.345  16.422  22.159  0.00  0.00    +0.398 HD
ENDBRANCH  37  38
BRANCH  43  44
ATOM     44  O   UNL     1      48.254  16.045  22.385  0.00  0.00    -0.473 OA
ATOM     45  H   UNL     1      49.156  16.273  22.647  0.00  0.00    +0.395 HD
ENDBRANCH  43  44
BRANCH  57  58
ATOM     58  O   UNL     1      45.697  13.088  19.701  0.00  0.00    -0.483 OA
ATOM     59  H   UNL     1      45.673  12.122  19.661  0.00  0.00    +0.392 HD
ENDBRANCH  57  58
BRANCH  46  47
ATOM     47  C   UNL     1      45.695  15.078  21.702  0.00  0.00    +0.130 C 
BRANCH  47  48
ATOM     48  C   UNL     1      45.292  16.386  21.072  0.00  0.00    -0.058 C 
ATOM     49  C   UNL     1      44.215  17.007  21.484  0.00  0.00    -0.112 C 
ATOM     56  C   UNL     1      43.314  16.358  22.504  0.00  0.00    +0.075 C 
BRANCH  49  50
ATOM     50  C   UNL     1      43.875  18.369  20.939  0.00  0.00    +0.057 C 
BRANCH  50  51
ATOM     51  C   UNL     1      44.992  18.840  20.005  0.00  0.00    +0.055 C 
BRANCH  51  52
ATOM     52  C   UNL     1      45.936  19.736  20.764  0.00  0.00    -0.059 C 
ATOM     53  C   UNL     1      46.507  20.749  20.158  0.00  0.00    -0.134 C 
ATOM     54  C   UNL     1      47.368  21.706  20.940  0.00  0.00    +0.071 C 
ATOM     55  C   UNL     1      46.303  20.954  18.679  0.00  0.00    +0.071 C 
ENDBRANCH  51  52
ENDBRANCH  50  51
ENDBRANCH  49  50
ENDBRANCH  47  48
ENDBRANCH  46  47
TORSDOF 17
ENDMDL
MODEL 4
REMARK VINA RESULT:      -6.3      2.080      7.036
REMARK  Name = ZINC95486183
REMARK  25 active torsions:
REMARK  status: ('A' for Active; 'I' for Inactive)
REMARK    1  A    between atoms: C1_1  and  C2_2
REMARK    2  A    between atoms: C6_6  and  O1_8
REMARK    3  A    between atoms: C12_14  and  O4_18
REMARK    4  A    between atoms: C14_16  and  O3_17
REMARK    5  A    between atoms: O4_18  and  C15_19
REMARK    6  A    between atoms: C15_19  and  C16_20
REMARK    7  A    between atoms: C17_21  and  C18_22
REMARK    8  A    between atoms: C17_21  and  C19_23
REMARK    9  A    between atoms: C19_23  and  C20_24
REMARK   10  A    between atoms: C20_24  and  C21_25
REMARK   11  A    between atoms: C22_26  and  C23_27
REMARK   12  A    between atoms: C22_26  and  C24_28
REMARK   13  A    between atoms: C25_29  and  C26_31
REMARK   14  A    between atoms: C29_35  and  C50_60
REMARK   15  A    between atoms: C31_37  and  O8_59
REMARK   16  A    between atoms: C37_44  and  O7_58
REMARK   17  A    between atoms: C38_45  and  C40_48
REMARK   18  A    between atoms: C39_46  and  O6_47
REMARK   19  A    between atoms: C40_48  and  C41_49
REMARK   20  A    between atoms: C42_50  and  C43_51
REMARK   21  A    between atoms: C42_50  and  C44_52
REMARK   22  A    between atoms: C44_52  and  C45_53
REMARK   23  A    between atoms: C45_53  and  C46_54
REMARK   24  A    between atoms: C47_55  and  C48_56
REMARK   25  A    between atoms: C47_55  and  C49_57
REMARK                            x       y       z     vdW  Elec       q    Type
REMARK                         _______ _______ _______ _____ _____    ______ ____
ROOT
ATOM     31  C   UNL     1      48.292  17.895  19.723  0.00  0.00    +0.111 C 
ATOM     32  C   UNL     1      49.510  18.306  18.951  0.00  0.00    -0.025 A 
ATOM     33  C   UNL     1      49.834  19.649  18.878  0.00  0.00    +0.015 A 
ATOM     34  C   UNL     1      50.954  20.066  18.183  0.00  0.00    -0.039 A 
ATOM     35  C   UNL     1      51.287  21.535  18.115  0.00  0.00    +0.098 C 
ATOM     36  C   UNL     1      51.773  19.150  17.551  0.00  0.00    -0.016 A 
ATOM     37  C   UNL     1      51.465  17.799  17.609  0.00  0.00    +0.169 A 
ATOM     40  C   UNL     1      50.326  17.378  18.308  0.00  0.00    -0.183 A 
ATOM     41  C   UNL     1      49.976  15.943  18.352  0.00  0.00    +0.443 C 
ATOM     42  C   UNL     1      48.595  15.586  18.724  0.00  0.00    -0.186 A 
ATOM     43  C   UNL     1      48.096  14.309  18.424  0.00  0.00    +0.185 A 
ATOM     46  C   UNL     1      46.801  13.984  18.761  0.00  0.00    -0.131 A 
ATOM     57  C   UNL     1      46.004  14.926  19.396  0.00  0.00    +0.163 A 
ATOM     60  C   UNL     1      46.504  16.186  19.697  0.00  0.00    -0.008 A 
ATOM     61  O   UNL     1      50.799  15.085  18.090  0.00  0.00    -0.424 OA
ATOM     62  C   UNL     1      47.793  16.526  19.371  0.00  0.00    -0.018 A 
ENDROOT
BRANCH  31  30
ATOM      1  C   UNL     1      50.724  13.433  21.683  0.00  0.00    +0.102 C 
ATOM      2  C   UNL     1      50.866  14.933  21.665  0.00  0.00    -0.040 A 
ATOM      3  C   UNL     1      49.749  15.725  21.466  0.00  0.00    +0.014 A 
ATOM      4  C   UNL     1      49.856  17.104  21.448  0.00  0.00    -0.025 A 
ATOM      5  C   UNL     1      51.109  17.687  21.641  0.00  0.00    -0.181 A 
ATOM      6  C   UNL     1      51.237  19.158  21.649  0.00  0.00    +0.439 C 
ATOM      7  C   UNL     1      50.009  19.954  21.838  0.00  0.00    -0.224 A 
ATOM      8  C   UNL     1      48.762  19.354  21.647  0.00  0.00    +0.012 A 
ATOM      9  C   UNL     1      47.627  20.098  21.845  0.00  0.00    -0.017 A 
ATOM     10  C   UNL     1      47.708  21.433  22.222  0.00  0.00    +0.194 A 
ATOM     22  C   UNL     1      48.943  22.040  22.402  0.00  0.00    -0.109 A 
ATOM     23  C   UNL     1      50.100  21.304  22.211  0.00  0.00    +0.210 A 
ATOM     26  O   UNL     1      52.318  19.697  21.504  0.00  0.00    -0.422 OA
ATOM     27  C   UNL     1      52.241  16.885  21.839  0.00  0.00    +0.167 A 
ATOM     30  C   UNL     1      48.625  17.925  21.216  0.00  0.00    +0.112 C 
ATOM     63  C   UNL     1      52.108  15.504  21.856  0.00  0.00    -0.015 A 
BRANCH  23  24
ATOM     24  O   UNL     1      51.314  21.883  22.383  0.00  0.00    -0.482 OA
ATOM     25  H   UNL     1      51.905  21.791  21.624  0.00  0.00    +0.402 HD
ENDBRANCH  23  24
BRANCH  27  28
ATOM     28  O   UNL     1      53.458  17.456  22.018  0.00  0.00    -0.478 OA
ATOM     29  H   UNL     1      53.476  18.140  22.701  0.00  0.00    +0.395 HD
ENDBRANCH  27  28
BRANCH  10  11
ATOM     11  O   UNL     1      46.572  22.149  22.413  0.00  0.00    -0.290 OA
BRANCH  11  12
ATOM     12  C   UNL     1      46.160  23.009  21.348  0.00  0.00    +0.234 C 
BRANCH  12  13
ATOM     13  C   UNL     1      44.781  22.611  20.885  0.00  0.00    -0.052 C 
ATOM     14  C   UNL     1      44.639  21.856  19.824  0.00  0.00    -0.093 C 
ATOM     21  C   UNL     1      45.837  21.518  18.974  0.00  0.00    +0.077 C 
BRANCH  14  15
ATOM     15  C   UNL     1      43.278  21.327  19.451  0.00  0.00    +0.068 C 
BRANCH  15  16
ATOM     16  C   UNL     1      43.398  19.863  19.026  0.00  0.00    +0.054 C 
BRANCH  16  17
ATOM     17  C   UNL     1      43.701  19.013  20.233  0.00  0.00    -0.062 C 
ATOM     18  C   UNL     1      42.724  18.578  20.989  0.00  0.00    -0.131 C 
ATOM     19  C   UNL     1      43.027  17.728  22.196  0.00  0.00    +0.072 C 
ATOM     20  C   UNL     1      41.298  18.928  20.654  0.00  0.00    +0.072 C 
ENDBRANCH  16  17
ENDBRANCH  15  16
ENDBRANCH  14  15
ENDBRANCH  12  13
ENDBRANCH  11  12
ENDBRANCH  10  11
ENDBRANCH  31  30
BRANCH  37  38
ATOM     38  O   UNL     1      52.262  16.891  16.992  0.00  0.00    -0.482 OA
ATOM     39  H   UNL     1      52.838  17.270  16.314  0.00  0.00    +0.398 HD
ENDBRANCH  37  38
BRANCH  43  44
ATOM     44  O   UNL     1      48.887  13.396  17.806  0.00  0.00    -0.473 OA
ATOM     45  H   UNL     1      48.407  12.782  17.235  0.00  0.00    +0.395 HD
ENDBRANCH  43  44
BRANCH  57  58
ATOM     58  O   UNL     1      44.725  14.612  19.727  0.00  0.00    -0.483 OA
ATOM     59  H   UNL     1      44.420  13.770  19.363  0.00  0.00    +0.392 HD
ENDBRANCH  57  58
BRANCH  46  47
ATOM     47  C   UNL     1      46.253  12.617  18.442  0.00  0.00    +0.130 C 
BRANCH  47  48
ATOM     48  C   UNL     1      46.285  12.398  16.952  0.00  0.00    -0.058 C 
ATOM     49  C   UNL     1      46.775  11.286  16.463  0.00  0.00    -0.112 C 
ATOM     56  C   UNL     1      47.414  10.277  17.382  0.00  0.00    +0.075 C 
BRANCH  49  50
ATOM     50  C   UNL     1      46.701  11.015  14.983  0.00  0.00    +0.057 C 
BRANCH  50  51
ATOM     51  C   UNL     1      47.489  12.087  14.227  0.00  0.00    +0.055 C 
BRANCH  51  52
ATOM     52  C   UNL     1      48.950  11.977  14.578  0.00  0.00    -0.059 C 
ATOM     53  C   UNL     1      49.855  12.502  13.788  0.00  0.00    -0.134 C 
ATOM     54  C   UNL     1      51.307  12.485  14.190  0.00  0.00    +0.071 C 
ATOM     55  C   UNL     1      49.442  13.123  12.479  0.00  0.00    +0.071 C 
ENDBRANCH  51  52
ENDBRANCH  50  51
ENDBRANCH  49  50
ENDBRANCH  47  48
ENDBRANCH  46  47
TORSDOF 17
ENDMDL
MODEL 5
REMARK VINA RESULT:      -5.9      2.143      6.820
REMARK  Name = ZINC95486183
REMARK  25 active torsions:
REMARK  status: ('A' for Active; 'I' for Inactive)
REMARK    1  A    between atoms: C1_1  and  C2_2
REMARK    2  A    between atoms: C6_6  and  O1_8
REMARK    3  A    between atoms: C12_14  and  O4_18
REMARK    4  A    between atoms: C14_16  and  O3_17
REMARK    5  A    between atoms: O4_18  and  C15_19
REMARK    6  A    between atoms: C15_19  and  C16_20
REMARK    7  A    between atoms: C17_21  and  C18_22
REMARK    8  A    between atoms: C17_21  and  C19_23
REMARK    9  A    between atoms: C19_23  and  C20_24
REMARK   10  A    between atoms: C20_24  and  C21_25
REMARK   11  A    between atoms: C22_26  and  C23_27
REMARK   12  A    between atoms: C22_26  and  C24_28
REMARK   13  A    between atoms: C25_29  and  C26_31
REMARK   14  A    between atoms: C29_35  and  C50_60
REMARK   15  A    between atoms: C31_37  and  O8_59
REMARK   16  A    between atoms: C37_44  and  O7_58
REMARK   17  A    between atoms: C38_45  and  C40_48
REMARK   18  A    between atoms: C39_46  and  O6_47
REMARK   19  A    between atoms: C40_48  and  C41_49
REMARK   20  A    between atoms: C42_50  and  C43_51
REMARK   21  A    between atoms: C42_50  and  C44_52
REMARK   22  A    between atoms: C44_52  and  C45_53
REMARK   23  A    between atoms: C45_53  and  C46_54
REMARK   24  A    between atoms: C47_55  and  C48_56
REMARK   25  A    between atoms: C47_55  and  C49_57
REMARK                            x       y       z     vdW  Elec       q    Type
REMARK                         _______ _______ _______ _____ _____    ______ ____
ROOT
ATOM     31  C   UNL     1      48.885  16.771  21.137  0.00  0.00    +0.111 C 
ATOM     32  C   UNL     1      49.824  17.844  21.600  0.00  0.00    -0.025 A 
ATOM     33  C   UNL     1      51.148  17.518  21.835  0.00  0.00    +0.015 A 
ATOM     34  C   UNL     1      52.047  18.482  22.254  0.00  0.00    -0.039 A 
ATOM     35  C   UNL     1      53.484  18.105  22.505  0.00  0.00    +0.098 C 
ATOM     36  C   UNL     1      51.640  19.789  22.445  0.00  0.00    -0.016 A 
ATOM     37  C   UNL     1      50.316  20.136  22.220  0.00  0.00    +0.169 A 
ATOM     40  C   UNL     1      49.406  19.158  21.801  0.00  0.00    -0.183 A 
ATOM     41  C   UNL     1      47.988  19.513  21.584  0.00  0.00    +0.443 C 
ATOM     42  C   UNL     1      47.003  18.416  21.552  0.00  0.00    -0.186 A 
ATOM     43  C   UNL     1      45.639  18.694  21.731  0.00  0.00    +0.185 A 
ATOM     46  C   UNL     1      44.724  17.665  21.714  0.00  0.00    -0.131 A 
ATOM     57  C   UNL     1      45.164  16.363  21.519  0.00  0.00    +0.163 A 
ATOM     60  C   UNL     1      46.515  16.095  21.336  0.00  0.00    -0.008 A 
ATOM     61  O   UNL     1      47.644  20.672  21.437  0.00  0.00    -0.424 OA
ATOM     62  C   UNL     1      47.439  17.108  21.347  0.00  0.00    -0.018 A 
ENDROOT
BRANCH  31  30
ATOM      1  C   UNL     1      49.367  21.245  18.068  0.00  0.00    +0.102 C 
ATOM      2  C   UNL     1      50.057  19.934  18.346  0.00  0.00    -0.040 A 
ATOM      3  C   UNL     1      49.328  18.867  18.839  0.00  0.00    +0.014 A 
ATOM      4  C   UNL     1      49.941  17.654  19.099  0.00  0.00    -0.025 A 
ATOM      5  C   UNL     1      51.308  17.520  18.850  0.00  0.00    -0.181 A 
ATOM      6  C   UNL     1      51.971  16.225  19.100  0.00  0.00    +0.439 C 
ATOM      7  C   UNL     1      51.118  15.028  19.230  0.00  0.00    -0.224 A 
ATOM      8  C   UNL     1      49.751  15.179  19.474  0.00  0.00    +0.012 A 
ATOM      9  C   UNL     1      48.964  14.061  19.573  0.00  0.00    -0.017 A 
ATOM     10  C   UNL     1      49.514  12.791  19.445  0.00  0.00    +0.194 A 
ATOM     22  C   UNL     1      50.873  12.631  19.215  0.00  0.00    -0.109 A 
ATOM     23  C   UNL     1      51.683  13.750  19.107  0.00  0.00    +0.210 A 
ATOM     26  O   UNL     1      53.182  16.147  19.195  0.00  0.00    -0.422 OA
ATOM     27  C   UNL     1      52.047  18.602  18.355  0.00  0.00    +0.167 A 
ATOM     30  C   UNL     1      49.119  16.527  19.645  0.00  0.00    +0.112 C 
ATOM     63  C   UNL     1      51.410  19.808  18.099  0.00  0.00    -0.015 A 
BRANCH  23  24
ATOM     24  O   UNL     1      53.013  13.610  18.883  0.00  0.00    -0.482 OA
ATOM     25  H   UNL     1      53.228  13.229  18.020  0.00  0.00    +0.402 HD
ENDBRANCH  23  24
BRANCH  27  28
ATOM     28  O   UNL     1      53.376  18.470  18.122  0.00  0.00    -0.478 OA
ATOM     29  H   UNL     1      53.617  17.653  17.664  0.00  0.00    +0.395 HD
ENDBRANCH  27  28
BRANCH  10  11
ATOM     11  O   UNL     1      48.716  11.698  19.546  0.00  0.00    -0.290 OA
BRANCH  11  12
ATOM     12  C   UNL     1      47.411  11.792  18.970  0.00  0.00    +0.234 C 
BRANCH  12  13
ATOM     13  C   UNL     1      47.463  11.342  17.532  0.00  0.00    -0.052 C 
ATOM     14  C   UNL     1      47.028  12.132  16.582  0.00  0.00    -0.093 C 
ATOM     21  C   UNL     1      46.332  13.421  16.935  0.00  0.00    +0.077 C 
BRANCH  14  15
ATOM     15  C   UNL     1      47.224  11.752  15.137  0.00  0.00    +0.068 C 
BRANCH  15  16
ATOM     16  C   UNL     1      47.956  12.880  14.407  0.00  0.00    +0.054 C 
BRANCH  16  17
ATOM     17  C   UNL     1      49.288  12.377  13.916  0.00  0.00    -0.062 C 
ATOM     18  C   UNL     1      50.389  12.732  14.530  0.00  0.00    -0.131 C 
ATOM     19  C   UNL     1      51.722  12.229  14.040  0.00  0.00    +0.072 C 
ATOM     20  C   UNL     1      50.323  13.643  15.729  0.00  0.00    +0.072 C 
ENDBRANCH  16  17
ENDBRANCH  15  16
ENDBRANCH  14  15
ENDBRANCH  12  13
ENDBRANCH  11  12
ENDBRANCH  10  11
ENDBRANCH  31  30
BRANCH  37  38
ATOM     38  O   UNL     1      49.906  21.416  22.404  0.00  0.00    -0.482 OA
ATOM     39  H   UNL     1      50.630  22.054  22.479  0.00  0.00    +0.398 HD
ENDBRANCH  37  38
BRANCH  43  44
ATOM     44  O   UNL     1      45.222  19.971  21.917  0.00  0.00    -0.473 OA
ATOM     45  H   UNL     1      44.265  20.088  21.844  0.00  0.00    +0.395 HD
ENDBRANCH  43  44
BRANCH  57  58
ATOM     58  O   UNL     1      44.267  15.344  21.507  0.00  0.00    -0.483 OA
ATOM     59  H   UNL     1      43.344  15.633  21.478  0.00  0.00    +0.392 HD
ENDBRANCH  57  58
BRANCH  46  47
ATOM     47  C   UNL     1      43.257  17.949  21.908  0.00  0.00    +0.130 C 
BRANCH  47  48
ATOM     48  C   UNL     1      42.717  18.657  20.692  0.00  0.00    -0.058 C 
ATOM     49  C   UNL     1      41.535  19.220  20.733  0.00  0.00    -0.112 C 
ATOM     56  C   UNL     1      40.665  19.058  21.953  0.00  0.00    +0.075 C 
BRANCH  49  50
ATOM     50  C   UNL     1      41.044  20.027  19.560  0.00  0.00    +0.057 C 
BRANCH  50  51
ATOM     51  C   UNL     1      42.240  20.554  18.765  0.00  0.00    +0.055 C 
BRANCH  51  52
ATOM     52  C   UNL     1      42.796  21.778  19.446  0.00  0.00    -0.059 C 
ATOM     53  C   UNL     1      44.090  21.986  19.465  0.00  0.00    -0.134 C 
ATOM     54  C   UNL     1      44.639  23.259  20.053  0.00  0.00    +0.071 C 
ATOM     55  C   UNL     1      45.027  20.950  18.901  0.00  0.00    +0.071 C 
ENDBRANCH  51  52
ENDBRANCH  50  51
ENDBRANCH  49  50
ENDBRANCH  47  48
ENDBRANCH  46  47
TORSDOF 17
ENDMDL
MODEL 6
REMARK VINA RESULT:      -5.5      2.186      8.371
REMARK  Name = ZINC95486183
REMARK  25 active torsions:
REMARK  status: ('A' for Active; 'I' for Inactive)
REMARK    1  A    between atoms: C1_1  and  C2_2
REMARK    2  A    between atoms: C6_6  and  O1_8
REMARK    3  A    between atoms: C12_14  and  O4_18
REMARK    4  A    between atoms: C14_16  and  O3_17
REMARK    5  A    between atoms: O4_18  and  C15_19
REMARK    6  A    between atoms: C15_19  and  C16_20
REMARK    7  A    between atoms: C17_21  and  C18_22
REMARK    8  A    between atoms: C17_21  and  C19_23
REMARK    9  A    between atoms: C19_23  and  C20_24
REMARK   10  A    between atoms: C20_24  and  C21_25
REMARK   11  A    between atoms: C22_26  and  C23_27
REMARK   12  A    between atoms: C22_26  and  C24_28
REMARK   13  A    between atoms: C25_29  and  C26_31
REMARK   14  A    between atoms: C29_35  and  C50_60
REMARK   15  A    between atoms: C31_37  and  O8_59
REMARK   16  A    between atoms: C37_44  and  O7_58
REMARK   17  A    between atoms: C38_45  and  C40_48
REMARK   18  A    between atoms: C39_46  and  O6_47
REMARK   19  A    between atoms: C40_48  and  C41_49
REMARK   20  A    between atoms: C42_50  and  C43_51
REMARK   21  A    between atoms: C42_50  and  C44_52
REMARK   22  A    between atoms: C44_52  and  C45_53
REMARK   23  A    between atoms: C45_53  and  C46_54
REMARK   24  A    between atoms: C47_55  and  C48_56
REMARK   25  A    between atoms: C47_55  and  C49_57
REMARK                            x       y       z     vdW  Elec       q    Type
REMARK                         _______ _______ _______ _____ _____    ______ ____
ROOT
ATOM     31  C   UNL     1      48.785  18.948  19.048  0.00  0.00    +0.111 C 
ATOM     32  C   UNL     1      50.247  19.262  19.148  0.00  0.00    -0.025 A 
ATOM     33  C   UNL     1      50.634  20.538  19.516  0.00  0.00    +0.015 A 
ATOM     34  C   UNL     1      51.974  20.862  19.628  0.00  0.00    -0.039 A 
ATOM     35  C   UNL     1      52.373  22.259  20.030  0.00  0.00    +0.098 C 
ATOM     36  C   UNL     1      52.951  19.919  19.374  0.00  0.00    -0.016 A 
ATOM     37  C   UNL     1      52.585  18.634  19.000  0.00  0.00    +0.169 A 
ATOM     40  C   UNL     1      51.228  18.308  18.881  0.00  0.00    -0.183 A 
ATOM     41  C   UNL     1      50.830  16.950  18.457  0.00  0.00    +0.443 C 
ATOM     42  C   UNL     1      49.457  16.764  17.952  0.00  0.00    -0.186 A 
ATOM     43  C   UNL     1      49.136  15.627  17.195  0.00  0.00    +0.185 A 
ATOM     46  C   UNL     1      47.856  15.465  16.714  0.00  0.00    -0.131 A 
ATOM     57  C   UNL     1      46.897  16.430  16.986  0.00  0.00    +0.163 A 
ATOM     60  C   UNL     1      47.218  17.550  17.741  0.00  0.00    -0.008 A 
ATOM     61  O   UNL     1      51.608  16.016  18.521  0.00  0.00    -0.424 OA
ATOM     62  C   UNL     1      48.487  17.727  18.231  0.00  0.00    -0.018 A 
ENDROOT
BRANCH  31  30
ATOM      1  C   UNL     1      46.555  23.337  21.379  0.00  0.00    +0.102 C 
ATOM      2  C   UNL     1      46.266  21.885  21.097  0.00  0.00    -0.040 A 
ATOM      3  C   UNL     1      47.313  21.000  20.918  0.00  0.00    +0.014 A 
ATOM      4  C   UNL     1      47.070  19.662  20.661  0.00  0.00    -0.025 A 
ATOM      5  C   UNL     1      45.750  19.216  20.590  0.00  0.00    -0.181 A 
ATOM      6  C   UNL     1      45.474  17.787  20.340  0.00  0.00    +0.439 C 
ATOM      7  C   UNL     1      46.573  16.826  20.555  0.00  0.00    -0.224 A 
ATOM      8  C   UNL     1      47.889  17.289  20.629  0.00  0.00    +0.012 A 
ATOM      9  C   UNL     1      48.900  16.390  20.849  0.00  0.00    -0.017 A 
ATOM     10  C   UNL     1      48.629  15.034  20.988  0.00  0.00    +0.194 A 
ATOM     22  C   UNL     1      47.326  14.564  20.903  0.00  0.00    -0.109 A 
ATOM     23  C   UNL     1      46.291  15.458  20.687  0.00  0.00    +0.210 A 
ATOM     26  O   UNL     1      44.377  17.414  19.968  0.00  0.00    -0.422 OA
ATOM     27  C   UNL     1      44.689  20.114  20.767  0.00  0.00    +0.167 A 
ATOM     30  C   UNL     1      48.232  18.738  20.460  0.00  0.00    +0.112 C 
ATOM     63  C   UNL     1      44.957  21.450  21.027  0.00  0.00    -0.015 A 
BRANCH  23  24
ATOM     24  O   UNL     1      45.012  15.014  20.602  0.00  0.00    -0.482 OA
ATOM     25  H   UNL     1      44.403  15.451  21.213  0.00  0.00    +0.402 HD
ENDBRANCH  23  24
BRANCH  27  28
ATOM     28  O   UNL     1      43.407  19.677  20.690  0.00  0.00    -0.478 OA
ATOM     29  H   UNL     1      42.983  19.850  19.839  0.00  0.00    +0.395 HD
ENDBRANCH  27  28
BRANCH  10  11
ATOM     11  O   UNL     1      49.645  14.162  21.206  0.00  0.00    -0.290 OA
BRANCH  11  12
ATOM     12  C   UNL     1      50.574  14.494  22.241  0.00  0.00    +0.234 C 
BRANCH  12  13
ATOM     13  C   UNL     1      51.976  14.465  21.686  0.00  0.00    -0.052 C 
ATOM     14  C   UNL     1      52.721  15.542  21.732  0.00  0.00    -0.093 C 
ATOM     21  C   UNL     1      52.128  16.849  22.191  0.00  0.00    +0.077 C 
BRANCH  14  15
ATOM     15  C   UNL     1      54.170  15.474  21.325  0.00  0.00    +0.068 C 
BRANCH  15  16
ATOM     16  C   UNL     1      54.367  14.330  20.328  0.00  0.00    +0.054 C 
BRANCH  16  17
ATOM     17  C   UNL     1      55.559  13.506  20.740  0.00  0.00    -0.062 C 
ATOM     18  C   UNL     1      55.747  12.320  20.217  0.00  0.00    -0.131 C 
ATOM     19  C   UNL     1      56.940  11.495  20.627  0.00  0.00    +0.072 C 
ATOM     20  C   UNL     1      54.771  11.779  19.204  0.00  0.00    +0.072 C 
ENDBRANCH  16  17
ENDBRANCH  15  16
ENDBRANCH  14  15
ENDBRANCH  12  13
ENDBRANCH  11  12
ENDBRANCH  10  11
ENDBRANCH  31  30
BRANCH  37  38
ATOM     38  O   UNL     1      53.536  17.700  18.749  0.00  0.00    -0.482 OA
ATOM     39  H   UNL     1      53.843  17.230  19.537  0.00  0.00    +0.398 HD
ENDBRANCH  37  38
BRANCH  43  44
ATOM     44  O   UNL     1      50.082  14.690  16.940  0.00  0.00    -0.473 OA
ATOM     45  H   UNL     1      49.746  13.783  16.928  0.00  0.00    +0.395 HD
ENDBRANCH  43  44
BRANCH  57  58
ATOM     58  O   UNL     1      45.635  16.277  16.510  0.00  0.00    -0.483 OA
ATOM     59  H   UNL     1      44.974  16.104  17.195  0.00  0.00    +0.392 HD
ENDBRANCH  57  58
BRANCH  46  47
ATOM     47  C   UNL     1      47.500  14.249  15.897  0.00  0.00    +0.130 C 
BRANCH  47  48
ATOM     48  C   UNL     1      47.926  13.006  16.633  0.00  0.00    -0.058 C 
ATOM     49  C   UNL     1      47.061  12.349  17.365  0.00  0.00    -0.112 C 
ATOM     56  C   UNL     1      45.673  12.899  17.567  0.00  0.00    +0.075 C 
BRANCH  49  50
ATOM     50  C   UNL     1      47.454  11.043  18.006  0.00  0.00    +0.057 C 
BRANCH  50  51
ATOM     51  C   UNL     1      48.963  10.837  17.863  0.00  0.00    +0.055 C 
BRANCH  51  52
ATOM     52  C   UNL     1      49.553  10.492  19.207  0.00  0.00    -0.059 C 
ATOM     53  C   UNL     1      50.580  11.166  19.663  0.00  0.00    -0.134 C 
ATOM     54  C   UNL     1      51.104  10.893  21.049  0.00  0.00    +0.071 C 
ATOM     55  C   UNL     1      51.238  12.212  18.801  0.00  0.00    +0.071 C 
ENDBRANCH  51  52
ENDBRANCH  50  51
ENDBRANCH  49  50
ENDBRANCH  47  48
ENDBRANCH  46  47
TORSDOF 17
ENDMDL
MODEL 7
REMARK VINA RESULT:      -5.5      1.914      8.671
REMARK  Name = ZINC95486183
REMARK  25 active torsions:
REMARK  status: ('A' for Active; 'I' for Inactive)
REMARK    1  A    between atoms: C1_1  and  C2_2
REMARK    2  A    between atoms: C6_6  and  O1_8
REMARK    3  A    between atoms: C12_14  and  O4_18
REMARK    4  A    between atoms: C14_16  and  O3_17
REMARK    5  A    between atoms: O4_18  and  C15_19
REMARK    6  A    between atoms: C15_19  and  C16_20
REMARK    7  A    between atoms: C17_21  and  C18_22
REMARK    8  A    between atoms: C17_21  and  C19_23
REMARK    9  A    between atoms: C19_23  and  C20_24
REMARK   10  A    between atoms: C20_24  and  C21_25
REMARK   11  A    between atoms: C22_26  and  C23_27
REMARK   12  A    between atoms: C22_26  and  C24_28
REMARK   13  A    between atoms: C25_29  and  C26_31
REMARK   14  A    between atoms: C29_35  and  C50_60
REMARK   15  A    between atoms: C31_37  and  O8_59
REMARK   16  A    between atoms: C37_44  and  O7_58
REMARK   17  A    between atoms: C38_45  and  C40_48
REMARK   18  A    between atoms: C39_46  and  O6_47
REMARK   19  A    between atoms: C40_48  and  C41_49
REMARK   20  A    between atoms: C42_50  and  C43_51
REMARK   21  A    between atoms: C42_50  and  C44_52
REMARK   22  A    between atoms: C44_52  and  C45_53
REMARK   23  A    between atoms: C45_53  and  C46_54
REMARK   24  A    between atoms: C47_55  and  C48_56
REMARK   25  A    between atoms: C47_55  and  C49_57
REMARK                            x       y       z     vdW  Elec       q    Type
REMARK                         _______ _______ _______ _____ _____    ______ ____
ROOT
ATOM     31  C   UNL     1      48.896  19.583  20.034  0.00  0.00    +0.111 C 
ATOM     32  C   UNL     1      50.142  19.929  20.793  0.00  0.00    -0.025 A 
ATOM     33  C   UNL     1      50.299  21.218  21.270  0.00  0.00    +0.015 A 
ATOM     34  C   UNL     1      51.430  21.573  21.982  0.00  0.00    -0.039 A 
ATOM     35  C   UNL     1      51.581  22.984  22.490  0.00  0.00    +0.098 C 
ATOM     36  C   UNL     1      52.423  20.646  22.233  0.00  0.00    -0.016 A 
ATOM     37  C   UNL     1      52.288  19.349  21.762  0.00  0.00    +0.169 A 
ATOM     40  C   UNL     1      51.145  18.992  21.035  0.00  0.00    -0.183 A 
ATOM     41  C   UNL     1      51.005  17.619  20.507  0.00  0.00    +0.443 C 
ATOM     42  C   UNL     1      50.025  17.397  19.427  0.00  0.00    -0.186 A 
ATOM     43  C   UNL     1      50.106  16.242  18.634  0.00  0.00    +0.185 A 
ATOM     46  C   UNL     1      49.197  16.045  17.619  0.00  0.00    -0.131 A 
ATOM     57  C   UNL     1      48.211  16.994  17.392  0.00  0.00    +0.163 A 
ATOM     60  C   UNL     1      48.131  18.132  18.183  0.00  0.00    -0.008 A 
ATOM     61  O   UNL     1      51.675  16.703  20.947  0.00  0.00    -0.424 OA
ATOM     62  C   UNL     1      49.026  18.343  19.201  0.00  0.00    -0.018 A 
ENDROOT
BRANCH  31  30
ATOM      1  C   UNL     1      45.975  24.033  21.187  0.00  0.00    +0.102 C 
ATOM      2  C   UNL     1      45.805  22.594  20.772  0.00  0.00    -0.040 A 
ATOM      3  C   UNL     1      46.793  21.673  21.071  0.00  0.00    +0.014 A 
ATOM      4  C   UNL     1      46.656  20.347  20.702  0.00  0.00    -0.025 A 
ATOM      5  C   UNL     1      45.501  19.949  20.026  0.00  0.00    -0.181 A 
ATOM      6  C   UNL     1      45.329  18.532  19.646  0.00  0.00    +0.439 C 
ATOM      7  C   UNL     1      46.180  17.532  20.318  0.00  0.00    -0.224 A 
ATOM      8  C   UNL     1      47.330  17.947  20.995  0.00  0.00    +0.012 A 
ATOM      9  C   UNL     1      48.103  17.010  21.632  0.00  0.00    -0.017 A 
ATOM     10  C   UNL     1      47.759  15.664  21.602  0.00  0.00    +0.194 A 
ATOM     22  C   UNL     1      46.626  15.242  20.921  0.00  0.00    -0.109 A 
ATOM     23  C   UNL     1      45.830  16.173  20.276  0.00  0.00    +0.210 A 
ATOM     26  O   UNL     1      44.513  18.201  18.807  0.00  0.00    -0.422 OA
ATOM     27  C   UNL     1      44.503  20.882  19.719  0.00  0.00    +0.167 A 
ATOM     30  C   UNL     1      47.754  19.384  21.033  0.00  0.00    +0.112 C 
ATOM     63  C   UNL     1      44.661  22.207  20.103  0.00  0.00    -0.015 A 
BRANCH  23  24
ATOM     24  O   UNL     1      44.720  15.776  19.606  0.00  0.00    -0.482 OA
ATOM     25  H   UNL     1      44.137  16.502  19.345  0.00  0.00    +0.402 HD
ENDBRANCH  23  24
BRANCH  27  28
ATOM     28  O   UNL     1      43.386  20.493  19.056  0.00  0.00    -0.478 OA
ATOM     29  H   UNL     1      42.790  21.219  18.827  0.00  0.00    +0.395 HD
ENDBRANCH  27  28
BRANCH  10  11
ATOM     11  O   UNL     1      48.538  14.756  22.240  0.00  0.00    -0.290 OA
BRANCH  11  12
ATOM     12  C   UNL     1      48.656  13.465  21.638  0.00  0.00    +0.234 C 
BRANCH  12  13
ATOM     13  C   UNL     1      50.113  13.142  21.421  0.00  0.00    -0.052 C 
ATOM     14  C   UNL     1      50.514  11.895  21.414  0.00  0.00    -0.093 C 
ATOM     21  C   UNL     1      49.553  10.793  21.780  0.00  0.00    +0.077 C 
BRANCH  14  15
ATOM     15  C   UNL     1      51.935  11.563  21.041  0.00  0.00    +0.068 C 
BRANCH  15  16
ATOM     16  C   UNL     1      52.309  12.293  19.750  0.00  0.00    +0.054 C 
BRANCH  16  17
ATOM     17  C   UNL     1      53.762  12.048  19.438  0.00  0.00    -0.062 C 
ATOM     18  C   UNL     1      54.648  12.984  19.671  0.00  0.00    -0.131 C 
ATOM     19  C   UNL     1      56.103  12.739  19.360  0.00  0.00    +0.072 C 
ATOM     20  C   UNL     1      54.215  14.305  20.252  0.00  0.00    +0.072 C 
ENDBRANCH  16  17
ENDBRANCH  15  16
ENDBRANCH  14  15
ENDBRANCH  12  13
ENDBRANCH  11  12
ENDBRANCH  10  11
ENDBRANCH  31  30
BRANCH  37  38
ATOM     38  O   UNL     1      53.257  18.431  22.003  0.00  0.00    -0.482 OA
ATOM     39  H   UNL     1      53.314  18.153  22.928  0.00  0.00    +0.398 HD
ENDBRANCH  37  38
BRANCH  43  44
ATOM     44  O   UNL     1      51.073  15.320  18.870  0.00  0.00    -0.473 OA
ATOM     45  H   UNL     1      51.346  14.826  18.085  0.00  0.00    +0.395 HD
ENDBRANCH  43  44
BRANCH  57  58
ATOM     58  O   UNL     1      47.315  16.807  16.388  0.00  0.00    -0.483 OA
ATOM     59  H   UNL     1      46.957  15.910  16.342  0.00  0.00    +0.392 HD
ENDBRANCH  57  58
BRANCH  46  47
ATOM     47  C   UNL     1      49.275  14.810  16.759  0.00  0.00    +0.130 C 
BRANCH  47  48
ATOM     48  C   UNL     1      49.228  13.584  17.634  0.00  0.00    -0.058 C 
ATOM     49  C   UNL     1      48.162  12.823  17.638  0.00  0.00    -0.112 C 
ATOM     56  C   UNL     1      46.939  13.235  16.860  0.00  0.00    +0.075 C 
BRANCH  49  50
ATOM     50  C   UNL     1      48.158  11.535  18.421  0.00  0.00    +0.057 C 
BRANCH  50  51
ATOM     51  C   UNL     1      48.597  10.384  17.514  0.00  0.00    +0.055 C 
BRANCH  51  52
ATOM     52  C   UNL     1      50.100  10.277  17.530  0.00  0.00    -0.059 C 
ATOM     53  C   UNL     1      50.784  10.496  16.434  0.00  0.00    -0.134 C 
ATOM     54  C   UNL     1      52.290  10.493  16.473  0.00  0.00    +0.071 C 
ATOM     55  C   UNL     1      50.064  10.752  15.135  0.00  0.00    +0.071 C 
ENDBRANCH  51  52
ENDBRANCH  50  51
ENDBRANCH  49  50
ENDBRANCH  47  48
ENDBRANCH  46  47
TORSDOF 17
ENDMDL
MODEL 8
REMARK VINA RESULT:      -5.1      2.153      8.327
REMARK  Name = ZINC95486183
REMARK  25 active torsions:
REMARK  status: ('A' for Active; 'I' for Inactive)
REMARK    1  A    between atoms: C1_1  and  C2_2
REMARK    2  A    between atoms: C6_6  and  O1_8
REMARK    3  A    between atoms: C12_14  and  O4_18
REMARK    4  A    between atoms: C14_16  and  O3_17
REMARK    5  A    between atoms: O4_18  and  C15_19
REMARK    6  A    between atoms: C15_19  and  C16_20
REMARK    7  A    between atoms: C17_21  and  C18_22
REMARK    8  A    between atoms: C17_21  and  C19_23
REMARK    9  A    between atoms: C19_23  and  C20_24
REMARK   10  A    between atoms: C20_24  and  C21_25
REMARK   11  A    between atoms: C22_26  and  C23_27
REMARK   12  A    between atoms: C22_26  and  C24_28
REMARK   13  A    between atoms: C25_29  and  C26_31
REMARK   14  A    between atoms: C29_35  and  C50_60
REMARK   15  A    between atoms: C31_37  and  O8_59
REMARK   16  A    between atoms: C37_44  and  O7_58
REMARK   17  A    between atoms: C38_45  and  C40_48
REMARK   18  A    between atoms: C39_46  and  O6_47
REMARK   19  A    between atoms: C40_48  and  C41_49
REMARK   20  A    between atoms: C42_50  and  C43_51
REMARK   21  A    between atoms: C42_50  and  C44_52
REMARK   22  A    between atoms: C44_52  and  C45_53
REMARK   23  A    between atoms: C45_53  and  C46_54
REMARK   24  A    between atoms: C47_55  and  C48_56
REMARK   25  A    between atoms: C47_55  and  C49_57
REMARK                            x       y       z     vdW  Elec       q    Type
REMARK                         _______ _______ _______ _____ _____    ______ ____
ROOT
ATOM     31  C   UNL     1      45.884  16.879  21.566  0.00  0.00    +0.111 C 
ATOM     32  C   UNL     1      46.336  15.477  21.845  0.00  0.00    -0.025 A 
ATOM     33  C   UNL     1      45.383  14.494  22.042  0.00  0.00    +0.015 A 
ATOM     34  C   UNL     1      45.761  13.187  22.293  0.00  0.00    -0.039 A 
ATOM     35  C   UNL     1      44.706  12.132  22.505  0.00  0.00    +0.098 C 
ATOM     36  C   UNL     1      47.096  12.839  22.350  0.00  0.00    -0.016 A 
ATOM     37  C   UNL     1      48.069  13.810  22.160  0.00  0.00    +0.169 A 
ATOM     40  C   UNL     1      47.685  15.134  21.911  0.00  0.00    -0.183 A 
ATOM     41  C   UNL     1      48.714  16.180  21.734  0.00  0.00    +0.443 C 
ATOM     42  C   UNL     1      48.296  17.586  21.887  0.00  0.00    -0.186 A 
ATOM     43  C   UNL     1      49.259  18.582  22.108  0.00  0.00    +0.185 A 
ATOM     46  C   UNL     1      48.864  19.892  22.265  0.00  0.00    -0.131 A 
ATOM     57  C   UNL     1      47.515  20.210  22.202  0.00  0.00    +0.163 A 
ATOM     60  C   UNL     1      46.566  19.221  21.976  0.00  0.00    -0.008 A 
ATOM     61  O   UNL     1      49.866  15.891  21.469  0.00  0.00    -0.424 OA
ATOM     62  C   UNL     1      46.942  17.912  21.815  0.00  0.00    -0.018 A 
ENDROOT
BRANCH  31  30
ATOM      1  C   UNL     1      41.237  19.573  20.660  0.00  0.00    +0.102 C 
ATOM      2  C   UNL     1      42.666  19.506  20.184  0.00  0.00    -0.040 A 
ATOM      3  C   UNL     1      43.386  18.335  20.337  0.00  0.00    +0.014 A 
ATOM      4  C   UNL     1      44.698  18.252  19.905  0.00  0.00    -0.025 A 
ATOM      5  C   UNL     1      45.284  19.367  19.305  0.00  0.00    -0.181 A 
ATOM      6  C   UNL     1      46.675  19.287  18.818  0.00  0.00    +0.439 C 
ATOM      7  C   UNL     1      47.262  17.946  18.629  0.00  0.00    -0.224 A 
ATOM      8  C   UNL     1      46.660  16.839  19.232  0.00  0.00    +0.012 A 
ATOM      9  C   UNL     1      47.202  15.595  19.033  0.00  0.00    -0.017 A 
ATOM     10  C   UNL     1      48.340  15.432  18.253  0.00  0.00    +0.194 A 
ATOM     22  C   UNL     1      48.952  16.528  17.661  0.00  0.00    -0.109 A 
ATOM     23  C   UNL     1      48.416  17.791  17.845  0.00  0.00    +0.210 A 
ATOM     26  O   UNL     1      47.318  20.293  18.579  0.00  0.00    -0.422 OA
ATOM     27  C   UNL     1      44.556  20.555  19.154  0.00  0.00    +0.167 A 
ATOM     30  C   UNL     1      45.447  16.970  20.102  0.00  0.00    +0.112 C 
ATOM     63  C   UNL     1      43.241  20.613  19.592  0.00  0.00    -0.015 A 
BRANCH  23  24
ATOM     24  O   UNL     1      49.002  18.872  17.273  0.00  0.00    -0.482 OA
ATOM     25  H   UNL     1      49.754  18.656  16.704  0.00  0.00    +0.402 HD
ENDBRANCH  23  24
BRANCH  27  28
ATOM     28  O   UNL     1      45.133  21.639  18.577  0.00  0.00    -0.478 OA
ATOM     29  H   UNL     1      44.936  21.735  17.636  0.00  0.00    +0.395 HD
ENDBRANCH  27  28
BRANCH  10  11
ATOM     11  O   UNL     1      48.859  14.192  18.070  0.00  0.00    -0.290 OA
BRANCH  11  12
ATOM     12  C   UNL     1      50.277  14.058  18.185  0.00  0.00    +0.234 C 
BRANCH  12  13
ATOM     13  C   UNL     1      50.830  13.456  16.918  0.00  0.00    -0.052 C 
ATOM     14  C   UNL     1      51.855  12.642  16.972  0.00  0.00    -0.093 C 
ATOM     21  C   UNL     1      52.581  12.431  18.276  0.00  0.00    +0.077 C 
BRANCH  14  15
ATOM     15  C   UNL     1      52.309  11.917  15.732  0.00  0.00    +0.068 C 
BRANCH  15  16
ATOM     16  C   UNL     1      51.088  11.457  14.933  0.00  0.00    +0.054 C 
BRANCH  16  17
ATOM     17  C   UNL     1      51.140  12.051  13.550  0.00  0.00    -0.062 C 
ATOM     18  C   UNL     1      50.103  12.694  13.074  0.00  0.00    -0.131 C 
ATOM     19  C   UNL     1      50.155  13.289  11.690  0.00  0.00    +0.072 C 
ATOM     20  C   UNL     1      48.858  12.841  13.909  0.00  0.00    +0.072 C 
ENDBRANCH  16  17
ENDBRANCH  15  16
ENDBRANCH  14  15
ENDBRANCH  12  13
ENDBRANCH  11  12
ENDBRANCH  10  11
ENDBRANCH  31  30
BRANCH  37  38
ATOM     38  O   UNL     1      49.383  13.479  22.213  0.00  0.00    -0.482 OA
ATOM     39  H   UNL     1      49.558  12.539  22.066  0.00  0.00    +0.398 HD
ENDBRANCH  37  38
BRANCH  43  44
ATOM     44  O   UNL     1      50.575  18.258  22.164  0.00  0.00    -0.473 OA
ATOM     45  H   UNL     1      51.120  18.905  22.633  0.00  0.00    +0.395 HD
ENDBRANCH  43  44
BRANCH  57  58
ATOM     58  O   UNL     1      47.118  21.499  22.360  0.00  0.00    -0.483 OA
ATOM     59  H   UNL     1      47.290  21.858  23.242  0.00  0.00    +0.392 HD
ENDBRANCH  57  58
BRANCH  46  47
ATOM     47  C   UNL     1      49.887  20.971  22.505  0.00  0.00    +0.130 C 
BRANCH  47  48
ATOM     48  C   UNL     1      50.478  21.407  21.189  0.00  0.00    -0.058 C 
ATOM     49  C   UNL     1      51.775  21.376  21.012  0.00  0.00    -0.112 C 
ATOM     56  C   UNL     1      52.685  21.020  22.159  0.00  0.00    +0.075 C 
BRANCH  49  50
ATOM     50  C   UNL     1      52.359  21.699  19.660  0.00  0.00    +0.057 C 
BRANCH  50  51
ATOM     51  C   UNL     1      51.925  20.636  18.649  0.00  0.00    +0.055 C 
BRANCH  51  52
ATOM     52  C   UNL     1      52.264  19.267  19.183  0.00  0.00    -0.059 C 
ATOM     53  C   UNL     1      52.371  18.252  18.361  0.00  0.00    -0.134 C 
ATOM     54  C   UNL     1      52.812  16.908  18.879  0.00  0.00    +0.071 C 
ATOM     55  C   UNL     1      52.053  18.430  16.899  0.00  0.00    +0.071 C 
ENDBRANCH  51  52
ENDBRANCH  50  51
ENDBRANCH  49  50
ENDBRANCH  47  48
ENDBRANCH  46  47
TORSDOF 17
ENDMDL
MODEL 9
REMARK VINA RESULT:      -5.0      2.258      8.567
REMARK  Name = ZINC95486183
REMARK  25 active torsions:
REMARK  status: ('A' for Active; 'I' for Inactive)
REMARK    1  A    between atoms: C1_1  and  C2_2
REMARK    2  A    between atoms: C6_6  and  O1_8
REMARK    3  A    between atoms: C12_14  and  O4_18
REMARK    4  A    between atoms: C14_16  and  O3_17
REMARK    5  A    between atoms: O4_18  and  C15_19
REMARK    6  A    between atoms: C15_19  and  C16_20
REMARK    7  A    between atoms: C17_21  and  C18_22
REMARK    8  A    between atoms: C17_21  and  C19_23
REMARK    9  A    between atoms: C19_23  and  C20_24
REMARK   10  A    between atoms: C20_24  and  C21_25
REMARK   11  A    between atoms: C22_26  and  C23_27
REMARK   12  A    between atoms: C22_26  and  C24_28
REMARK   13  A    between atoms: C25_29  and  C26_31
REMARK   14  A    between atoms: C29_35  and  C50_60
REMARK   15  A    between atoms: C31_37  and  O8_59
REMARK   16  A    between atoms: C37_44  and  O7_58
REMARK   17  A    between atoms: C38_45  and  C40_48
REMARK   18  A    between atoms: C39_46  and  O6_47
REMARK   19  A    between atoms: C40_48  and  C41_49
REMARK   20  A    between atoms: C42_50  and  C43_51
REMARK   21  A    between atoms: C42_50  and  C44_52
REMARK   22  A    between atoms: C44_52  and  C45_53
REMARK   23  A    between atoms: C45_53  and  C46_54
REMARK   24  A    between atoms: C47_55  and  C48_56
REMARK   25  A    between atoms: C47_55  and  C49_57
REMARK                            x       y       z     vdW  Elec       q    Type
REMARK                         _______ _______ _______ _____ _____    ______ ____
ROOT
ATOM     31  C   UNL     1      48.257  17.346  18.624  0.00  0.00    +0.111 C 
ATOM     32  C   UNL     1      49.623  17.866  18.290  0.00  0.00    -0.025 A 
ATOM     33  C   UNL     1      49.773  19.208  17.989  0.00  0.00    +0.015 A 
ATOM     34  C   UNL     1      51.019  19.726  17.684  0.00  0.00    -0.039 A 
ATOM     35  C   UNL     1      51.160  21.191  17.358  0.00  0.00    +0.098 C 
ATOM     36  C   UNL     1      52.136  18.914  17.676  0.00  0.00    -0.016 A 
ATOM     37  C   UNL     1      52.008  17.564  17.971  0.00  0.00    +0.169 A 
ATOM     40  C   UNL     1      50.745  17.040  18.273  0.00  0.00    -0.183 A 
ATOM     41  C   UNL     1      50.594  15.598  18.563  0.00  0.00    +0.443 C 
ATOM     42  C   UNL     1      49.243  15.018  18.467  0.00  0.00    -0.186 A 
ATOM     43  C   UNL     1      49.083  13.628  18.353  0.00  0.00    +0.185 A 
ATOM     46  C   UNL     1      47.820  13.091  18.251  0.00  0.00    -0.131 A 
ATOM     57  C   UNL     1      46.717  13.933  18.263  0.00  0.00    +0.163 A 
ATOM     60  C   UNL     1      46.879  15.307  18.382  0.00  0.00    -0.008 A 
ATOM     61  O   UNL     1      51.553  14.914  18.869  0.00  0.00    -0.424 OA
ATOM     62  C   UNL     1      48.131  15.859  18.489  0.00  0.00    -0.018 A 
ENDROOT
BRANCH  31  30
ATOM      1  C   UNL     1      45.386  21.937  19.220  0.00  0.00    +0.102 C 
ATOM      2  C   UNL     1      45.395  20.495  19.659  0.00  0.00    -0.040 A 
ATOM      3  C   UNL     1      46.586  19.791  19.675  0.00  0.00    +0.014 A 
ATOM      4  C   UNL     1      46.618  18.467  20.075  0.00  0.00    -0.025 A 
ATOM      5  C   UNL     1      45.429  17.851  20.470  0.00  0.00    -0.181 A 
ATOM      6  C   UNL     1      45.449  16.446  20.923  0.00  0.00    +0.439 C 
ATOM      7  C   UNL     1      46.750  15.866  21.308  0.00  0.00    -0.224 A 
ATOM      8  C   UNL     1      47.932  16.498  20.910  0.00  0.00    +0.012 A 
ATOM      9  C   UNL     1      49.134  15.961  21.291  0.00  0.00    -0.017 A 
ATOM     10  C   UNL     1      49.186  14.801  22.053  0.00  0.00    +0.194 A 
ATOM     22  C   UNL     1      48.018  14.160  22.442  0.00  0.00    -0.109 A 
ATOM     23  C   UNL     1      46.794  14.690  22.072  0.00  0.00    +0.210 A 
ATOM     26  O   UNL     1      44.428  15.787  20.976  0.00  0.00    -0.422 OA
ATOM     27  C   UNL     1      44.222  18.563  20.449  0.00  0.00    +0.167 A 
ATOM     30  C   UNL     1      47.925  17.736  20.066  0.00  0.00    +0.112 C 
ATOM     63  C   UNL     1      44.216  19.891  20.047  0.00  0.00    -0.015 A 
BRANCH  23  24
ATOM     24  O   UNL     1      45.643  14.076  22.444  0.00  0.00    -0.482 OA
ATOM     25  H   UNL     1      45.255  13.519  21.756  0.00  0.00    +0.402 HD
ENDBRANCH  23  24
BRANCH  27  28
ATOM     28  O   UNL     1      43.068  17.958  20.826  0.00  0.00    -0.478 OA
ATOM     29  H   UNL     1      42.702  17.360  20.161  0.00  0.00    +0.395 HD
ENDBRANCH  27  28
BRANCH  10  11
ATOM     11  O   UNL     1      50.388  14.288  22.419  0.00  0.00    -0.290 OA
BRANCH  11  12
ATOM     12  C   UNL     1      50.496  12.864  22.476  0.00  0.00    +0.234 C 
BRANCH  12  13
ATOM     13  C   UNL     1      51.391  12.383  21.362  0.00  0.00    -0.052 C 
ATOM     14  C   UNL     1      52.681  12.606  21.415  0.00  0.00    -0.093 C 
ATOM     21  C   UNL     1      53.250  13.479  22.505  0.00  0.00    +0.077 C 
BRANCH  14  15
ATOM     15  C   UNL     1      53.596  11.992  20.387  0.00  0.00    +0.068 C 
BRANCH  15  16
ATOM     16  C   UNL     1      54.360  13.098  19.657  0.00  0.00    +0.054 C 
BRANCH  16  17
ATOM     17  C   UNL     1      55.751  13.206  20.225  0.00  0.00    -0.062 C 
ATOM     18  C   UNL     1      56.302  14.383  20.389  0.00  0.00    -0.131 C 
ATOM     19  C   UNL     1      57.693  14.492  20.958  0.00  0.00    +0.072 C 
ATOM     20  C   UNL     1      55.545  15.629  20.008  0.00  0.00    +0.072 C 
ENDBRANCH  16  17
ENDBRANCH  15  16
ENDBRANCH  14  15
ENDBRANCH  12  13
ENDBRANCH  11  12
ENDBRANCH  10  11
ENDBRANCH  31  30
BRANCH  37  38
ATOM     38  O   UNL     1      53.098  16.759  17.966  0.00  0.00    -0.482 OA
ATOM     39  H   UNL     1      53.835  17.096  17.437  0.00  0.00    +0.398 HD
ENDBRANCH  37  38
BRANCH  43  44
ATOM     44  O   UNL     1      50.170  12.816  18.347  0.00  0.00    -0.473 OA
ATOM     45  H   UNL     1      50.465  12.546  19.227  0.00  0.00    +0.395 HD
ENDBRANCH  43  44
BRANCH  57  58
ATOM     58  O   UNL     1      45.469  13.409  18.157  0.00  0.00    -0.483 OA
ATOM     59  H   UNL     1      45.248  13.093  17.270  0.00  0.00    +0.392 HD
ENDBRANCH  57  58
BRANCH  46  47
ATOM     47  C   UNL     1      47.636  11.601  18.125  0.00  0.00    +0.130 C 
BRANCH  47  48
ATOM     48  C   UNL     1      48.581  11.063  17.082  0.00  0.00    -0.058 C 
ATOM     49  C   UNL     1      48.197  10.974  15.833  0.00  0.00    -0.112 C 
ATOM     56  C   UNL     1      46.773  11.295  15.458  0.00  0.00    +0.075 C 
BRANCH  49  50
ATOM     50  C   UNL     1      49.178  10.548  14.771  0.00  0.00    +0.057 C 
BRANCH  50  51
ATOM     51  C   UNL     1      50.455  11.382  14.891  0.00  0.00    +0.055 C 
BRANCH  51  52
ATOM     52  C   UNL     1      50.515  12.373  13.757  0.00  0.00    -0.059 C 
ATOM     53  C   UNL     1      50.942  11.994  12.578  0.00  0.00    -0.134 C 
ATOM     54  C   UNL     1      50.904  12.955  11.418  0.00  0.00    +0.071 C 
ATOM     55  C   UNL     1      51.471  10.597  12.382  0.00  0.00    +0.071 C 
ENDBRANCH  51  52
ENDBRANCH  50  51
ENDBRANCH  49  50
ENDBRANCH  47  48
ENDBRANCH  46  47
TORSDOF 17
ENDMDL
