MODEL 1
REMARK VINA RESULT:      -5.5      0.000      0.000
REMARK  Name = ZINC95486021
REMARK  11 active torsions:
REMARK  status: ('A' for Active; 'I' for Inactive)
REMARK    1  A    between atoms: C1_1  and  C2_2
REMARK    2  A    between atoms: C8_8  and  O4_32
REMARK    3  A    between atoms: C10_10  and  O3_31
REMARK    4  A    between atoms: C11_11  and  C12_12
REMARK    5  A    between atoms: C13_14  and  O2_29
REMARK    6  A    between atoms: C17_19  and  C20_24
REMARK    7  A    between atoms: C18_22  and  C19_23
REMARK    8  A    between atoms: C22_26  and  O1_27
REMARK    9  A    between atoms: O1_27  and  C23_28
REMARK   10  A    between atoms: O2_29  and  C24_30
REMARK   11  A    between atoms: O4_32  and  C25_33
REMARK                            x       y       z     vdW  Elec       q    Type
REMARK                         _______ _______ _______ _____ _____    ______ ____
ROOT
ATOM     16  C   UNL     1      45.799  19.391  20.195  0.00  0.00    +0.117 C 
ATOM     17  C   UNL     1      45.112  18.029  20.303  0.00  0.00    +0.241 C 
ATOM     20  C   UNL     1      45.611  17.120  19.212  0.00  0.00    -0.241 C 
ATOM     21  C   UNL     1      45.900  17.627  17.986  0.00  0.00    +0.038 C 
ATOM     22  C   UNL     1      45.809  19.013  17.749  0.00  0.00    -0.194 C 
ATOM     23  C   UNL     1      46.337  16.694  16.884  0.00  0.00    +0.054 C 
ATOM     24  C   UNL     1      47.153  15.549  17.485  0.00  0.00    +0.147 C 
ATOM     25  C   UNL     1      47.334  14.451  16.435  0.00  0.00    +0.050 C 
ATOM     26  N   UNL     1      46.463  14.993  18.648  0.00  0.00    -0.529 NA
ATOM     27  C   UNL     1      45.767  15.738  19.447  0.00  0.00    +0.221 C 
ATOM     28  C   UNL     1      45.112  15.117  20.654  0.00  0.00    +0.114 C 
ATOM     29  C   UNL     1      45.746  19.879  18.771  0.00  0.00    +0.228 C 
ENDROOT
BRANCH  16  15
ATOM      1  C   UNL     1      46.452  17.795  22.502  0.00  0.00    +0.098 C 
ATOM      2  C   UNL     1      47.554  18.489  21.742  0.00  0.00    -0.044 A 
ATOM      3  C   UNL     1      48.844  18.348  22.155  0.00  0.00    +0.011 A 
ATOM      4  C   UNL     1      49.879  18.990  21.453  0.00  0.00    +0.004 A 
ATOM      5  C   UNL     1      51.219  18.860  21.857  0.00  0.00    -0.021 A 
ATOM      6  C   UNL     1      52.202  19.492  21.160  0.00  0.00    +0.061 A 
ATOM      7  C   UNL     1      51.905  20.272  20.045  0.00  0.00    -0.101 A 
ATOM      8  C   UNL     1      50.604  20.424  19.619  0.00  0.00    +0.156 A 
ATOM     11  C   UNL     1      49.566  19.780  20.320  0.00  0.00    -0.102 A 
ATOM     12  C   UNL     1      48.223  19.909  19.917  0.00  0.00    +0.162 A 
ATOM     15  C   UNL     1      47.237  19.260  20.627  0.00  0.00    -0.112 A 
BRANCH   8   9
ATOM      9  O   UNL     1      50.324  21.187  18.531  0.00  0.00    -0.298 OA
ATOM     10  C   UNL     1      51.282  21.179  17.470  0.00  0.00    +0.240 C 
ENDBRANCH   8   9
BRANCH  12  13
ATOM     13  O   UNL     1      47.902  20.662  18.834  0.00  0.00    -0.468 OA
ATOM     14  H   UNL     1      46.957  20.685  18.636  0.00  0.00    +0.390 HD
ENDBRANCH  12  13
ENDBRANCH  16  15
BRANCH  17  18
ATOM     18  O   UNL     1      43.698  18.198  20.169  0.00  0.00    -0.374 OA
ATOM     19  C   UNL     1      43.101  18.957  21.221  0.00  0.00    +0.200 C 
ENDBRANCH  17  18
BRANCH  29  30
ATOM     30  O   UNL     1      45.635  21.201  18.522  0.00  0.00    -0.299 OA
ATOM     31  C   UNL     1      44.808  21.959  19.407  0.00  0.00    +0.250 C 
ENDBRANCH  29  30
TORSDOF 5
ENDMDL
MODEL 2
REMARK VINA RESULT:      -5.3      2.635      4.767
REMARK  Name = ZINC95486021
REMARK  11 active torsions:
REMARK  status: ('A' for Active; 'I' for Inactive)
REMARK    1  A    between atoms: C1_1  and  C2_2
REMARK    2  A    between atoms: C8_8  and  O4_32
REMARK    3  A    between atoms: C10_10  and  O3_31
REMARK    4  A    between atoms: C11_11  and  C12_12
REMARK    5  A    between atoms: C13_14  and  O2_29
REMARK    6  A    between atoms: C17_19  and  C20_24
REMARK    7  A    between atoms: C18_22  and  C19_23
REMARK    8  A    between atoms: C22_26  and  O1_27
REMARK    9  A    between atoms: O1_27  and  C23_28
REMARK   10  A    between atoms: O2_29  and  C24_30
REMARK   11  A    between atoms: O4_32  and  C25_33
REMARK                            x       y       z     vdW  Elec       q    Type
REMARK                         _______ _______ _______ _____ _____    ______ ____
ROOT
ATOM     16  C   UNL     1      49.767  16.331  20.220  0.00  0.00    +0.117 C 
ATOM     17  C   UNL     1      48.467  15.629  19.825  0.00  0.00    +0.241 C 
ATOM     20  C   UNL     1      47.374  16.649  19.647  0.00  0.00    -0.241 C 
ATOM     21  C   UNL     1      47.325  17.739  20.454  0.00  0.00    +0.038 C 
ATOM     22  C   UNL     1      48.337  17.964  21.409  0.00  0.00    -0.194 C 
ATOM     23  C   UNL     1      46.187  18.718  20.307  0.00  0.00    +0.054 C 
ATOM     24  C   UNL     1      45.774  18.796  18.837  0.00  0.00    +0.147 C 
ATOM     25  C   UNL     1      44.440  19.538  18.725  0.00  0.00    +0.050 C 
ATOM     26  N   UNL     1      45.624  17.451  18.282  0.00  0.00    -0.529 NA
ATOM     27  C   UNL     1      46.386  16.472  18.656  0.00  0.00    +0.221 C 
ATOM     28  C   UNL     1      46.213  15.117  18.019  0.00  0.00    +0.114 C 
ATOM     29  C   UNL     1      49.503  17.305  21.337  0.00  0.00    +0.228 C 
ENDROOT
BRANCH  16  15
ATOM      1  C   UNL     1      50.210  14.921  17.748  0.00  0.00    +0.098 C 
ATOM      2  C   UNL     1      50.531  16.392  17.833  0.00  0.00    -0.044 A 
ATOM      3  C   UNL     1      51.023  17.034  16.737  0.00  0.00    +0.011 A 
ATOM      4  C   UNL     1      51.325  18.405  16.806  0.00  0.00    +0.004 A 
ATOM      5  C   UNL     1      51.833  19.092  15.690  0.00  0.00    -0.021 A 
ATOM      6  C   UNL     1      52.118  20.420  15.783  0.00  0.00    +0.061 A 
ATOM      7  C   UNL     1      51.916  21.117  16.970  0.00  0.00    -0.101 A 
ATOM      8  C   UNL     1      51.421  20.478  18.086  0.00  0.00    +0.156 A 
ATOM     11  C   UNL     1      51.115  19.104  18.019  0.00  0.00    -0.102 A 
ATOM     12  C   UNL     1      50.607  18.414  19.136  0.00  0.00    +0.162 A 
ATOM     15  C   UNL     1      50.317  17.072  19.028  0.00  0.00    -0.112 A 
BRANCH   8   9
ATOM      9  O   UNL     1      51.228  21.166  19.241  0.00  0.00    -0.298 OA
ATOM     10  C   UNL     1      52.387  21.719  19.868  0.00  0.00    +0.240 C 
ENDBRANCH   8   9
BRANCH  12  13
ATOM     13  O   UNL     1      50.398  19.067  20.308  0.00  0.00    -0.468 OA
ATOM     14  H   UNL     1      49.629  19.652  20.301  0.00  0.00    +0.390 HD
ENDBRANCH  12  13
ENDBRANCH  16  15
BRANCH  17  18
ATOM     18  O   UNL     1      48.093  14.707  20.852  0.00  0.00    -0.374 OA
ATOM     19  C   UNL     1      48.349  13.340  20.527  0.00  0.00    +0.200 C 
ENDBRANCH  17  18
BRANCH  29  30
ATOM     30  O   UNL     1      50.449  17.518  22.277  0.00  0.00    -0.299 OA
ATOM     31  C   UNL     1      51.383  16.461  22.505  0.00  0.00    +0.250 C 
ENDBRANCH  29  30
TORSDOF 5
ENDMDL
MODEL 3
REMARK VINA RESULT:      -5.2      2.573      4.788
REMARK  Name = ZINC95486021
REMARK  11 active torsions:
REMARK  status: ('A' for Active; 'I' for Inactive)
REMARK    1  A    between atoms: C1_1  and  C2_2
REMARK    2  A    between atoms: C8_8  and  O4_32
REMARK    3  A    between atoms: C10_10  and  O3_31
REMARK    4  A    between atoms: C11_11  and  C12_12
REMARK    5  A    between atoms: C13_14  and  O2_29
REMARK    6  A    between atoms: C17_19  and  C20_24
REMARK    7  A    between atoms: C18_22  and  C19_23
REMARK    8  A    between atoms: C22_26  and  O1_27
REMARK    9  A    between atoms: O1_27  and  C23_28
REMARK   10  A    between atoms: O2_29  and  C24_30
REMARK   11  A    between atoms: O4_32  and  C25_33
REMARK                            x       y       z     vdW  Elec       q    Type
REMARK                         _______ _______ _______ _____ _____    ______ ____
ROOT
ATOM     16  C   UNL     1      47.487  16.844  20.202  0.00  0.00    +0.117 C 
ATOM     17  C   UNL     1      46.119  17.482  19.957  0.00  0.00    +0.241 C 
ATOM     20  C   UNL     1      46.143  18.920  20.400  0.00  0.00    -0.241 C 
ATOM     21  C   UNL     1      46.862  19.282  21.494  0.00  0.00    +0.038 C 
ATOM     22  C   UNL     1      47.650  18.331  22.174  0.00  0.00    -0.194 C 
ATOM     23  C   UNL     1      46.825  20.714  21.964  0.00  0.00    +0.054 C 
ATOM     24  C   UNL     1      46.696  21.640  20.754  0.00  0.00    +0.147 C 
ATOM     25  C   UNL     1      46.350  23.052  21.232  0.00  0.00    +0.050 C 
ATOM     26  N   UNL     1      45.640  21.162  19.862  0.00  0.00    -0.529 NA
ATOM     27  C   UNL     1      45.410  19.898  19.696  0.00  0.00    +0.221 C 
ATOM     28  C   UNL     1      44.336  19.463  18.732  0.00  0.00    +0.114 C 
ATOM     29  C   UNL     1      47.955  17.159  21.598  0.00  0.00    +0.228 C 
ENDROOT
BRANCH  16  15
ATOM      1  C   UNL     1      46.945  16.610  17.383  0.00  0.00    +0.098 C 
ATOM      2  C   UNL     1      48.217  17.276  17.843  0.00  0.00    -0.044 A 
ATOM      3  C   UNL     1      49.091  17.762  16.918  0.00  0.00    +0.011 A 
ATOM      4  C   UNL     1      50.279  18.385  17.336  0.00  0.00    +0.004 A 
ATOM      5  C   UNL     1      51.197  18.896  16.403  0.00  0.00    -0.021 A 
ATOM      6  C   UNL     1      52.341  19.494  16.834  0.00  0.00    +0.061 A 
ATOM      7  C   UNL     1      52.623  19.612  18.192  0.00  0.00    -0.101 A 
ATOM      8  C   UNL     1      51.748  19.122  19.137  0.00  0.00    +0.156 A 
ATOM     11  C   UNL     1      50.556  18.499  18.720  0.00  0.00    -0.102 A 
ATOM     12  C   UNL     1      49.635  17.986  19.654  0.00  0.00    +0.162 A 
ATOM     15  C   UNL     1      48.478  17.388  19.206  0.00  0.00    -0.112 A 
BRANCH   8   9
ATOM      9  O   UNL     1      52.032  19.240  20.460  0.00  0.00    -0.298 OA
ATOM     10  C   UNL     1      52.387  20.542  20.933  0.00  0.00    +0.240 C 
ENDBRANCH   8   9
BRANCH  12  13
ATOM     13  O   UNL     1      49.882  18.087  20.986  0.00  0.00    -0.468 OA
ATOM     14  H   UNL     1      50.625  18.664  21.205  0.00  0.00    +0.390 HD
ENDBRANCH  12  13
ENDBRANCH  16  15
BRANCH  17  18
ATOM     18  O   UNL     1      45.124  16.774  20.701  0.00  0.00    -0.374 OA
ATOM     19  C   UNL     1      45.050  15.381  20.393  0.00  0.00    +0.200 C 
ENDBRANCH  17  18
BRANCH  29  30
ATOM     30  O   UNL     1      48.691  16.252  22.277  0.00  0.00    -0.299 OA
ATOM     31  C   UNL     1      48.418  14.874  22.019  0.00  0.00    +0.250 C 
ENDBRANCH  29  30
TORSDOF 5
ENDMDL
MODEL 4
REMARK VINA RESULT:      -5.2      2.619      6.100
REMARK  Name = ZINC95486021
REMARK  11 active torsions:
REMARK  status: ('A' for Active; 'I' for Inactive)
REMARK    1  A    between atoms: C1_1  and  C2_2
REMARK    2  A    between atoms: C8_8  and  O4_32
REMARK    3  A    between atoms: C10_10  and  O3_31
REMARK    4  A    between atoms: C11_11  and  C12_12
REMARK    5  A    between atoms: C13_14  and  O2_29
REMARK    6  A    between atoms: C17_19  and  C20_24
REMARK    7  A    between atoms: C18_22  and  C19_23
REMARK    8  A    between atoms: C22_26  and  O1_27
REMARK    9  A    between atoms: O1_27  and  C23_28
REMARK   10  A    between atoms: O2_29  and  C24_30
REMARK   11  A    between atoms: O4_32  and  C25_33
REMARK                            x       y       z     vdW  Elec       q    Type
REMARK                         _______ _______ _______ _____ _____    ______ ____
ROOT
ATOM     16  C   UNL     1      47.594  15.030  18.805  0.00  0.00    +0.117 C 
ATOM     17  C   UNL     1      48.963  15.155  19.474  0.00  0.00    +0.241 C 
ATOM     20  C   UNL     1      49.347  16.607  19.578  0.00  0.00    -0.241 C 
ATOM     21  C   UNL     1      49.006  17.471  18.589  0.00  0.00    +0.038 C 
ATOM     22  C   UNL     1      48.227  17.034  17.498  0.00  0.00    -0.194 C 
ATOM     23  C   UNL     1      49.453  18.909  18.676  0.00  0.00    +0.054 C 
ATOM     24  C   UNL     1      49.474  19.344  20.141  0.00  0.00    +0.147 C 
ATOM     25  C   UNL     1      50.211  20.680  20.262  0.00  0.00    +0.050 C 
ATOM     26  N   UNL     1      50.158  18.342  20.957  0.00  0.00    -0.529 NA
ATOM     27  C   UNL     1      50.074  17.077  20.692  0.00  0.00    +0.221 C 
ATOM     28  C   UNL     1      50.767  16.086  21.592  0.00  0.00    +0.114 C 
ATOM     29  C   UNL     1      47.555  15.876  17.560  0.00  0.00    +0.228 C 
ENDROOT
BRANCH  16  15
ATOM      1  C   UNL     1      47.148  13.581  21.253  0.00  0.00    +0.098 C 
ATOM      2  C   UNL     1      46.309  14.796  20.945  0.00  0.00    -0.044 A 
ATOM      3  C   UNL     1      45.355  15.193  21.831  0.00  0.00    +0.011 A 
ATOM      4  C   UNL     1      44.569  16.325  21.554  0.00  0.00    +0.004 A 
ATOM      5  C   UNL     1      43.578  16.757  22.452  0.00  0.00    -0.021 A 
ATOM      6  C   UNL     1      42.830  17.856  22.158  0.00  0.00    +0.061 A 
ATOM      7  C   UNL     1      43.028  18.567  20.978  0.00  0.00    -0.101 A 
ATOM      8  C   UNL     1      43.989  18.173  20.073  0.00  0.00    +0.156 A 
ATOM     11  C   UNL     1      44.779  17.040  20.350  0.00  0.00    -0.102 A 
ATOM     12  C   UNL     1      45.772  16.605  19.451  0.00  0.00    +0.162 A 
ATOM     15  C   UNL     1      46.526  15.495  19.761  0.00  0.00    -0.112 A 
BRANCH   8   9
ATOM      9  O   UNL     1      44.173  18.871  18.923  0.00  0.00    -0.298 OA
ATOM     10  C   UNL     1      43.496  20.125  18.809  0.00  0.00    +0.240 C 
ENDBRANCH   8   9
BRANCH  12  13
ATOM     13  O   UNL     1      45.989  17.277  18.292  0.00  0.00    -0.468 OA
ATOM     14  H   UNL     1      46.901  17.575  18.174  0.00  0.00    +0.390 HD
ENDBRANCH  12  13
ENDBRANCH  16  15
BRANCH  17  18
ATOM     18  O   UNL     1      49.940  14.462  18.693  0.00  0.00    -0.374 OA
ATOM     19  C   UNL     1      49.713  13.055  18.593  0.00  0.00    +0.200 C 
ENDBRANCH  17  18
BRANCH  29  30
ATOM     30  O   UNL     1      46.834  15.464  16.494  0.00  0.00    -0.299 OA
ATOM     31  C   UNL     1      46.970  14.094  16.112  0.00  0.00    +0.250 C 
ENDBRANCH  29  30
TORSDOF 5
ENDMDL
MODEL 5
REMARK VINA RESULT:      -5.2      2.662      5.862
REMARK  Name = ZINC95486021
REMARK  11 active torsions:
REMARK  status: ('A' for Active; 'I' for Inactive)
REMARK    1  A    between atoms: C1_1  and  C2_2
REMARK    2  A    between atoms: C8_8  and  O4_32
REMARK    3  A    between atoms: C10_10  and  O3_31
REMARK    4  A    between atoms: C11_11  and  C12_12
REMARK    5  A    between atoms: C13_14  and  O2_29
REMARK    6  A    between atoms: C17_19  and  C20_24
REMARK    7  A    between atoms: C18_22  and  C19_23
REMARK    8  A    between atoms: C22_26  and  O1_27
REMARK    9  A    between atoms: O1_27  and  C23_28
REMARK   10  A    between atoms: O2_29  and  C24_30
REMARK   11  A    between atoms: O4_32  and  C25_33
REMARK                            x       y       z     vdW  Elec       q    Type
REMARK                         _______ _______ _______ _____ _____    ______ ____
ROOT
ATOM     16  C   UNL     1      48.750  18.205  20.844  0.00  0.00    +0.117 C 
ATOM     17  C   UNL     1      50.252  18.489  20.881  0.00  0.00    +0.241 C 
ATOM     20  C   UNL     1      50.688  19.086  19.569  0.00  0.00    -0.241 C 
ATOM     21  C   UNL     1      50.116  18.670  18.411  0.00  0.00    +0.038 C 
ATOM     22  C   UNL     1      49.060  17.736  18.432  0.00  0.00    -0.194 C 
ATOM     23  C   UNL     1      50.609  19.230  17.100  0.00  0.00    +0.054 C 
ATOM     24  C   UNL     1      51.037  20.683  17.299  0.00  0.00    +0.147 C 
ATOM     25  C   UNL     1      51.816  21.156  16.069  0.00  0.00    +0.050 C 
ATOM     26  N   UNL     1      51.889  20.801  18.482  0.00  0.00    -0.529 NA
ATOM     27  C   UNL     1      51.702  20.065  19.532  0.00  0.00    +0.221 C 
ATOM     28  C   UNL     1      52.586  20.260  20.737  0.00  0.00    +0.114 C 
ATOM     29  C   UNL     1      48.398  17.481  19.570  0.00  0.00    +0.228 C 
ENDROOT
BRANCH  16  15
ATOM      1  C   UNL     1      49.731  20.342  22.505  0.00  0.00    +0.098 C 
ATOM      2  C   UNL     1      48.467  20.541  21.708  0.00  0.00    -0.044 A 
ATOM      3  C   UNL     1      47.809  21.731  21.782  0.00  0.00    +0.011 A 
ATOM      4  C   UNL     1      46.629  21.926  21.042  0.00  0.00    +0.004 A 
ATOM      5  C   UNL     1      45.931  23.145  21.100  0.00  0.00    -0.021 A 
ATOM      6  C   UNL     1      44.792  23.308  20.373  0.00  0.00    +0.061 A 
ATOM      7  C   UNL     1      44.299  22.285  19.569  0.00  0.00    -0.101 A 
ATOM      8  C   UNL     1      44.955  21.076  19.487  0.00  0.00    +0.156 A 
ATOM     11  C   UNL     1      46.138  20.879  20.226  0.00  0.00    -0.102 A 
ATOM     12  C   UNL     1      46.839  19.658  20.171  0.00  0.00    +0.162 A 
ATOM     15  C   UNL     1      47.993  19.507  20.905  0.00  0.00    -0.112 A 
BRANCH   8   9
ATOM      9  O   UNL     1      44.466  20.083  18.700  0.00  0.00    -0.298 OA
ATOM     10  C   UNL     1      43.046  20.012  18.554  0.00  0.00    +0.240 C 
ENDBRANCH   8   9
BRANCH  12  13
ATOM     13  O   UNL     1      46.383  18.642  19.394  0.00  0.00    -0.468 OA
ATOM     14  H   UNL     1      45.779  18.040  19.849  0.00  0.00    +0.390 HD
ENDBRANCH  12  13
ENDBRANCH  16  15
BRANCH  17  18
ATOM     18  O   UNL     1      50.961  17.268  21.105  0.00  0.00    -0.374 OA
ATOM     19  C   UNL     1      50.633  16.623  22.336  0.00  0.00    +0.200 C 
ENDBRANCH  17  18
BRANCH  29  30
ATOM     30  O   UNL     1      47.405  16.565  19.575  0.00  0.00    -0.299 OA
ATOM     31  C   UNL     1      47.491  15.522  20.547  0.00  0.00    +0.250 C 
ENDBRANCH  29  30
TORSDOF 5
ENDMDL
MODEL 6
REMARK VINA RESULT:      -5.0      2.749      5.209
REMARK  Name = ZINC95486021
REMARK  11 active torsions:
REMARK  status: ('A' for Active; 'I' for Inactive)
REMARK    1  A    between atoms: C1_1  and  C2_2
REMARK    2  A    between atoms: C8_8  and  O4_32
REMARK    3  A    between atoms: C10_10  and  O3_31
REMARK    4  A    between atoms: C11_11  and  C12_12
REMARK    5  A    between atoms: C13_14  and  O2_29
REMARK    6  A    between atoms: C17_19  and  C20_24
REMARK    7  A    between atoms: C18_22  and  C19_23
REMARK    8  A    between atoms: C22_26  and  O1_27
REMARK    9  A    between atoms: O1_27  and  C23_28
REMARK   10  A    between atoms: O2_29  and  C24_30
REMARK   11  A    between atoms: O4_32  and  C25_33
REMARK                            x       y       z     vdW  Elec       q    Type
REMARK                         _______ _______ _______ _____ _____    ______ ____
ROOT
ATOM     16  C   UNL     1      48.289  16.982  19.926  0.00  0.00    +0.117 C 
ATOM     17  C   UNL     1      49.795  16.723  19.878  0.00  0.00    +0.241 C 
ATOM     20  C   UNL     1      50.415  17.530  18.770  0.00  0.00    -0.241 C 
ATOM     21  C   UNL     1      49.735  17.727  17.611  0.00  0.00    +0.038 C 
ATOM     22  C   UNL     1      48.419  17.244  17.467  0.00  0.00    -0.194 C 
ATOM     23  C   UNL     1      50.395  18.483  16.485  0.00  0.00    +0.054 C 
ATOM     24  C   UNL     1      51.306  19.564  17.067  0.00  0.00    +0.147 C 
ATOM     25  C   UNL     1      52.202  20.122  15.959  0.00  0.00    +0.050 C 
ATOM     26  N   UNL     1      52.143  19.003  18.127  0.00  0.00    -0.529 NA
ATOM     27  C   UNL     1      51.708  18.074  18.917  0.00  0.00    +0.221 C 
ATOM     28  C   UNL     1      52.602  17.563  20.018  0.00  0.00    +0.114 C 
ATOM     29  C   UNL     1      47.708  16.870  18.541  0.00  0.00    +0.228 C 
ENDROOT
BRANCH  16  15
ATOM      1  C   UNL     1      49.855  17.955  22.138  0.00  0.00    +0.098 C 
ATOM      2  C   UNL     1      48.794  18.839  21.533  0.00  0.00    -0.044 A 
ATOM      3  C   UNL     1      48.594  20.087  22.039  0.00  0.00    +0.011 A 
ATOM      4  C   UNL     1      47.607  20.919  21.482  0.00  0.00    +0.004 A 
ATOM      5  C   UNL     1      47.380  22.212  21.985  0.00  0.00    -0.021 A 
ATOM      6  C   UNL     1      46.418  22.997  21.427  0.00  0.00    +0.061 A 
ATOM      7  C   UNL     1      45.648  22.542  20.361  0.00  0.00    -0.101 A 
ATOM      8  C   UNL     1      45.840  21.281  19.842  0.00  0.00    +0.156 A 
ATOM     11  C   UNL     1      46.829  20.446  20.397  0.00  0.00    -0.102 A 
ATOM     12  C   UNL     1      47.058  19.150  19.896  0.00  0.00    +0.162 A 
ATOM     15  C   UNL     1      48.037  18.367  20.464  0.00  0.00    -0.112 A 
BRANCH   8   9
ATOM      9  O   UNL     1      45.082  20.846  18.802  0.00  0.00    -0.298 OA
ATOM     10  C   UNL     1      43.683  20.678  19.044  0.00  0.00    +0.240 C 
ENDBRANCH   8   9
BRANCH  12  13
ATOM     13  O   UNL     1      46.322  18.679  18.856  0.00  0.00    -0.468 OA
ATOM     14  H   UNL     1      46.846  18.448  18.077  0.00  0.00    +0.390 HD
ENDBRANCH  12  13
ENDBRANCH  16  15
BRANCH  17  18
ATOM     18  O   UNL     1      50.031  15.333  19.641  0.00  0.00    -0.374 OA
ATOM     19  C   UNL     1      49.582  14.478  20.694  0.00  0.00    +0.200 C 
ENDBRANCH  17  18
BRANCH  29  30
ATOM     30  O   UNL     1      46.457  16.387  18.379  0.00  0.00    -0.299 OA
ATOM     31  C   UNL     1      46.188  15.091  18.918  0.00  0.00    +0.250 C 
ENDBRANCH  29  30
TORSDOF 5
ENDMDL
MODEL 7
REMARK VINA RESULT:      -4.8      2.127      2.418
REMARK  Name = ZINC95486021
REMARK  11 active torsions:
REMARK  status: ('A' for Active; 'I' for Inactive)
REMARK    1  A    between atoms: C1_1  and  C2_2
REMARK    2  A    between atoms: C8_8  and  O4_32
REMARK    3  A    between atoms: C10_10  and  O3_31
REMARK    4  A    between atoms: C11_11  and  C12_12
REMARK    5  A    between atoms: C13_14  and  O2_29
REMARK    6  A    between atoms: C17_19  and  C20_24
REMARK    7  A    between atoms: C18_22  and  C19_23
REMARK    8  A    between atoms: C22_26  and  O1_27
REMARK    9  A    between atoms: O1_27  and  C23_28
REMARK   10  A    between atoms: O2_29  and  C24_30
REMARK   11  A    between atoms: O4_32  and  C25_33
REMARK                            x       y       z     vdW  Elec       q    Type
REMARK                         _______ _______ _______ _____ _____    ______ ____
ROOT
ATOM     16  C   UNL     1      46.568  17.536  19.823  0.00  0.00    +0.117 C 
ATOM     17  C   UNL     1      45.893  16.283  20.381  0.00  0.00    +0.241 C 
ATOM     20  C   UNL     1      46.195  15.105  19.494  0.00  0.00    -0.241 C 
ATOM     21  C   UNL     1      46.283  15.273  18.150  0.00  0.00    +0.038 C 
ATOM     22  C   UNL     1      46.170  16.559  17.583  0.00  0.00    -0.194 C 
ATOM     23  C   UNL     1      46.523  14.072  17.268  0.00  0.00    +0.054 C 
ATOM     24  C   UNL     1      47.413  13.073  18.006  0.00  0.00    +0.147 C 
ATOM     25  C   UNL     1      47.406  11.739  17.256  0.00  0.00    +0.050 C 
ATOM     26  N   UNL     1      46.918  12.863  19.366  0.00  0.00    -0.529 NA
ATOM     27  C   UNL     1      46.373  13.820  20.047  0.00  0.00    +0.221 C 
ATOM     28  C   UNL     1      45.918  13.555  21.460  0.00  0.00    +0.114 C 
ATOM     29  C   UNL     1      46.286  17.654  18.348  0.00  0.00    +0.228 C 
ENDROOT
BRANCH  16  15
ATOM      1  C   UNL     1      47.581  16.904  22.443  0.00  0.00    +0.098 C 
ATOM      2  C   UNL     1      48.547  17.137  21.309  0.00  0.00    -0.044 A 
ATOM      3  C   UNL     1      49.886  17.040  21.539  0.00  0.00    +0.011 A 
ATOM      4  C   UNL     1      50.794  17.254  20.488  0.00  0.00    +0.004 A 
ATOM      5  C   UNL     1      52.181  17.160  20.698  0.00  0.00    -0.021 A 
ATOM      6  C   UNL     1      53.039  17.372  19.663  0.00  0.00    +0.061 A 
ATOM      7  C   UNL     1      52.569  17.683  18.391  0.00  0.00    -0.101 A 
ATOM      8  C   UNL     1      51.217  17.786  18.147  0.00  0.00    +0.156 A 
ATOM     11  C   UNL     1      50.304  17.570  19.198  0.00  0.00    -0.102 A 
ATOM     12  C   UNL     1      48.915  17.664  18.990  0.00  0.00    +0.162 A 
ATOM     15  C   UNL     1      48.056  17.442  20.043  0.00  0.00    -0.112 A 
BRANCH   8   9
ATOM      9  O   UNL     1      50.767  18.091  16.902  0.00  0.00    -0.298 OA
ATOM     10  C   UNL     1      51.693  18.724  16.015  0.00  0.00    +0.240 C 
ENDBRANCH   8   9
BRANCH  12  13
ATOM     13  O   UNL     1      48.426  17.966  17.759  0.00  0.00    -0.468 OA
ATOM     14  H   UNL     1      49.107  18.156  17.101  0.00  0.00    +0.390 HD
ENDBRANCH  12  13
ENDBRANCH  16  15
BRANCH  17  18
ATOM     18  O   UNL     1      44.478  16.487  20.431  0.00  0.00    -0.374 OA
ATOM     19  C   UNL     1      44.048  17.310  21.516  0.00  0.00    +0.200 C 
ENDBRANCH  17  18
BRANCH  29  30
ATOM     30  O   UNL     1      46.149  18.877  17.789  0.00  0.00    -0.299 OA
ATOM     31  C   UNL     1      45.527  19.886  18.586  0.00  0.00    +0.250 C 
ENDBRANCH  29  30
TORSDOF 5
ENDMDL
MODEL 8
REMARK VINA RESULT:      -4.7      3.585      5.470
REMARK  Name = ZINC95486021
REMARK  11 active torsions:
REMARK  status: ('A' for Active; 'I' for Inactive)
REMARK    1  A    between atoms: C1_1  and  C2_2
REMARK    2  A    between atoms: C8_8  and  O4_32
REMARK    3  A    between atoms: C10_10  and  O3_31
REMARK    4  A    between atoms: C11_11  and  C12_12
REMARK    5  A    between atoms: C13_14  and  O2_29
REMARK    6  A    between atoms: C17_19  and  C20_24
REMARK    7  A    between atoms: C18_22  and  C19_23
REMARK    8  A    between atoms: C22_26  and  O1_27
REMARK    9  A    between atoms: O1_27  and  C23_28
REMARK   10  A    between atoms: O2_29  and  C24_30
REMARK   11  A    between atoms: O4_32  and  C25_33
REMARK                            x       y       z     vdW  Elec       q    Type
REMARK                         _______ _______ _______ _____ _____    ______ ____
ROOT
ATOM     16  C   UNL     1      47.873  14.523  17.683  0.00  0.00    +0.117 C 
ATOM     17  C   UNL     1      47.504  13.715  18.926  0.00  0.00    +0.241 C 
ATOM     20  C   UNL     1      48.709  13.574  19.818  0.00  0.00    -0.241 C 
ATOM     21  C   UNL     1      49.944  13.431  19.271  0.00  0.00    +0.038 C 
ATOM     22  C   UNL     1      50.115  13.491  17.873  0.00  0.00    -0.194 C 
ATOM     23  C   UNL     1      51.133  13.227  20.176  0.00  0.00    +0.054 C 
ATOM     24  C   UNL     1      50.922  14.005  21.474  0.00  0.00    +0.147 C 
ATOM     25  C   UNL     1      51.962  13.562  22.505  0.00  0.00    +0.050 C 
ATOM     26  N   UNL     1      49.582  13.753  22.002  0.00  0.00    -0.529 NA
ATOM     27  C   UNL     1      48.565  13.573  21.221  0.00  0.00    +0.221 C 
ATOM     28  C   UNL     1      47.200  13.357  21.822  0.00  0.00    +0.114 C 
ATOM     29  C   UNL     1      49.150  13.991  17.088  0.00  0.00    +0.228 C 
ENDROOT
BRANCH  16  15
ATOM      1  C   UNL     1      45.857  15.857  19.248  0.00  0.00    +0.098 C 
ATOM      2  C   UNL     1      47.089  16.615  18.821  0.00  0.00    -0.044 A 
ATOM      3  C   UNL     1      47.233  17.919  19.186  0.00  0.00    +0.011 A 
ATOM      4  C   UNL     1      48.378  18.633  18.794  0.00  0.00    +0.004 A 
ATOM      5  C   UNL     1      48.553  19.980  19.158  0.00  0.00    -0.021 A 
ATOM      6  C   UNL     1      49.671  20.649  18.765  0.00  0.00    +0.061 A 
ATOM      7  C   UNL     1      50.654  20.023  18.004  0.00  0.00    -0.101 A 
ATOM      8  C   UNL     1      50.518  18.705  17.627  0.00  0.00    +0.156 A 
ATOM     11  C   UNL     1      49.372  17.986  18.020  0.00  0.00    -0.102 A 
ATOM     12  C   UNL     1      49.196  16.637  17.657  0.00  0.00    +0.162 A 
ATOM     15  C   UNL     1      48.063  15.969  18.065  0.00  0.00    -0.112 A 
BRANCH   8   9
ATOM      9  O   UNL     1      51.482  18.103  16.883  0.00  0.00    -0.298 OA
ATOM     10  C   UNL     1      51.933  18.799  15.719  0.00  0.00    +0.240 C 
ENDBRANCH   8   9
BRANCH  12  13
ATOM     13  O   UNL     1      50.137  15.999  16.915  0.00  0.00    -0.468 OA
ATOM     14  H   UNL     1      49.782  15.318  16.329  0.00  0.00    +0.390 HD
ENDBRANCH  12  13
ENDBRANCH  16  15
BRANCH  17  18
ATOM     18  O   UNL     1      47.052  12.416  18.533  0.00  0.00    -0.374 OA
ATOM     19  C   UNL     1      45.884  12.432  17.710  0.00  0.00    +0.200 C 
ENDBRANCH  17  18
BRANCH  29  30
ATOM     30  O   UNL     1      49.325  14.016  15.749  0.00  0.00    -0.299 OA
ATOM     31  C   UNL     1      49.957  12.880  15.157  0.00  0.00    +0.250 C 
ENDBRANCH  29  30
TORSDOF 5
ENDMDL
MODEL 9
REMARK VINA RESULT:      -4.6      3.937      7.222
REMARK  Name = ZINC95486021
REMARK  11 active torsions:
REMARK  status: ('A' for Active; 'I' for Inactive)
REMARK    1  A    between atoms: C1_1  and  C2_2
REMARK    2  A    between atoms: C8_8  and  O4_32
REMARK    3  A    between atoms: C10_10  and  O3_31
REMARK    4  A    between atoms: C11_11  and  C12_12
REMARK    5  A    between atoms: C13_14  and  O2_29
REMARK    6  A    between atoms: C17_19  and  C20_24
REMARK    7  A    between atoms: C18_22  and  C19_23
REMARK    8  A    between atoms: C22_26  and  O1_27
REMARK    9  A    between atoms: O1_27  and  C23_28
REMARK   10  A    between atoms: O2_29  and  C24_30
REMARK   11  A    between atoms: O4_32  and  C25_33
REMARK                            x       y       z     vdW  Elec       q    Type
REMARK                         _______ _______ _______ _____ _____    ______ ____
ROOT
ATOM     16  C   UNL     1      49.885  13.580  18.874  0.00  0.00    +0.117 C 
ATOM     17  C   UNL     1      50.278  12.883  17.571  0.00  0.00    +0.241 C 
ATOM     20  C   UNL     1      49.077  12.189  16.985  0.00  0.00    -0.241 C 
ATOM     21  C   UNL     1      48.162  11.609  17.803  0.00  0.00    +0.038 C 
ATOM     22  C   UNL     1      48.288  11.717  19.203  0.00  0.00    -0.194 C 
ATOM     23  C   UNL     1      46.999  10.861  17.199  0.00  0.00    +0.054 C 
ATOM     24  C   UNL     1      46.584  11.541  15.895  0.00  0.00    +0.147 C 
ATOM     25  C   UNL     1      45.624  10.625  15.130  0.00  0.00    +0.050 C 
ATOM     26  N   UNL     1      47.759  11.806  15.066  0.00  0.00    -0.529 NA
ATOM     27  C   UNL     1      48.902  12.122  15.587  0.00  0.00    +0.221 C 
ATOM     28  C   UNL     1      50.068  12.425  14.681  0.00  0.00    +0.114 C 
ATOM     29  C   UNL     1      49.105  12.632  19.746  0.00  0.00    +0.228 C 
ENDROOT
BRANCH  16  15
ATOM      1  C   UNL     1      50.784  15.478  16.904  0.00  0.00    +0.098 C 
ATOM      2  C   UNL     1      49.470  15.704  17.608  0.00  0.00    -0.044 A 
ATOM      3  C   UNL     1      48.724  16.800  17.299  0.00  0.00    +0.011 A 
ATOM      4  C   UNL     1      47.498  17.019  17.949  0.00  0.00    +0.004 A 
ATOM      5  C   UNL     1      46.708  18.143  17.649  0.00  0.00    -0.021 A 
ATOM      6  C   UNL     1      45.524  18.332  18.293  0.00  0.00    +0.061 A 
ATOM      7  C   UNL     1      45.076  17.428  19.252  0.00  0.00    -0.101 A 
ATOM      8  C   UNL     1      45.822  16.316  19.575  0.00  0.00    +0.156 A 
ATOM     11  C   UNL     1      47.051  16.094  18.923  0.00  0.00    -0.102 A 
ATOM     12  C   UNL     1      47.844  14.969  19.223  0.00  0.00    +0.162 A 
ATOM     15  C   UNL     1      49.037  14.785  18.560  0.00  0.00    -0.112 A 
BRANCH   8   9
ATOM      9  O   UNL     1      45.377  15.441  20.513  0.00  0.00    -0.298 OA
ATOM     10  C   UNL     1      44.685  15.990  21.636  0.00  0.00    +0.240 C 
ENDBRANCH   8   9
BRANCH  12  13
ATOM     13  O   UNL     1      47.432  14.070  20.154  0.00  0.00    -0.468 OA
ATOM     14  H   UNL     1      47.686  14.296  21.058  0.00  0.00    +0.390 HD
ENDBRANCH  12  13
ENDBRANCH  16  15
BRANCH  17  18
ATOM     18  O   UNL     1      51.300  11.919  17.836  0.00  0.00    -0.374 OA
ATOM     19  C   UNL     1      52.552  12.489  18.218  0.00  0.00    +0.200 C 
ENDBRANCH  17  18
BRANCH  29  30
ATOM     30  O   UNL     1      49.229  12.703  21.089  0.00  0.00    -0.299 OA
ATOM     31  C   UNL     1      50.518  13.043  21.603  0.00  0.00    +0.250 C 
ENDBRANCH  29  30
TORSDOF 5
ENDMDL
