MODEL 1
REMARK VINA RESULT:      -6.1      0.000      0.000
REMARK  Name = ZINC95486362
REMARK  4 active torsions:
REMARK  status: ('A' for Active; 'I' for Inactive)
REMARK    1  A    between atoms: C1_1  and  C2_2
REMARK    2  A    between atoms: C6_7  and  C18_26
REMARK    3  A    between atoms: C6_7  and  C19_27
REMARK    4  A    between atoms: C19_27  and  O4_28
REMARK                            x       y       z     vdW  Elec       q    Type
REMARK                         _______ _______ _______ _____ _____    ______ ____
ROOT
ATOM      1  C   UNL     1      50.495  19.880  20.516  0.00  0.00    +0.040 C 
ATOM      2  C   UNL     1      49.617  19.804  19.258  0.00  0.00    -0.040 C 
ATOM      3  C   UNL     1      49.889  21.035  18.391  0.00  0.00    +0.049 C 
ATOM      4  C   UNL     1      51.355  21.056  17.946  0.00  0.00    +0.019 C 
ATOM      5  C   UNL     1      51.610  19.786  17.168  0.00  0.00    +0.362 C 
ATOM      6  C   UNL     1      51.230  18.458  17.777  0.00  0.00    -0.088 C 
ATOM     10  C   UNL     1      52.352  17.987  18.701  0.00  0.00    +0.067 C 
ATOM     11  O   UNL     1      52.111  19.830  16.065  0.00  0.00    -0.429 OA
ATOM     12  C   UNL     1      48.151  19.846  19.724  0.00  0.00    +0.050 C 
ATOM     13  C   UNL     1      47.401  20.905  18.906  0.00  0.00    +0.075 C 
ATOM     14  C   UNL     1      45.888  20.638  18.960  0.00  0.00    +0.072 C 
ATOM     15  C   UNL     1      45.588  19.281  18.254  0.00  0.00    -0.084 C 
ATOM     16  C   UNL     1      46.808  18.350  18.202  0.00  0.00    +0.409 C 
ATOM     17  O   UNL     1      47.165  17.654  17.281  0.00  0.00    -0.405 OA
ATOM     18  C   UNL     1      45.293  19.484  19.745  0.00  0.00    -0.043 C 
ATOM     19  C   UNL     1      46.229  18.558  20.501  0.00  0.00    +0.402 C 
ATOM     20  O   UNL     1      46.063  18.002  21.558  0.00  0.00    -0.401 OA
ATOM     21  C   UNL     1      47.450  18.505  19.564  0.00  0.00    -0.159 C 
ATOM     22  C   UNL     1      48.274  17.305  19.965  0.00  0.00    +0.047 C 
ATOM     23  C   UNL     1      49.675  17.303  19.367  0.00  0.00    +0.038 C 
ATOM     24  C   UNL     1      49.881  18.527  18.479  0.00  0.00    +0.014 C 
ENDROOT
BRANCH   6   7
ATOM      7  C   UNL     1      51.123  17.441  16.619  0.00  0.00    +0.184 C 
BRANCH   7   8
ATOM      8  O   UNL     1      52.417  16.903  16.337  0.00  0.00    -0.556 OA
ATOM      9  H   UNL     1      52.724  16.256  16.988  0.00  0.00    +0.378 HD
ENDBRANCH   7   8
ENDBRANCH   6   7
TORSDOF 2
ENDMDL
MODEL 2
REMARK VINA RESULT:      -5.7      2.987      5.230
REMARK  Name = ZINC95486362
REMARK  4 active torsions:
REMARK  status: ('A' for Active; 'I' for Inactive)
REMARK    1  A    between atoms: C1_1  and  C2_2
REMARK    2  A    between atoms: C6_7  and  C18_26
REMARK    3  A    between atoms: C6_7  and  C19_27
REMARK    4  A    between atoms: C19_27  and  O4_28
REMARK                            x       y       z     vdW  Elec       q    Type
REMARK                         _______ _______ _______ _____ _____    ______ ____
ROOT
ATOM      1  C   UNL     1      46.096  18.281  18.215  0.00  0.00    +0.040 C 
ATOM      2  C   UNL     1      45.921  18.475  19.729  0.00  0.00    -0.040 C 
ATOM      3  C   UNL     1      46.679  17.364  20.459  0.00  0.00    +0.049 C 
ATOM      4  C   UNL     1      48.175  17.446  20.140  0.00  0.00    +0.019 C 
ATOM      5  C   UNL     1      48.660  18.806  20.583  0.00  0.00    +0.362 C 
ATOM      6  C   UNL     1      47.921  20.040  20.121  0.00  0.00    -0.088 C 
ATOM     10  C   UNL     1      48.421  20.436  18.733  0.00  0.00    +0.067 C 
ATOM     11  O   UNL     1      49.627  18.910  21.306  0.00  0.00    -0.429 OA
ATOM     12  C   UNL     1      44.420  18.327  20.035  0.00  0.00    +0.050 C 
ATOM     13  C   UNL     1      44.246  17.348  21.202  0.00  0.00    +0.075 C 
ATOM     14  C   UNL     1      42.874  17.555  21.863  0.00  0.00    +0.072 C 
ATOM     15  C   UNL     1      42.830  18.975  22.505  0.00  0.00    -0.084 C 
ATOM     16  C   UNL     1      43.842  19.946  21.879  0.00  0.00    +0.409 C 
ATOM     17  O   UNL     1      44.533  20.758  22.448  0.00  0.00    -0.405 OA
ATOM     18  C   UNL     1      41.879  18.587  21.366  0.00  0.00    -0.043 C 
ATOM     19  C   UNL     1      42.256  19.448  20.175  0.00  0.00    +0.402 C 
ATOM     20  O   UNL     1      41.559  19.870  19.286  0.00  0.00    -0.401 OA
ATOM     21  C   UNL     1      43.767  19.654  20.396  0.00  0.00    -0.159 C 
ATOM     22  C   UNL     1      44.192  20.825  19.544  0.00  0.00    +0.047 C 
ATOM     23  C   UNL     1      45.703  20.945  19.388  0.00  0.00    +0.038 C 
ATOM     24  C   UNL     1      46.412  19.843  20.168  0.00  0.00    +0.014 C 
ENDROOT
BRANCH   6   7
ATOM      7  C   UNL     1      48.292  21.182  21.093  0.00  0.00    +0.184 C 
BRANCH   7   8
ATOM      8  O   UNL     1      47.619  20.985  22.339  0.00  0.00    -0.556 OA
ATOM      9  H   UNL     1      46.974  21.675  22.551  0.00  0.00    +0.378 HD
ENDBRANCH   7   8
ENDBRANCH   6   7
TORSDOF 2
ENDMDL
MODEL 3
REMARK VINA RESULT:      -5.5      2.117      5.084
REMARK  Name = ZINC95486362
REMARK  4 active torsions:
REMARK  status: ('A' for Active; 'I' for Inactive)
REMARK    1  A    between atoms: C1_1  and  C2_2
REMARK    2  A    between atoms: C6_7  and  C18_26
REMARK    3  A    between atoms: C6_7  and  C19_27
REMARK    4  A    between atoms: C19_27  and  O4_28
REMARK                            x       y       z     vdW  Elec       q    Type
REMARK                         _______ _______ _______ _____ _____    ______ ____
ROOT
ATOM      1  C   UNL     1      50.149  16.127  19.668  0.00  0.00    +0.040 C 
ATOM      2  C   UNL     1      49.794  17.327  18.777  0.00  0.00    -0.040 C 
ATOM      3  C   UNL     1      49.623  16.839  17.337  0.00  0.00    +0.049 C 
ATOM      4  C   UNL     1      48.473  15.829  17.253  0.00  0.00    +0.019 C 
ATOM      5  C   UNL     1      47.222  16.525  17.736  0.00  0.00    +0.362 C 
ATOM      6  C   UNL     1      47.242  17.242  19.065  0.00  0.00    -0.088 C 
ATOM     10  C   UNL     1      46.980  16.235  20.184  0.00  0.00    +0.067 C 
ATOM     11  O   UNL     1      46.213  16.515  17.063  0.00  0.00    -0.429 OA
ATOM     12  C   UNL     1      50.986  18.298  18.827  0.00  0.00    +0.050 C 
ATOM     13  C   UNL     1      51.369  18.688  17.394  0.00  0.00    +0.075 C 
ATOM     14  C   UNL     1      52.173  19.998  17.400  0.00  0.00    +0.072 C 
ATOM     15  C   UNL     1      51.257  21.152  17.911  0.00  0.00    -0.084 C 
ATOM     16  C   UNL     1      50.077  20.649  18.756  0.00  0.00    +0.409 C 
ATOM     17  O   UNL     1      48.934  21.041  18.733  0.00  0.00    -0.405 OA
ATOM     18  C   UNL     1      52.516  20.735  18.682  0.00  0.00    -0.043 C 
ATOM     19  C   UNL     1      52.044  20.158  20.003  0.00  0.00    +0.402 C 
ATOM     20  O   UNL     1      52.588  20.166  21.079  0.00  0.00    -0.401 OA
ATOM     21  C   UNL     1      50.677  19.560  19.620  0.00  0.00    -0.159 C 
ATOM     22  C   UNL     1      49.908  19.335  20.899  0.00  0.00    +0.047 C 
ATOM     23  C   UNL     1      48.685  18.444  20.723  0.00  0.00    +0.038 C 
ATOM     24  C   UNL     1      48.534  18.021  19.266  0.00  0.00    +0.014 C 
ENDROOT
BRANCH   6   7
ATOM      7  C   UNL     1      46.066  18.245  19.057  0.00  0.00    +0.184 C 
BRANCH   7   8
ATOM      8  O   UNL     1      46.376  19.334  18.185  0.00  0.00    -0.556 OA
ATOM      9  H   UNL     1      47.302  19.610  18.213  0.00  0.00    +0.378 HD
ENDBRANCH   7   8
ENDBRANCH   6   7
TORSDOF 2
ENDMDL
MODEL 4
REMARK VINA RESULT:      -5.5      2.614      5.115
REMARK  Name = ZINC95486362
REMARK  4 active torsions:
REMARK  status: ('A' for Active; 'I' for Inactive)
REMARK    1  A    between atoms: C1_1  and  C2_2
REMARK    2  A    between atoms: C6_7  and  C18_26
REMARK    3  A    between atoms: C6_7  and  C19_27
REMARK    4  A    between atoms: C19_27  and  O4_28
REMARK                            x       y       z     vdW  Elec       q    Type
REMARK                         _______ _______ _______ _____ _____    ______ ____
ROOT
ATOM      1  C   UNL     1      48.392  17.379  17.020  0.00  0.00    +0.040 C 
ATOM      2  C   UNL     1      49.432  17.501  18.144  0.00  0.00    -0.040 C 
ATOM      3  C   UNL     1      48.761  17.153  19.475  0.00  0.00    +0.049 C 
ATOM      4  C   UNL     1      48.255  15.708  19.452  0.00  0.00    +0.019 C 
ATOM      5  C   UNL     1      49.448  14.814  19.203  0.00  0.00    +0.362 C 
ATOM      6  C   UNL     1      50.359  15.107  18.035  0.00  0.00    -0.088 C 
ATOM     10  C   UNL     1      49.770  14.487  16.769  0.00  0.00    +0.067 C 
ATOM     11  O   UNL     1      49.677  13.874  19.934  0.00  0.00    -0.429 OA
ATOM     12  C   UNL     1      49.880  18.972  18.190  0.00  0.00    +0.050 C 
ATOM     13  C   UNL     1      49.800  19.470  19.638  0.00  0.00    +0.075 C 
ATOM     14  C   UNL     1      50.691  20.709  19.819  0.00  0.00    +0.072 C 
ATOM     15  C   UNL     1      52.180  20.299  19.604  0.00  0.00    -0.084 C 
ATOM     16  C   UNL     1      52.333  19.019  18.770  0.00  0.00    +0.409 C 
ATOM     17  O   UNL     1      53.108  18.110  18.951  0.00  0.00    -0.405 OA
ATOM     18  C   UNL     1      51.491  21.309  18.678  0.00  0.00    -0.043 C 
ATOM     19  C   UNL     1      51.411  20.657  17.310  0.00  0.00    +0.402 C 
ATOM     20  O   UNL     1      51.434  21.168  16.218  0.00  0.00    -0.401 OA
ATOM     21  C   UNL     1      51.298  19.165  17.674  0.00  0.00    -0.159 C 
ATOM     22  C   UNL     1      51.638  18.372  16.436  0.00  0.00    +0.047 C 
ATOM     23  C   UNL     1      51.249  16.902  16.531  0.00  0.00    +0.038 C 
ATOM     24  C   UNL     1      50.626  16.598  17.890  0.00  0.00    +0.014 C 
ENDROOT
BRANCH   6   7
ATOM      7  C   UNL     1      51.703  14.398  18.318  0.00  0.00    +0.184 C 
BRANCH   7   8
ATOM      8  O   UNL     1      52.413  15.112  19.333  0.00  0.00    -0.556 OA
ATOM      9  H   UNL     1      52.020  15.037  20.214  0.00  0.00    +0.378 HD
ENDBRANCH   7   8
ENDBRANCH   6   7
TORSDOF 2
ENDMDL
MODEL 5
REMARK VINA RESULT:      -5.4      3.202      5.043
REMARK  Name = ZINC95486362
REMARK  4 active torsions:
REMARK  status: ('A' for Active; 'I' for Inactive)
REMARK    1  A    between atoms: C1_1  and  C2_2
REMARK    2  A    between atoms: C6_7  and  C18_26
REMARK    3  A    between atoms: C6_7  and  C19_27
REMARK    4  A    between atoms: C19_27  and  O4_28
REMARK                            x       y       z     vdW  Elec       q    Type
REMARK                         _______ _______ _______ _____ _____    ______ ____
ROOT
ATOM      1  C   UNL     1      48.488  19.527  19.234  0.00  0.00    +0.040 C 
ATOM      2  C   UNL     1      46.972  19.607  19.467  0.00  0.00    -0.040 C 
ATOM      3  C   UNL     1      46.252  19.208  18.176  0.00  0.00    +0.049 C 
ATOM      4  C   UNL     1      46.599  17.763  17.803  0.00  0.00    +0.019 C 
ATOM      5  C   UNL     1      46.168  16.882  18.952  0.00  0.00    +0.362 C 
ATOM      6  C   UNL     1      46.620  17.221  20.352  0.00  0.00    -0.088 C 
ATOM     10  C   UNL     1      48.018  16.650  20.582  0.00  0.00    +0.067 C 
ATOM     11  O   UNL     1      45.463  15.915  18.755  0.00  0.00    -0.429 OA
ATOM     12  C   UNL     1      46.638  21.076  19.780  0.00  0.00    +0.050 C 
ATOM     13  C   UNL     1      45.465  21.518  18.895  0.00  0.00    +0.075 C 
ATOM     14  C   UNL     1      44.780  22.751  19.506  0.00  0.00    +0.072 C 
ATOM     15  C   UNL     1      44.141  22.352  20.871  0.00  0.00    -0.084 C 
ATOM     16  C   UNL     1      44.788  21.105  21.492  0.00  0.00    +0.409 C 
ATOM     17  O   UNL     1      44.234  20.190  22.055  0.00  0.00    -0.405 OA
ATOM     18  C   UNL     1      45.262  23.396  20.792  0.00  0.00    -0.043 C 
ATOM     19  C   UNL     1      46.462  22.797  21.502  0.00  0.00    +0.402 C 
ATOM     20  O   UNL     1      47.339  23.349  22.118  0.00  0.00    -0.401 OA
ATOM     21  C   UNL     1      46.269  21.291  21.240  0.00  0.00    -0.159 C 
ATOM     22  C   UNL     1      47.131  20.547  22.230  0.00  0.00    +0.047 C 
ATOM     23  C   UNL     1      47.315  19.074  21.888  0.00  0.00    +0.038 C 
ATOM     24  C   UNL     1      46.545  18.718  20.621  0.00  0.00    +0.014 C 
ENDROOT
BRANCH   6   7
ATOM      7  C   UNL     1      45.658  16.504  21.326  0.00  0.00    +0.184 C 
BRANCH   7   8
ATOM      8  O   UNL     1      44.385  17.154  21.302  0.00  0.00    -0.556 OA
ATOM      9  H   UNL     1      44.312  17.899  21.915  0.00  0.00    +0.378 HD
ENDBRANCH   7   8
ENDBRANCH   6   7
TORSDOF 2
ENDMDL
MODEL 6
REMARK VINA RESULT:      -5.3      1.796      5.423
REMARK  Name = ZINC95486362
REMARK  4 active torsions:
REMARK  status: ('A' for Active; 'I' for Inactive)
REMARK    1  A    between atoms: C1_1  and  C2_2
REMARK    2  A    between atoms: C6_7  and  C18_26
REMARK    3  A    between atoms: C6_7  and  C19_27
REMARK    4  A    between atoms: C19_27  and  O4_28
REMARK                            x       y       z     vdW  Elec       q    Type
REMARK                         _______ _______ _______ _____ _____    ______ ____
ROOT
ATOM      1  C   UNL     1      48.007  16.586  19.902  0.00  0.00    +0.040 C 
ATOM      2  C   UNL     1      48.223  17.754  18.928  0.00  0.00    -0.040 C 
ATOM      3  C   UNL     1      47.430  17.481  17.648  0.00  0.00    +0.049 C 
ATOM      4  C   UNL     1      45.933  17.396  17.960  0.00  0.00    +0.019 C 
ATOM      5  C   UNL     1      45.522  18.714  18.575  0.00  0.00    +0.362 C 
ATOM      6  C   UNL     1      46.308  19.260  19.743  0.00  0.00    -0.088 C 
ATOM     10  C   UNL     1      45.796  18.624  21.035  0.00  0.00    +0.067 C 
ATOM     11  O   UNL     1      44.577  19.331  18.134  0.00  0.00    -0.429 OA
ATOM     12  C   UNL     1      49.722  17.782  18.580  0.00  0.00    +0.050 C 
ATOM     13  C   UNL     1      49.876  17.858  17.056  0.00  0.00    +0.075 C 
ATOM     14  C   UNL     1      51.270  18.393  16.693  0.00  0.00    +0.072 C 
ATOM     15  C   UNL     1      51.395  19.864  17.195  0.00  0.00    -0.084 C 
ATOM     16  C   UNL     1      50.416  20.193  18.331  0.00  0.00    +0.409 C 
ATOM     17  O   UNL     1      49.776  21.207  18.482  0.00  0.00    -0.405 OA
ATOM     18  C   UNL     1      52.301  18.756  17.745  0.00  0.00    -0.043 C 
ATOM     19  C   UNL     1      51.938  18.588  19.209  0.00  0.00    +0.402 C 
ATOM     20  O   UNL     1      52.635  18.254  20.135  0.00  0.00    -0.401 OA
ATOM     21  C   UNL     1      50.444  18.962  19.213  0.00  0.00    -0.159 C 
ATOM     22  C   UNL     1      50.056  19.254  20.642  0.00  0.00    +0.047 C 
ATOM     23  C   UNL     1      48.549  19.309  20.862  0.00  0.00    +0.038 C 
ATOM     24  C   UNL     1      47.806  19.074  19.550  0.00  0.00    +0.014 C 
ENDROOT
BRANCH   6   7
ATOM      7  C   UNL     1      46.012  20.775  19.821  0.00  0.00    +0.184 C 
BRANCH   7   8
ATOM      8  O   UNL     1      46.292  21.380  18.557  0.00  0.00    -0.556 OA
ATOM      9  H   UNL     1      46.395  22.341  18.595  0.00  0.00    +0.378 HD
ENDBRANCH   7   8
ENDBRANCH   6   7
TORSDOF 2
ENDMDL
MODEL 7
REMARK VINA RESULT:      -5.2      3.146      4.490
REMARK  Name = ZINC95486362
REMARK  4 active torsions:
REMARK  status: ('A' for Active; 'I' for Inactive)
REMARK    1  A    between atoms: C1_1  and  C2_2
REMARK    2  A    between atoms: C6_7  and  C18_26
REMARK    3  A    between atoms: C6_7  and  C19_27
REMARK    4  A    between atoms: C19_27  and  O4_28
REMARK                            x       y       z     vdW  Elec       q    Type
REMARK                         _______ _______ _______ _____ _____    ______ ____
ROOT
ATOM      1  C   UNL     1      48.387  18.579  18.812  0.00  0.00    +0.040 C 
ATOM      2  C   UNL     1      46.889  18.242  18.849  0.00  0.00    -0.040 C 
ATOM      3  C   UNL     1      46.401  18.004  17.418  0.00  0.00    +0.049 C 
ATOM      4  C   UNL     1      47.140  16.814  16.798  0.00  0.00    +0.019 C 
ATOM      5  C   UNL     1      46.866  15.607  17.666  0.00  0.00    +0.362 C 
ATOM      6  C   UNL     1      47.103  15.699  19.154  0.00  0.00    -0.088 C 
ATOM     10  C   UNL     1      48.579  15.435  19.446  0.00  0.00    +0.067 C 
ATOM     11  O   UNL     1      46.455  14.577  17.176  0.00  0.00    -0.429 OA
ATOM     12  C   UNL     1      46.161  19.472  19.418  0.00  0.00    +0.050 C 
ATOM     13  C   UNL     1      44.986  19.823  18.496  0.00  0.00    +0.075 C 
ATOM     14  C   UNL     1      43.958  20.677  19.254  0.00  0.00    +0.072 C 
ATOM     15  C   UNL     1      43.341  19.824  20.405  0.00  0.00    -0.084 C 
ATOM     16  C   UNL     1      44.239  18.654  20.830  0.00  0.00    +0.409 C 
ATOM     17  O   UNL     1      43.901  17.527  21.107  0.00  0.00    -0.405 OA
ATOM     18  C   UNL     1      44.153  21.091  20.701  0.00  0.00    -0.043 C 
ATOM     19  C   UNL     1      45.409  20.640  21.425  0.00  0.00    +0.402 C 
ATOM     20  O   UNL     1      46.061  21.220  22.257  0.00  0.00    -0.401 OA
ATOM     21  C   UNL     1      45.636  19.239  20.827  0.00  0.00    -0.159 C 
ATOM     22  C   UNL     1      46.583  18.505  21.745  0.00  0.00    +0.047 C 
ATOM     23  C   UNL     1      47.170  17.242  21.127  0.00  0.00    +0.038 C 
ATOM     24  C   UNL     1      46.620  17.027  19.720  0.00  0.00    +0.014 C 
ENDROOT
BRANCH   6   7
ATOM      7  C   UNL     1      46.288  14.564  19.815  0.00  0.00    +0.184 C 
BRANCH   7   8
ATOM      8  O   UNL     1      44.894  14.869  19.732  0.00  0.00    -0.556 OA
ATOM      9  H   UNL     1      44.704  15.751  19.384  0.00  0.00    +0.378 HD
ENDBRANCH   7   8
ENDBRANCH   6   7
TORSDOF 2
ENDMDL
MODEL 8
REMARK VINA RESULT:      -5.2      3.820      6.124
REMARK  Name = ZINC95486362
REMARK  4 active torsions:
REMARK  status: ('A' for Active; 'I' for Inactive)
REMARK    1  A    between atoms: C1_1  and  C2_2
REMARK    2  A    between atoms: C6_7  and  C18_26
REMARK    3  A    between atoms: C6_7  and  C19_27
REMARK    4  A    between atoms: C19_27  and  O4_28
REMARK                            x       y       z     vdW  Elec       q    Type
REMARK                         _______ _______ _______ _____ _____    ______ ____
ROOT
ATOM      1  C   UNL     1      47.459  20.354  19.802  0.00  0.00    +0.040 C 
ATOM      2  C   UNL     1      46.215  20.067  20.657  0.00  0.00    -0.040 C 
ATOM      3  C   UNL     1      46.401  20.717  22.030  0.00  0.00    +0.049 C 
ATOM      4  C   UNL     1      46.535  22.236  21.883  0.00  0.00    +0.019 C 
ATOM      5  C   UNL     1      45.277  22.741  21.217  0.00  0.00    +0.362 C 
ATOM      6  C   UNL     1      44.810  22.094  19.934  0.00  0.00    -0.088 C 
ATOM     10  C   UNL     1      45.554  22.720  18.755  0.00  0.00    +0.067 C 
ATOM     11  O   UNL     1      44.644  23.651  21.706  0.00  0.00    -0.429 OA
ATOM     12  C   UNL     1      46.134  18.542  20.843  0.00  0.00    +0.050 C 
ATOM     13  C   UNL     1      45.937  18.234  22.332  0.00  0.00    +0.075 C 
ATOM     14  C   UNL     1      45.351  16.824  22.505  0.00  0.00    +0.072 C 
ATOM     15  C   UNL     1      43.922  16.788  21.883  0.00  0.00    -0.084 C 
ATOM     16  C   UNL     1      43.700  17.887  20.833  0.00  0.00    +0.409 C 
ATOM     17  O   UNL     1      42.712  18.564  20.673  0.00  0.00    -0.405 OA
ATOM     18  C   UNL     1      45.054  15.916  21.326  0.00  0.00    -0.043 C 
ATOM     19  C   UNL     1      45.342  16.423  19.925  0.00  0.00    +0.402 C 
ATOM     20  O   UNL     1      45.736  15.818  18.959  0.00  0.00    -0.401 OA
ATOM     21  C   UNL     1      44.995  17.919  20.050  0.00  0.00    -0.159 C 
ATOM     22  C   UNL     1      44.823  18.460  18.651  0.00  0.00    +0.047 C 
ATOM     23  C   UNL     1      44.811  19.982  18.587  0.00  0.00    +0.038 C 
ATOM     24  C   UNL     1      44.955  20.579  19.983  0.00  0.00    +0.014 C 
ENDROOT
BRANCH   6   7
ATOM      7  C   UNL     1      43.312  22.434  19.773  0.00  0.00    +0.184 C 
BRANCH   7   8
ATOM      8  O   UNL     1      43.178  23.701  19.124  0.00  0.00    -0.556 OA
ATOM      9  H   UNL     1      42.271  23.920  18.872  0.00  0.00    +0.378 HD
ENDBRANCH   7   8
ENDBRANCH   6   7
TORSDOF 2
ENDMDL
MODEL 9
REMARK VINA RESULT:      -5.2      2.299      3.659
REMARK  Name = ZINC95486362
REMARK  4 active torsions:
REMARK  status: ('A' for Active; 'I' for Inactive)
REMARK    1  A    between atoms: C1_1  and  C2_2
REMARK    2  A    between atoms: C6_7  and  C18_26
REMARK    3  A    between atoms: C6_7  and  C19_27
REMARK    4  A    between atoms: C19_27  and  O4_28
REMARK                            x       y       z     vdW  Elec       q    Type
REMARK                         _______ _______ _______ _____ _____    ______ ____
ROOT
ATOM      1  C   UNL     1      47.624  17.299  21.314  0.00  0.00    +0.040 C 
ATOM      2  C   UNL     1      47.243  18.310  20.223  0.00  0.00    -0.040 C 
ATOM      3  C   UNL     1      48.520  18.961  19.687  0.00  0.00    +0.049 C 
ATOM      4  C   UNL     1      49.430  17.903  19.057  0.00  0.00    +0.019 C 
ATOM      5  C   UNL     1      48.654  17.246  17.939  0.00  0.00    +0.362 C 
ATOM      6  C   UNL     1      47.274  16.702  18.219  0.00  0.00    -0.088 C 
ATOM     10  C   UNL     1      47.396  15.298  18.811  0.00  0.00    +0.067 C 
ATOM     11  O   UNL     1      49.130  17.159  16.827  0.00  0.00    -0.429 OA
ATOM     12  C   UNL     1      46.382  19.396  20.891  0.00  0.00    +0.050 C 
ATOM     13  C   UNL     1      46.932  20.774  20.503  0.00  0.00    +0.075 C 
ATOM     14  C   UNL     1      45.852  21.848  20.702  0.00  0.00    +0.072 C 
ATOM     15  C   UNL     1      44.679  21.578  19.711  0.00  0.00    -0.084 C 
ATOM     16  C   UNL     1      44.623  20.118  19.236  0.00  0.00    +0.409 C 
ATOM     17  O   UNL     1      44.390  19.715  18.121  0.00  0.00    -0.405 OA
ATOM     18  C   UNL     1      44.466  21.521  21.228  0.00  0.00    -0.043 C 
ATOM     19  C   UNL     1      44.137  20.078  21.566  0.00  0.00    +0.402 C 
ATOM     20  O   UNL     1      43.441  19.639  22.447  0.00  0.00    -0.401 OA
ATOM     21  C   UNL     1      44.918  19.311  20.482  0.00  0.00    -0.159 C 
ATOM     22  C   UNL     1      44.354  17.913  20.424  0.00  0.00    +0.047 C 
ATOM     23  C   UNL     1      45.231  16.936  19.650  0.00  0.00    +0.038 C 
ATOM     24  C   UNL     1      46.466  17.643  19.102  0.00  0.00    +0.014 C 
ENDROOT
BRANCH   6   7
ATOM      7  C   UNL     1      46.552  16.572  16.859  0.00  0.00    +0.184 C 
BRANCH   7   8
ATOM      8  O   UNL     1      46.947  15.353  16.225  0.00  0.00    -0.556 OA
ATOM      9  H   UNL     1      47.359  15.477  15.358  0.00  0.00    +0.378 HD
ENDBRANCH   7   8
ENDBRANCH   6   7
TORSDOF 2
ENDMDL
