MODEL 1
REMARK VINA RESULT:      -5.1      0.000      0.000
REMARK  Name = ZINC95486280
REMARK  6 active torsions:
REMARK  status: ('A' for Active; 'I' for Inactive)
REMARK    1  A    between atoms: C1_1  and  O1_2
REMARK    2  A    between atoms: O1_2  and  C2_3
REMARK    3  A    between atoms: C7_8  and  O2_9
REMARK    4  A    between atoms: O2_9  and  C8_10
REMARK    5  A    between atoms: C13_17  and  O4_18
REMARK    6  A    between atoms: O4_18  and  C14_19
REMARK                            x       y       z     vdW  Elec       q    Type
REMARK                         _______ _______ _______ _____ _____    ______ ____
ROOT
ATOM      3  C   UNL     1      47.127  19.294  19.179  0.00  0.00    +0.130 A 
ATOM      4  C   UNL     1      47.396  20.589  19.633  0.00  0.00    -0.027 A 
ATOM      5  C   UNL     1      46.403  21.514  19.735  0.00  0.00    +0.092 A 
ATOM      6  C   UNL     1      45.087  21.172  19.380  0.00  0.00    -0.119 A 
ATOM      7  C   UNL     1      44.800  19.863  18.918  0.00  0.00    +0.167 A 
ATOM      8  N   UNL     1      43.552  19.526  18.580  0.00  0.00    -0.436 NA
ATOM      9  C   UNL     1      42.556  20.394  18.664  0.00  0.00    +0.138 A 
ATOM     10  C   UNL     1      41.119  20.313  18.370  0.00  0.00    -0.038 A 
ATOM     11  C   UNL     1      40.607  21.519  18.650  0.00  0.00    +0.271 A 
ATOM     12  O   UNL     1      41.571  22.344  19.089  0.00  0.00    -0.190 OA
ATOM     13  C   UNL     1      42.766  21.714  19.115  0.00  0.00    -0.025 A 
ATOM     14  C   UNL     1      44.042  22.114  19.479  0.00  0.00    +0.179 A 
ATOM     17  C   UNL     1      45.848  18.926  18.818  0.00  0.00    +0.072 A 
ENDROOT
BRANCH   3   2
ATOM      1  C   UNL     1      49.424  18.890  18.713  0.00  0.00    +0.245 C 
ATOM      2  O   UNL     1      48.139  18.390  19.088  0.00  0.00    -0.299 OA
ENDBRANCH   3   2
BRANCH  14  15
ATOM     15  O   UNL     1      44.279  23.377  19.916  0.00  0.00    -0.322 OA
ATOM     16  C   UNL     1      44.369  24.401  18.925  0.00  0.00    +0.244 C 
ENDBRANCH  14  15
BRANCH  17  18
ATOM     18  O   UNL     1      45.600  17.664  18.373  0.00  0.00    -0.305 OA
ATOM     19  C   UNL     1      45.393  16.656  19.363  0.00  0.00    +0.223 C 
ENDBRANCH  17  18
TORSDOF 3
ENDMDL
MODEL 2
REMARK VINA RESULT:      -4.8      2.351      5.777
REMARK  Name = ZINC95486280
REMARK  6 active torsions:
REMARK  status: ('A' for Active; 'I' for Inactive)
REMARK    1  A    between atoms: C1_1  and  O1_2
REMARK    2  A    between atoms: O1_2  and  C2_3
REMARK    3  A    between atoms: C7_8  and  O2_9
REMARK    4  A    between atoms: O2_9  and  C8_10
REMARK    5  A    between atoms: C13_17  and  O4_18
REMARK    6  A    between atoms: O4_18  and  C14_19
REMARK                            x       y       z     vdW  Elec       q    Type
REMARK                         _______ _______ _______ _____ _____    ______ ____
ROOT
ATOM      3  C   UNL     1      44.512  20.268  19.998  0.00  0.00    +0.130 A 
ATOM      4  C   UNL     1      45.254  20.463  18.829  0.00  0.00    -0.027 A 
ATOM      5  C   UNL     1      45.816  19.410  18.175  0.00  0.00    +0.092 A 
ATOM      6  C   UNL     1      45.654  18.107  18.674  0.00  0.00    -0.119 A 
ATOM      7  C   UNL     1      44.904  17.895  19.858  0.00  0.00    +0.167 A 
ATOM      8  N   UNL     1      44.743  16.660  20.342  0.00  0.00    -0.436 NA
ATOM      9  C   UNL     1      45.271  15.607  19.737  0.00  0.00    +0.138 A 
ATOM     10  C   UNL     1      45.261  14.167  20.027  0.00  0.00    -0.038 A 
ATOM     11  C   UNL     1      45.973  13.581  19.054  0.00  0.00    +0.271 A 
ATOM     12  O   UNL     1      46.424  14.503  18.187  0.00  0.00    -0.190 OA
ATOM     13  C   UNL     1      46.028  15.741  18.555  0.00  0.00    -0.025 A 
ATOM     14  C   UNL     1      46.226  17.000  18.012  0.00  0.00    +0.179 A 
ATOM     17  C   UNL     1      44.337  19.004  20.519  0.00  0.00    +0.072 A 
ENDROOT
BRANCH   3   2
ATOM      1  C   UNL     1      44.211  22.627  20.062  0.00  0.00    +0.245 C 
ATOM      2  O   UNL     1      43.961  21.339  20.630  0.00  0.00    -0.299 OA
ENDBRANCH   3   2
BRANCH  14  15
ATOM     15  O   UNL     1      46.951  17.165  16.876  0.00  0.00    -0.322 OA
ATOM     16  C   UNL     1      48.373  17.136  17.004  0.00  0.00    +0.244 C 
ENDBRANCH  14  15
BRANCH  17  18
ATOM     18  O   UNL     1      43.618  18.828  21.660  0.00  0.00    -0.305 OA
ATOM     19  C   UNL     1      42.209  18.640  21.516  0.00  0.00    +0.223 C 
ENDBRANCH  17  18
TORSDOF 3
ENDMDL
MODEL 3
REMARK VINA RESULT:      -4.8      2.885      4.067
REMARK  Name = ZINC95486280
REMARK  6 active torsions:
REMARK  status: ('A' for Active; 'I' for Inactive)
REMARK    1  A    between atoms: C1_1  and  O1_2
REMARK    2  A    between atoms: O1_2  and  C2_3
REMARK    3  A    between atoms: C7_8  and  O2_9
REMARK    4  A    between atoms: O2_9  and  C8_10
REMARK    5  A    between atoms: C13_17  and  O4_18
REMARK    6  A    between atoms: O4_18  and  C14_19
REMARK                            x       y       z     vdW  Elec       q    Type
REMARK                         _______ _______ _______ _____ _____    ______ ____
ROOT
ATOM      3  C   UNL     1      46.977  15.565  17.817  0.00  0.00    +0.130 A 
ATOM      4  C   UNL     1      47.005  16.774  17.116  0.00  0.00    -0.027 A 
ATOM      5  C   UNL     1      46.284  17.846  17.543  0.00  0.00    +0.092 A 
ATOM      6  C   UNL     1      45.497  17.745  18.702  0.00  0.00    -0.119 A 
ATOM      7  C   UNL     1      45.458  16.525  19.423  0.00  0.00    +0.167 A 
ATOM      8  N   UNL     1      44.714  16.417  20.527  0.00  0.00    -0.436 NA
ATOM      9  C   UNL     1      43.997  17.435  20.978  0.00  0.00    +0.138 A 
ATOM     10  C   UNL     1      43.108  17.608  22.134  0.00  0.00    -0.038 A 
ATOM     11  C   UNL     1      42.657  18.869  22.079  0.00  0.00    +0.271 A 
ATOM     12  O   UNL     1      43.173  19.501  21.012  0.00  0.00    -0.190 OA
ATOM     13  C   UNL     1      43.987  18.680  20.315  0.00  0.00    -0.025 A 
ATOM     14  C   UNL     1      44.742  18.844  19.164  0.00  0.00    +0.179 A 
ATOM     17  C   UNL     1      46.211  15.429  18.955  0.00  0.00    +0.072 A 
ENDROOT
BRANCH   3   2
ATOM      1  C   UNL     1      47.267  13.881  16.162  0.00  0.00    +0.245 C 
ATOM      2  O   UNL     1      47.708  14.511  17.367  0.00  0.00    -0.299 OA
ENDBRANCH   3   2
BRANCH  14  15
ATOM     15  O   UNL     1      44.754  20.028  18.501  0.00  0.00    -0.322 OA
ATOM     16  C   UNL     1      45.581  21.062  19.035  0.00  0.00    +0.244 C 
ENDBRANCH  14  15
BRANCH  17  18
ATOM     18  O   UNL     1      46.187  14.245  19.626  0.00  0.00    -0.305 OA
ATOM     19  C   UNL     1      45.184  13.304  19.244  0.00  0.00    +0.223 C 
ENDBRANCH  17  18
TORSDOF 3
ENDMDL
MODEL 4
REMARK VINA RESULT:      -4.6      2.378      4.200
REMARK  Name = ZINC95486280
REMARK  6 active torsions:
REMARK  status: ('A' for Active; 'I' for Inactive)
REMARK    1  A    between atoms: C1_1  and  O1_2
REMARK    2  A    between atoms: O1_2  and  C2_3
REMARK    3  A    between atoms: C7_8  and  O2_9
REMARK    4  A    between atoms: O2_9  and  C8_10
REMARK    5  A    between atoms: C13_17  and  O4_18
REMARK    6  A    between atoms: O4_18  and  C14_19
REMARK                            x       y       z     vdW  Elec       q    Type
REMARK                         _______ _______ _______ _____ _____    ______ ____
ROOT
ATOM      3  C   UNL     1      46.214  15.470  18.391  0.00  0.00    +0.130 A 
ATOM      4  C   UNL     1      45.463  15.199  19.539  0.00  0.00    -0.027 A 
ATOM      5  C   UNL     1      44.896  16.207  20.256  0.00  0.00    +0.092 A 
ATOM      6  C   UNL     1      45.063  17.540  19.846  0.00  0.00    -0.119 A 
ATOM      7  C   UNL     1      45.823  17.829  18.684  0.00  0.00    +0.167 A 
ATOM      8  N   UNL     1      45.988  19.093  18.284  0.00  0.00    -0.436 NA
ATOM      9  C   UNL     1      45.454  20.104  18.951  0.00  0.00    +0.138 A 
ATOM     10  C   UNL     1      45.463  21.560  18.756  0.00  0.00    -0.038 A 
ATOM     11  C   UNL     1      44.743  22.081  19.759  0.00  0.00    +0.271 A 
ATOM     12  O   UNL     1      44.284  21.104  20.558  0.00  0.00    -0.190 OA
ATOM     13  C   UNL     1      44.685  19.893  20.115  0.00  0.00    -0.025 A 
ATOM     14  C   UNL     1      44.483  18.601  20.573  0.00  0.00    +0.179 A 
ATOM     17  C   UNL     1      46.404  16.766  17.963  0.00  0.00    +0.072 A 
ENDROOT
BRANCH   3   2
ATOM      1  C   UNL     1      47.784  13.683  18.354  0.00  0.00    +0.245 C 
ATOM      2  O   UNL     1      46.769  14.443  17.694  0.00  0.00    -0.299 OA
ENDBRANCH   3   2
BRANCH  14  15
ATOM     15  O   UNL     1      43.750  18.363  21.690  0.00  0.00    -0.322 OA
ATOM     16  C   UNL     1      42.335  18.527  21.584  0.00  0.00    +0.244 C 
ENDBRANCH  14  15
BRANCH  17  18
ATOM     18  O   UNL     1      47.141  17.018  16.848  0.00  0.00    -0.305 OA
ATOM     19  C   UNL     1      48.545  17.209  17.028  0.00  0.00    +0.223 C 
ENDBRANCH  17  18
TORSDOF 3
ENDMDL
MODEL 5
REMARK VINA RESULT:      -4.5      3.501      5.966
REMARK  Name = ZINC95486280
REMARK  6 active torsions:
REMARK  status: ('A' for Active; 'I' for Inactive)
REMARK    1  A    between atoms: C1_1  and  O1_2
REMARK    2  A    between atoms: O1_2  and  C2_3
REMARK    3  A    between atoms: C7_8  and  O2_9
REMARK    4  A    between atoms: O2_9  and  C8_10
REMARK    5  A    between atoms: C13_17  and  O4_18
REMARK    6  A    between atoms: O4_18  and  C14_19
REMARK                            x       y       z     vdW  Elec       q    Type
REMARK                         _______ _______ _______ _____ _____    ______ ____
ROOT
ATOM      3  C   UNL     1      50.704  20.349  18.446  0.00  0.00    +0.130 A 
ATOM      4  C   UNL     1      49.577  20.865  19.093  0.00  0.00    -0.027 A 
ATOM      5  C   UNL     1      48.427  20.143  19.173  0.00  0.00    +0.092 A 
ATOM      6  C   UNL     1      48.361  18.863  18.597  0.00  0.00    -0.119 A 
ATOM      7  C   UNL     1      49.495  18.328  17.937  0.00  0.00    +0.167 A 
ATOM      8  N   UNL     1      49.445  17.112  17.387  0.00  0.00    -0.436 NA
ATOM      9  C   UNL     1      48.346  16.375  17.441  0.00  0.00    +0.138 A 
ATOM     10  C   UNL     1      48.003  15.037  16.941  0.00  0.00    -0.038 A 
ATOM     11  C   UNL     1      46.730  14.815  17.298  0.00  0.00    +0.271 A 
ATOM     12  O   UNL     1      46.244  15.872  17.969  0.00  0.00    -0.190 OA
ATOM     13  C   UNL     1      47.179  16.840  18.081  0.00  0.00    -0.025 A 
ATOM     14  C   UNL     1      47.178  18.096  18.668  0.00  0.00    +0.179 A 
ATOM     17  C   UNL     1      50.674  19.100  17.866  0.00  0.00    +0.072 A 
ENDROOT
BRANCH   3   2
ATOM      1  C   UNL     1      52.561  21.282  19.603  0.00  0.00    +0.245 C 
ATOM      2  O   UNL     1      51.841  21.093  18.383  0.00  0.00    -0.299 OA
ENDBRANCH   3   2
BRANCH  14  15
ATOM     15  O   UNL     1      46.072  18.575  19.291  0.00  0.00    -0.322 OA
ATOM     16  C   UNL     1      45.056  19.144  18.464  0.00  0.00    +0.244 C 
ENDBRANCH  14  15
BRANCH  17  18
ATOM     18  O   UNL     1      51.775  18.611  17.233  0.00  0.00    -0.305 OA
ATOM     19  C   UNL     1      51.939  18.957  15.857  0.00  0.00    +0.223 C 
ENDBRANCH  17  18
TORSDOF 3
ENDMDL
MODEL 6
REMARK VINA RESULT:      -4.5      1.553      6.129
REMARK  Name = ZINC95486280
REMARK  6 active torsions:
REMARK  status: ('A' for Active; 'I' for Inactive)
REMARK    1  A    between atoms: C1_1  and  O1_2
REMARK    2  A    between atoms: O1_2  and  C2_3
REMARK    3  A    between atoms: C7_8  and  O2_9
REMARK    4  A    between atoms: O2_9  and  C8_10
REMARK    5  A    between atoms: C13_17  and  O4_18
REMARK    6  A    between atoms: O4_18  and  C14_19
REMARK                            x       y       z     vdW  Elec       q    Type
REMARK                         _______ _______ _______ _____ _____    ______ ____
ROOT
ATOM      3  C   UNL     1      43.511  21.324  19.223  0.00  0.00    +0.130 A 
ATOM      4  C   UNL     1      43.262  20.013  18.805  0.00  0.00    -0.027 A 
ATOM      5  C   UNL     1      44.286  19.142  18.591  0.00  0.00    +0.092 A 
ATOM      6  C   UNL     1      45.613  19.558  18.788  0.00  0.00    -0.119 A 
ATOM      7  C   UNL     1      45.880  20.885  19.211  0.00  0.00    +0.167 A 
ATOM      8  N   UNL     1      47.139  21.291  19.403  0.00  0.00    -0.436 NA
ATOM      9  C   UNL     1      48.164  20.477  19.207  0.00  0.00    +0.138 A 
ATOM     10  C   UNL     1      49.619  20.638  19.335  0.00  0.00    -0.038 A 
ATOM     11  C   UNL     1      50.160  19.459  19.001  0.00  0.00    +0.271 A 
ATOM     12  O   UNL     1      49.198  18.579  18.679  0.00  0.00    -0.190 OA
ATOM     13  C   UNL     1      47.976  19.144  18.788  0.00  0.00    -0.025 A 
ATOM     14  C   UNL     1      46.691  18.672  18.573  0.00  0.00    +0.179 A 
ATOM     17  C   UNL     1      44.801  21.767  19.421  0.00  0.00    +0.072 A 
ENDROOT
BRANCH   3   2
ATOM      1  C   UNL     1      41.263  21.907  18.708  0.00  0.00    +0.245 C 
ATOM      2  O   UNL     1      42.469  22.172  19.429  0.00  0.00    -0.299 OA
ENDBRANCH   3   2
BRANCH  14  15
ATOM     15  O   UNL     1      46.474  17.395  18.168  0.00  0.00    -0.322 OA
ATOM     16  C   UNL     1      46.790  17.083  16.810  0.00  0.00    +0.244 C 
ENDBRANCH  14  15
BRANCH  17  18
ATOM     18  O   UNL     1      45.031  23.047  19.822  0.00  0.00    -0.305 OA
ATOM     19  C   UNL     1      45.134  23.278  21.227  0.00  0.00    +0.223 C 
ENDBRANCH  17  18
TORSDOF 3
ENDMDL
MODEL 7
REMARK VINA RESULT:      -4.4     20.598     21.715
REMARK  Name = ZINC95486280
REMARK  6 active torsions:
REMARK  status: ('A' for Active; 'I' for Inactive)
REMARK    1  A    between atoms: C1_1  and  O1_2
REMARK    2  A    between atoms: O1_2  and  C2_3
REMARK    3  A    between atoms: C7_8  and  O2_9
REMARK    4  A    between atoms: O2_9  and  C8_10
REMARK    5  A    between atoms: C13_17  and  O4_18
REMARK    6  A    between atoms: O4_18  and  C14_19
REMARK                            x       y       z     vdW  Elec       q    Type
REMARK                         _______ _______ _______ _____ _____    ______ ____
ROOT
ATOM      3  C   UNL     1      57.022  32.762   4.320  0.00  0.00    +0.130 A 
ATOM      4  C   UNL     1      56.818  33.227   5.623  0.00  0.00    -0.027 A 
ATOM      5  C   UNL     1      55.564  33.492   6.081  0.00  0.00    +0.092 A 
ATOM      6  C   UNL     1      54.455  33.300   5.240  0.00  0.00    -0.119 A 
ATOM      7  C   UNL     1      54.647  32.829   3.917  0.00  0.00    +0.167 A 
ATOM      8  N   UNL     1      53.600  32.642   3.109  0.00  0.00    -0.436 NA
ATOM      9  C   UNL     1      52.364  32.887   3.514  0.00  0.00    +0.138 A 
ATOM     10  C   UNL     1      51.050  32.777   2.866  0.00  0.00    -0.038 A 
ATOM     11  C   UNL     1      50.146  33.167   3.776  0.00  0.00    +0.271 A 
ATOM     12  O   UNL     1      50.757  33.507   4.923  0.00  0.00    -0.190 OA
ATOM     13  C   UNL     1      52.095  33.356   4.816  0.00  0.00    -0.025 A 
ATOM     14  C   UNL     1      53.146  33.568   5.694  0.00  0.00    +0.179 A 
ATOM     17  C   UNL     1      55.958  32.567   3.467  0.00  0.00    +0.072 A 
ENDROOT
BRANCH   3   2
ATOM      1  C   UNL     1      58.799  31.192   4.130  0.00  0.00    +0.245 C 
ATOM      2  O   UNL     1      58.286  32.504   3.890  0.00  0.00    -0.299 OA
ENDBRANCH   3   2
BRANCH  14  15
ATOM     15  O   UNL     1      52.923  34.020   6.955  0.00  0.00    -0.322 OA
ATOM     16  C   UNL     1      52.589  35.401   7.099  0.00  0.00    +0.244 C 
ENDBRANCH  14  15
BRANCH  17  18
ATOM     18  O   UNL     1      56.169  32.120   2.199  0.00  0.00    -0.305 OA
ATOM     19  C   UNL     1      56.457  33.102   1.204  0.00  0.00    +0.223 C 
ENDBRANCH  17  18
TORSDOF 3
ENDMDL
MODEL 8
REMARK VINA RESULT:      -4.3     20.537     22.348
REMARK  Name = ZINC95486280
REMARK  6 active torsions:
REMARK  status: ('A' for Active; 'I' for Inactive)
REMARK    1  A    between atoms: C1_1  and  O1_2
REMARK    2  A    between atoms: O1_2  and  C2_3
REMARK    3  A    between atoms: C7_8  and  O2_9
REMARK    4  A    between atoms: O2_9  and  C8_10
REMARK    5  A    between atoms: C13_17  and  O4_18
REMARK    6  A    between atoms: O4_18  and  C14_19
REMARK                            x       y       z     vdW  Elec       q    Type
REMARK                         _______ _______ _______ _____ _____    ______ ____
ROOT
ATOM      3  C   UNL     1      52.844  33.478   5.930  0.00  0.00    +0.130 A 
ATOM      4  C   UNL     1      54.151  33.280   6.386  0.00  0.00    -0.027 A 
ATOM      5  C   UNL     1      55.118  32.812   5.550  0.00  0.00    +0.092 A 
ATOM      6  C   UNL     1      54.807  32.519   4.212  0.00  0.00    -0.119 A 
ATOM      7  C   UNL     1      53.486  32.714   3.737  0.00  0.00    +0.167 A 
ATOM      8  N   UNL     1      53.178  32.440   2.466  0.00  0.00    -0.436 NA
ATOM      9  C   UNL     1      54.087  31.984   1.619  0.00  0.00    +0.138 A 
ATOM     10  C   UNL     1      54.045  31.605   0.200  0.00  0.00    -0.038 A 
ATOM     11  C   UNL     1      55.285  31.210  -0.123  0.00  0.00    +0.271 A 
ATOM     12  O   UNL     1      56.096  31.305   0.943  0.00  0.00    -0.190 OA
ATOM     13  C   UNL     1      55.423  31.766   2.019  0.00  0.00    -0.025 A 
ATOM     14  C   UNL     1      55.794  32.034   3.327  0.00  0.00    +0.179 A 
ATOM     17  C   UNL     1      52.502  33.196   4.625  0.00  0.00    +0.072 A 
ENDROOT
BRANCH   3   2
ATOM      1  C   UNL     1      52.178  35.184   7.449  0.00  0.00    +0.245 C 
ATOM      2  O   UNL     1      51.899  33.948   6.787  0.00  0.00    -0.299 OA
ENDBRANCH   3   2
BRANCH  14  15
ATOM     15  O   UNL     1      57.069  31.834   3.746  0.00  0.00    -0.322 OA
ATOM     16  C   UNL     1      58.039  32.807   3.356  0.00  0.00    +0.244 C 
ENDBRANCH  14  15
BRANCH  17  18
ATOM     18  O   UNL     1      51.226  33.387   4.196  0.00  0.00    -0.305 OA
ATOM     19  C   UNL     1      50.894  34.687   3.705  0.00  0.00    +0.223 C 
ENDBRANCH  17  18
TORSDOF 3
ENDMDL
MODEL 9
REMARK VINA RESULT:      -4.2      1.650      6.062
REMARK  Name = ZINC95486280
REMARK  6 active torsions:
REMARK  status: ('A' for Active; 'I' for Inactive)
REMARK    1  A    between atoms: C1_1  and  O1_2
REMARK    2  A    between atoms: O1_2  and  C2_3
REMARK    3  A    between atoms: C7_8  and  O2_9
REMARK    4  A    between atoms: O2_9  and  C8_10
REMARK    5  A    between atoms: C13_17  and  O4_18
REMARK    6  A    between atoms: O4_18  and  C14_19
REMARK                            x       y       z     vdW  Elec       q    Type
REMARK                         _______ _______ _______ _____ _____    ______ ____
ROOT
ATOM      3  C   UNL     1      42.532  21.466  19.208  0.00  0.00    +0.130 A 
ATOM      4  C   UNL     1      42.474  20.080  19.031  0.00  0.00    -0.027 A 
ATOM      5  C   UNL     1      43.519  19.286  19.390  0.00  0.00    +0.092 A 
ATOM      6  C   UNL     1      44.677  19.858  19.943  0.00  0.00    -0.119 A 
ATOM      7  C   UNL     1      44.750  21.262  20.127  0.00  0.00    +0.167 A 
ATOM      8  N   UNL     1      45.845  21.817  20.654  0.00  0.00    -0.436 NA
ATOM      9  C   UNL     1      46.885  21.083  21.017  0.00  0.00    +0.138 A 
ATOM     10  C   UNL     1      48.190  21.405  21.609  0.00  0.00    -0.038 A 
ATOM     11  C   UNL     1      48.836  20.239  21.756  0.00  0.00    +0.271 A 
ATOM     12  O   UNL     1      48.071  19.225  21.321  0.00  0.00    -0.190 OA
ATOM     13  C   UNL     1      46.884  19.680  20.865  0.00  0.00    -0.025 A 
ATOM     14  C   UNL     1      45.773  19.054  20.323  0.00  0.00    +0.179 A 
ATOM     17  C   UNL     1      43.654  22.061  19.743  0.00  0.00    +0.072 A 
ENDROOT
BRANCH   3   2
ATOM      1  C   UNL     1      40.233  21.561  18.603  0.00  0.00    +0.245 C 
ATOM      2  O   UNL     1      41.472  22.234  18.841  0.00  0.00    -0.299 OA
ENDBRANCH   3   2
BRANCH  14  15
ATOM     15  O   UNL     1      45.740  17.707  20.162  0.00  0.00    -0.322 OA
ATOM     16  C   UNL     1      46.442  17.171  19.040  0.00  0.00    +0.244 C 
ENDBRANCH  14  15
BRANCH  17  18
ATOM     18  O   UNL     1      43.701  23.411  19.904  0.00  0.00    -0.305 OA
ATOM     19  C   UNL     1      44.368  24.163  18.890  0.00  0.00    +0.223 C 
ENDBRANCH  17  18
TORSDOF 3
ENDMDL
