MODEL 1
REMARK VINA RESULT:      -6.9      0.000      0.000
REMARK  Name = ZINC95486267
REMARK  9 active torsions:
REMARK  status: ('A' for Active; 'I' for Inactive)
REMARK    1  A    between atoms: C1_1  and  C2_2
REMARK    2  A    between atoms: C2_2  and  C26_31
REMARK    3  A    between atoms: C3_3  and  C4_4
REMARK    4  A    between atoms: C4_4  and  C5_5
REMARK    5  A    between atoms: C8_8  and  O3_23
REMARK    6  A    between atoms: C11_12  and  C14_17
REMARK    7  A    between atoms: O3_23  and  C20_24
REMARK    8  A    between atoms: C23_27  and  C24_29
REMARK    9  A    between atoms: C23_27  and  C25_30
REMARK                            x       y       z     vdW  Elec       q    Type
REMARK                         _______ _______ _______ _____ _____    ______ ____
ROOT
ATOM      6  C   UNL     1      46.594  19.103  20.107  0.00  0.00    -0.150 A 
ATOM      7  C   UNL     1      45.568  18.464  20.783  0.00  0.00    +0.222 A 
ATOM      8  C   UNL     1      45.483  17.062  20.780  0.00  0.00    -0.196 A 
ATOM      9  C   UNL     1      44.368  16.422  21.511  0.00  0.00    +0.057 C 
ATOM     10  C   UNL     1      43.327  17.180  21.852  0.00  0.00    -0.057 C 
ATOM     11  C   UNL     1      43.304  18.639  21.480  0.00  0.00    +0.150 C 
ATOM     12  C   UNL     1      42.674  18.796  20.095  0.00  0.00    +0.036 C 
ATOM     13  C   UNL     1      42.467  19.407  22.505  0.00  0.00    +0.085 C 
ATOM     14  C   UNL     1      46.432  16.303  20.101  0.00  0.00    +0.232 A 
ATOM     17  C   UNL     1      47.471  16.959  19.421  0.00  0.00    -0.300 A 
ATOM     18  C   UNL     1      48.493  16.189  18.703  0.00  0.00    +0.400 C 
ATOM     19  O   UNL     1      48.608  14.990  18.849  0.00  0.00    -0.426 OA
ATOM     20  C   UNL     1      49.391  16.971  17.758  0.00  0.00    +0.038 C 
ATOM     21  C   UNL     1      49.734  18.294  18.459  0.00  0.00    +0.235 C 
ATOM     28  O   UNL     1      48.530  19.004  18.745  0.00  0.00    -0.290 OA
ATOM     29  O   UNL     1      44.628  19.172  21.458  0.00  0.00    -0.290 OA
ATOM     30  C   UNL     1      47.543  18.366  19.418  0.00  0.00    +0.230 A 
ENDROOT
BRANCH  21  22
ATOM     22  C   UNL     1      50.607  19.129  17.556  0.00  0.00    -0.092 A 
ATOM     23  C   UNL     1      50.655  20.501  17.717  0.00  0.00    +0.038 A 
ATOM     24  C   UNL     1      51.456  21.266  16.890  0.00  0.00    +0.005 A 
ATOM     25  C   UNL     1      52.210  20.659  15.903  0.00  0.00    +0.015 A 
ATOM     26  C   UNL     1      52.162  19.287  15.743  0.00  0.00    +0.009 A 
ATOM     27  C   UNL     1      51.364  18.522  16.573  0.00  0.00    +0.023 A 
ENDBRANCH  21  22
BRANCH  14  15
ATOM     15  O   UNL     1      46.354  14.950  20.094  0.00  0.00    -0.318 OA
ATOM     16  C   UNL     1      45.467  14.356  19.145  0.00  0.00    +0.242 C 
ENDBRANCH  14  15
BRANCH   6   5
ATOM      5  C   UNL     1      46.674  20.608  20.115  0.00  0.00    +0.136 C 
BRANCH   5   4
ATOM      1  C   UNL     1      45.216  22.646  21.408  0.00  0.00    +0.074 C 
ATOM      2  C   UNL     1      44.731  22.087  20.096  0.00  0.00    -0.128 C 
ATOM      3  C   UNL     1      43.431  22.568  19.505  0.00  0.00    +0.069 C 
ATOM      4  C   UNL     1      45.441  21.181  19.467  0.00  0.00    -0.050 C 
ENDBRANCH   5   4
ENDBRANCH   6   5
TORSDOF 4
ENDMDL
MODEL 2
REMARK VINA RESULT:      -6.8      1.869      2.925
REMARK  Name = ZINC95486267
REMARK  9 active torsions:
REMARK  status: ('A' for Active; 'I' for Inactive)
REMARK    1  A    between atoms: C1_1  and  C2_2
REMARK    2  A    between atoms: C2_2  and  C26_31
REMARK    3  A    between atoms: C3_3  and  C4_4
REMARK    4  A    between atoms: C4_4  and  C5_5
REMARK    5  A    between atoms: C8_8  and  O3_23
REMARK    6  A    between atoms: C11_12  and  C14_17
REMARK    7  A    between atoms: O3_23  and  C20_24
REMARK    8  A    between atoms: C23_27  and  C24_29
REMARK    9  A    between atoms: C23_27  and  C25_30
REMARK                            x       y       z     vdW  Elec       q    Type
REMARK                         _______ _______ _______ _____ _____    ______ ____
ROOT
ATOM      6  C   UNL     1      44.861  20.473  19.485  0.00  0.00    -0.150 A 
ATOM      7  C   UNL     1      43.554  20.122  19.779  0.00  0.00    +0.222 A 
ATOM      8  C   UNL     1      43.265  18.865  20.336  0.00  0.00    -0.196 A 
ATOM      9  C   UNL     1      41.856  18.532  20.630  0.00  0.00    +0.057 C 
ATOM     10  C   UNL     1      40.906  19.275  20.064  0.00  0.00    -0.057 C 
ATOM     11  C   UNL     1      41.283  20.406  19.145  0.00  0.00    +0.150 C 
ATOM     12  C   UNL     1      41.401  19.876  17.715  0.00  0.00    +0.036 C 
ATOM     13  C   UNL     1      40.195  21.481  19.196  0.00  0.00    +0.085 C 
ATOM     14  C   UNL     1      44.292  17.962  20.599  0.00  0.00    +0.232 A 
ATOM     17  C   UNL     1      45.615  18.327  20.301  0.00  0.00    -0.300 A 
ATOM     18  C   UNL     1      46.721  17.403  20.575  0.00  0.00    +0.400 C 
ATOM     19  O   UNL     1      46.569  16.410  21.254  0.00  0.00    -0.426 OA
ATOM     20  C   UNL     1      48.064  17.750  19.952  0.00  0.00    +0.038 C 
ATOM     21  C   UNL     1      48.241  19.270  20.086  0.00  0.00    +0.235 C 
ATOM     28  O   UNL     1      47.167  19.932  19.421  0.00  0.00    -0.290 OA
ATOM     29  O   UNL     1      42.530  20.979  19.539  0.00  0.00    -0.290 OA
ATOM     30  C   UNL     1      45.896  19.585  19.731  0.00  0.00    +0.230 A 
ENDROOT
BRANCH  21  22
ATOM     22  C   UNL     1      49.550  19.681  19.461  0.00  0.00    -0.092 A 
ATOM     23  C   UNL     1      49.621  20.833  18.701  0.00  0.00    +0.038 A 
ATOM     24  C   UNL     1      50.822  21.209  18.129  0.00  0.00    +0.005 A 
ATOM     25  C   UNL     1      51.951  20.435  18.317  0.00  0.00    +0.015 A 
ATOM     26  C   UNL     1      51.880  19.283  19.078  0.00  0.00    +0.009 A 
ATOM     27  C   UNL     1      50.680  18.909  19.654  0.00  0.00    +0.023 A 
ENDBRANCH  21  22
BRANCH  14  15
ATOM     15  O   UNL     1      44.019  16.748  21.136  0.00  0.00    -0.318 OA
ATOM     16  C   UNL     1      43.613  16.721  22.505  0.00  0.00    +0.242 C 
ENDBRANCH  14  15
BRANCH   6   5
ATOM      5  C   UNL     1      45.159  21.823  18.886  0.00  0.00    +0.136 C 
BRANCH   5   4
ATOM      1  C   UNL     1      44.312  24.511  18.778  0.00  0.00    +0.074 C 
ATOM      2  C   UNL     1      45.206  24.045  19.898  0.00  0.00    -0.128 C 
ATOM      3  C   UNL     1      45.704  25.029  20.925  0.00  0.00    +0.069 C 
ATOM      4  C   UNL     1      45.551  22.783  19.980  0.00  0.00    -0.050 C 
ENDBRANCH   5   4
ENDBRANCH   6   5
TORSDOF 4
ENDMDL
MODEL 3
REMARK VINA RESULT:      -6.7      1.883      6.578
REMARK  Name = ZINC95486267
REMARK  9 active torsions:
REMARK  status: ('A' for Active; 'I' for Inactive)
REMARK    1  A    between atoms: C1_1  and  C2_2
REMARK    2  A    between atoms: C2_2  and  C26_31
REMARK    3  A    between atoms: C3_3  and  C4_4
REMARK    4  A    between atoms: C4_4  and  C5_5
REMARK    5  A    between atoms: C8_8  and  O3_23
REMARK    6  A    between atoms: C11_12  and  C14_17
REMARK    7  A    between atoms: O3_23  and  C20_24
REMARK    8  A    between atoms: C23_27  and  C24_29
REMARK    9  A    between atoms: C23_27  and  C25_30
REMARK                            x       y       z     vdW  Elec       q    Type
REMARK                         _______ _______ _______ _____ _____    ______ ____
ROOT
ATOM      6  C   UNL     1      48.338  20.224  19.938  0.00  0.00    -0.150 A 
ATOM      7  C   UNL     1      49.629  20.233  19.440  0.00  0.00    +0.222 A 
ATOM      8  C   UNL     1      50.014  19.315  18.449  0.00  0.00    -0.196 A 
ATOM      9  C   UNL     1      51.404  19.358  17.949  0.00  0.00    +0.057 C 
ATOM     10  C   UNL     1      52.308  20.018  18.671  0.00  0.00    -0.057 C 
ATOM     11  C   UNL     1      51.903  20.680  19.961  0.00  0.00    +0.150 C 
ATOM     12  C   UNL     1      52.051  19.680  21.109  0.00  0.00    +0.036 C 
ATOM     13  C   UNL     1      52.814  21.882  20.218  0.00  0.00    +0.085 C 
ATOM     14  C   UNL     1      49.097  18.390  17.956  0.00  0.00    +0.232 A 
ATOM     17  C   UNL     1      47.788  18.390  18.465  0.00  0.00    -0.300 A 
ATOM     18  C   UNL     1      46.794  17.435  17.961  0.00  0.00    +0.400 C 
ATOM     19  O   UNL     1      46.991  16.778  16.960  0.00  0.00    -0.426 OA
ATOM     20  C   UNL     1      45.511  17.304  18.766  0.00  0.00    +0.038 C 
ATOM     21  C   UNL     1      45.108  18.721  19.201  0.00  0.00    +0.235 C 
ATOM     28  O   UNL     1      46.159  19.295  19.977  0.00  0.00    -0.290 OA
ATOM     29  O   UNL     1      50.547  21.123  19.894  0.00  0.00    -0.290 OA
ATOM     30  C   UNL     1      47.413  19.306  19.468  0.00  0.00    +0.230 A 
ENDROOT
BRANCH  21  22
ATOM     22  C   UNL     1      43.850  18.654  20.028  0.00  0.00    -0.092 A 
ATOM     23  C   UNL     1      42.725  19.353  19.633  0.00  0.00    +0.038 A 
ATOM     24  C   UNL     1      41.571  19.292  20.392  0.00  0.00    +0.005 A 
ATOM     25  C   UNL     1      41.542  18.530  21.545  0.00  0.00    +0.015 A 
ATOM     26  C   UNL     1      42.667  17.830  21.940  0.00  0.00    +0.009 A 
ATOM     27  C   UNL     1      43.819  17.889  21.178  0.00  0.00    +0.023 A 
ENDBRANCH  21  22
BRANCH  14  15
ATOM     15  O   UNL     1      49.462  17.501  17.000  0.00  0.00    -0.318 OA
ATOM     16  C   UNL     1      50.195  16.353  17.429  0.00  0.00    +0.242 C 
ENDBRANCH  14  15
BRANCH   6   5
ATOM      5  C   UNL     1      47.937  21.213  21.003  0.00  0.00    +0.136 C 
BRANCH   5   4
ATOM      1  C   UNL     1      45.576  21.564  22.505  0.00  0.00    +0.074 C 
ATOM      2  C   UNL     1      45.714  22.211  21.152  0.00  0.00    -0.128 C 
ATOM      3  C   UNL     1      44.565  22.992  20.569  0.00  0.00    +0.069 C 
ATOM      4  C   UNL     1      46.834  22.096  20.481  0.00  0.00    -0.050 C 
ENDBRANCH   5   4
ENDBRANCH   6   5
TORSDOF 4
ENDMDL
MODEL 4
REMARK VINA RESULT:      -6.4      2.140      7.471
REMARK  Name = ZINC95486267
REMARK  9 active torsions:
REMARK  status: ('A' for Active; 'I' for Inactive)
REMARK    1  A    between atoms: C1_1  and  C2_2
REMARK    2  A    between atoms: C2_2  and  C26_31
REMARK    3  A    between atoms: C3_3  and  C4_4
REMARK    4  A    between atoms: C4_4  and  C5_5
REMARK    5  A    between atoms: C8_8  and  O3_23
REMARK    6  A    between atoms: C11_12  and  C14_17
REMARK    7  A    between atoms: O3_23  and  C20_24
REMARK    8  A    between atoms: C23_27  and  C24_29
REMARK    9  A    between atoms: C23_27  and  C25_30
REMARK                            x       y       z     vdW  Elec       q    Type
REMARK                         _______ _______ _______ _____ _____    ______ ____
ROOT
ATOM      6  C   UNL     1      47.285  18.508  18.587  0.00  0.00    -0.150 A 
ATOM      7  C   UNL     1      48.647  18.316  18.741  0.00  0.00    +0.222 A 
ATOM      8  C   UNL     1      49.407  19.212  19.513  0.00  0.00    -0.196 A 
ATOM      9  C   UNL     1      50.859  18.971  19.647  0.00  0.00    +0.057 C 
ATOM     10  C   UNL     1      51.437  18.136  18.784  0.00  0.00    -0.057 C 
ATOM     11  C   UNL     1      50.615  17.480  17.706  0.00  0.00    +0.150 C 
ATOM     12  C   UNL     1      50.595  18.381  16.470  0.00  0.00    +0.036 C 
ATOM     13  C   UNL     1      51.245  16.135  17.341  0.00  0.00    +0.085 C 
ATOM     14  C   UNL     1      48.794  20.297  20.133  0.00  0.00    +0.232 A 
ATOM     17  C   UNL     1      47.411  20.482  19.974  0.00  0.00    -0.300 A 
ATOM     18  C   UNL     1      46.731  21.610  20.621  0.00  0.00    +0.400 C 
ATOM     19  O   UNL     1      47.278  22.279  21.474  0.00  0.00    -0.426 OA
ATOM     20  C   UNL     1      45.314  21.904  20.158  0.00  0.00    +0.038 C 
ATOM     21  C   UNL     1      44.613  20.550  19.974  0.00  0.00    +0.235 C 
ATOM     28  O   UNL     1      45.329  19.773  19.014  0.00  0.00    -0.290 OA
ATOM     29  O   UNL     1      49.276  17.267  18.155  0.00  0.00    -0.290 OA
ATOM     30  C   UNL     1      46.658  19.587  19.188  0.00  0.00    +0.230 A 
ENDROOT
BRANCH  21  22
ATOM     22  C   UNL     1      43.203  20.776  19.489  0.00  0.00    -0.092 A 
ATOM     23  C   UNL     1      42.348  19.702  19.330  0.00  0.00    +0.038 A 
ATOM     24  C   UNL     1      41.055  19.909  18.885  0.00  0.00    +0.005 A 
ATOM     25  C   UNL     1      40.618  21.189  18.601  0.00  0.00    +0.015 A 
ATOM     26  C   UNL     1      41.474  22.263  18.761  0.00  0.00    +0.009 A 
ATOM     27  C   UNL     1      42.766  22.056  19.209  0.00  0.00    +0.023 A 
ENDBRANCH  21  22
BRANCH  14  15
ATOM     15  O   UNL     1      49.521  21.164  20.878  0.00  0.00    -0.318 OA
ATOM     16  C   UNL     1      49.950  20.713  22.164  0.00  0.00    +0.242 C 
ENDBRANCH  14  15
BRANCH   6   5
ATOM      5  C   UNL     1      46.481  17.542  17.755  0.00  0.00    +0.136 C 
BRANCH   5   4
ATOM      1  C   UNL     1      47.006  14.869  17.026  0.00  0.00    +0.074 C 
ATOM      2  C   UNL     1      46.188  15.170  18.255  0.00  0.00    -0.128 C 
ATOM      3  C   UNL     1      45.592  14.044  19.059  0.00  0.00    +0.069 C 
ATOM      4  C   UNL     1      45.994  16.413  18.625  0.00  0.00    -0.050 C 
ENDBRANCH   5   4
ENDBRANCH   6   5
TORSDOF 4
ENDMDL
MODEL 5
REMARK VINA RESULT:      -6.3      3.247      6.010
REMARK  Name = ZINC95486267
REMARK  9 active torsions:
REMARK  status: ('A' for Active; 'I' for Inactive)
REMARK    1  A    between atoms: C1_1  and  C2_2
REMARK    2  A    between atoms: C2_2  and  C26_31
REMARK    3  A    between atoms: C3_3  and  C4_4
REMARK    4  A    between atoms: C4_4  and  C5_5
REMARK    5  A    between atoms: C8_8  and  O3_23
REMARK    6  A    between atoms: C11_12  and  C14_17
REMARK    7  A    between atoms: O3_23  and  C20_24
REMARK    8  A    between atoms: C23_27  and  C24_29
REMARK    9  A    between atoms: C23_27  and  C25_30
REMARK                            x       y       z     vdW  Elec       q    Type
REMARK                         _______ _______ _______ _____ _____    ______ ____
ROOT
ATOM      6  C   UNL     1      48.299  14.669  17.166  0.00  0.00    -0.150 A 
ATOM      7  C   UNL     1      48.130  13.296  17.129  0.00  0.00    +0.222 A 
ATOM      8  C   UNL     1      49.190  12.440  17.475  0.00  0.00    -0.196 A 
ATOM      9  C   UNL     1      48.965  10.981  17.417  0.00  0.00    +0.057 C 
ATOM     10  C   UNL     1      47.910  10.536  16.735  0.00  0.00    -0.057 C 
ATOM     11  C   UNL     1      46.996  11.513  16.044  0.00  0.00    +0.150 C 
ATOM     12  C   UNL     1      47.514  11.772  14.627  0.00  0.00    +0.036 C 
ATOM     13  C   UNL     1      45.589  10.917  15.965  0.00  0.00    +0.085 C 
ATOM     14  C   UNL     1      50.418  12.968  17.863  0.00  0.00    +0.232 A 
ATOM     17  C   UNL     1      50.580  14.362  17.902  0.00  0.00    -0.300 A 
ATOM     18  C   UNL     1      51.859  14.952  18.315  0.00  0.00    +0.400 C 
ATOM     19  O   UNL     1      52.728  14.286  18.839  0.00  0.00    -0.426 OA
ATOM     20  C   UNL     1      52.041  16.436  18.042  0.00  0.00    +0.038 C 
ATOM     21  C   UNL     1      50.705  17.119  18.368  0.00  0.00    +0.235 C 
ATOM     28  O   UNL     1      49.675  16.558  17.555  0.00  0.00    -0.290 OA
ATOM     29  O   UNL     1      46.945  12.747  16.759  0.00  0.00    -0.290 OA
ATOM     30  C   UNL     1      49.517  15.214  17.541  0.00  0.00    +0.230 A 
ENDROOT
BRANCH  21  22
ATOM     22  C   UNL     1      50.815  18.597  18.092  0.00  0.00    -0.092 A 
ATOM     23  C   UNL     1      51.718  19.059  17.154  0.00  0.00    +0.038 A 
ATOM     24  C   UNL     1      51.818  20.415  16.901  0.00  0.00    +0.005 A 
ATOM     25  C   UNL     1      51.015  21.307  17.585  0.00  0.00    +0.015 A 
ATOM     26  C   UNL     1      50.111  20.845  18.523  0.00  0.00    +0.009 A 
ATOM     27  C   UNL     1      50.008  19.489  18.773  0.00  0.00    +0.023 A 
ENDBRANCH  21  22
BRANCH  14  15
ATOM     15  O   UNL     1      51.444  12.148  18.198  0.00  0.00    -0.318 OA
ATOM     16  C   UNL     1      52.189  11.570  17.125  0.00  0.00    +0.242 C 
ENDBRANCH  14  15
BRANCH   6   5
ATOM      5  C   UNL     1      47.156  15.577  16.790  0.00  0.00    +0.136 C 
BRANCH   5   4
ATOM      1  C   UNL     1      46.508  18.164  17.705  0.00  0.00    +0.074 C 
ATOM      2  C   UNL     1      45.989  16.953  18.435  0.00  0.00    -0.128 C 
ATOM      3  C   UNL     1      45.179  17.121  19.694  0.00  0.00    +0.069 C 
ATOM      4  C   UNL     1      46.242  15.752  17.975  0.00  0.00    -0.050 C 
ENDBRANCH   5   4
ENDBRANCH   6   5
TORSDOF 4
ENDMDL
MODEL 6
REMARK VINA RESULT:      -6.3      2.192      6.575
REMARK  Name = ZINC95486267
REMARK  9 active torsions:
REMARK  status: ('A' for Active; 'I' for Inactive)
REMARK    1  A    between atoms: C1_1  and  C2_2
REMARK    2  A    between atoms: C2_2  and  C26_31
REMARK    3  A    between atoms: C3_3  and  C4_4
REMARK    4  A    between atoms: C4_4  and  C5_5
REMARK    5  A    between atoms: C8_8  and  O3_23
REMARK    6  A    between atoms: C11_12  and  C14_17
REMARK    7  A    between atoms: O3_23  and  C20_24
REMARK    8  A    between atoms: C23_27  and  C24_29
REMARK    9  A    between atoms: C23_27  and  C25_30
REMARK                            x       y       z     vdW  Elec       q    Type
REMARK                         _______ _______ _______ _____ _____    ______ ____
ROOT
ATOM      6  C   UNL     1      49.641  17.909  19.013  0.00  0.00    -0.150 A 
ATOM      7  C   UNL     1      50.516  16.839  18.935  0.00  0.00    +0.222 A 
ATOM      8  C   UNL     1      50.025  15.533  18.767  0.00  0.00    -0.196 A 
ATOM      9  C   UNL     1      50.995  14.420  18.693  0.00  0.00    +0.057 C 
ATOM     10  C   UNL     1      52.238  14.644  19.114  0.00  0.00    -0.057 C 
ATOM     11  C   UNL     1      52.617  15.997  19.657  0.00  0.00    +0.150 C 
ATOM     12  C   UNL     1      52.345  16.030  21.162  0.00  0.00    +0.036 C 
ATOM     13  C   UNL     1      54.106  16.242  19.408  0.00  0.00    +0.085 C 
ATOM     14  C   UNL     1      48.655  15.306  18.673  0.00  0.00    +0.232 A 
ATOM     17  C   UNL     1      47.775  16.397  18.750  0.00  0.00    -0.300 A 
ATOM     18  C   UNL     1      46.326  16.195  18.645  0.00  0.00    +0.400 C 
ATOM     19  O   UNL     1      45.855  15.139  18.275  0.00  0.00    -0.426 OA
ATOM     20  C   UNL     1      45.446  17.371  19.036  0.00  0.00    +0.038 C 
ATOM     21  C   UNL     1      46.117  18.636  18.479  0.00  0.00    +0.235 C 
ATOM     28  O   UNL     1      47.429  18.756  19.028  0.00  0.00    -0.290 OA
ATOM     29  O   UNL     1      51.857  17.024  19.019  0.00  0.00    -0.290 OA
ATOM     30  C   UNL     1      48.274  17.703  18.931  0.00  0.00    +0.230 A 
ENDROOT
BRANCH  21  22
ATOM     22  C   UNL     1      45.301  19.846  18.858  0.00  0.00    -0.092 A 
ATOM     23  C   UNL     1      45.919  21.070  19.029  0.00  0.00    +0.038 A 
ATOM     24  C   UNL     1      45.170  22.179  19.375  0.00  0.00    +0.005 A 
ATOM     25  C   UNL     1      43.804  22.064  19.549  0.00  0.00    +0.015 A 
ATOM     26  C   UNL     1      43.186  20.840  19.377  0.00  0.00    +0.009 A 
ATOM     27  C   UNL     1      43.934  19.732  19.026  0.00  0.00    +0.023 A 
ENDBRANCH  21  22
BRANCH  14  15
ATOM     15  O   UNL     1      48.176  14.048  18.511  0.00  0.00    -0.318 OA
ATOM     16  C   UNL     1      48.114  13.223  19.676  0.00  0.00    +0.242 C 
ENDBRANCH  14  15
BRANCH   6   5
ATOM      5  C   UNL     1      50.179  19.305  19.196  0.00  0.00    +0.136 C 
BRANCH   5   4
ATOM      1  C   UNL     1      52.651  20.461  18.482  0.00  0.00    +0.074 C 
ATOM      2  C   UNL     1      51.476  20.548  17.543  0.00  0.00    -0.128 C 
ATOM      3  C   UNL     1      51.600  21.312  16.249  0.00  0.00    +0.069 C 
ATOM      4  C   UNL     1      50.345  19.961  17.850  0.00  0.00    -0.050 C 
ENDBRANCH   5   4
ENDBRANCH   6   5
TORSDOF 4
ENDMDL
MODEL 7
REMARK VINA RESULT:      -6.3      1.961      6.251
REMARK  Name = ZINC95486267
REMARK  9 active torsions:
REMARK  status: ('A' for Active; 'I' for Inactive)
REMARK    1  A    between atoms: C1_1  and  C2_2
REMARK    2  A    between atoms: C2_2  and  C26_31
REMARK    3  A    between atoms: C3_3  and  C4_4
REMARK    4  A    between atoms: C4_4  and  C5_5
REMARK    5  A    between atoms: C8_8  and  O3_23
REMARK    6  A    between atoms: C11_12  and  C14_17
REMARK    7  A    between atoms: O3_23  and  C20_24
REMARK    8  A    between atoms: C23_27  and  C24_29
REMARK    9  A    between atoms: C23_27  and  C25_30
REMARK                            x       y       z     vdW  Elec       q    Type
REMARK                         _______ _______ _______ _____ _____    ______ ____
ROOT
ATOM      6  C   UNL     1      46.185  16.584  18.258  0.00  0.00    -0.150 A 
ATOM      7  C   UNL     1      46.297  15.216  18.080  0.00  0.00    +0.222 A 
ATOM      8  C   UNL     1      45.795  14.330  19.048  0.00  0.00    -0.196 A 
ATOM      9  C   UNL     1      45.941  12.878  18.818  0.00  0.00    +0.057 C 
ATOM     10  C   UNL     1      46.814  12.474  17.896  0.00  0.00    -0.057 C 
ATOM     11  C   UNL     1      47.625  13.488  17.134  0.00  0.00    +0.150 C 
ATOM     12  C   UNL     1      48.917  13.779  17.900  0.00  0.00    +0.036 C 
ATOM     13  C   UNL     1      47.973  12.923  15.755  0.00  0.00    +0.085 C 
ATOM     14  C   UNL     1      45.177  14.822  20.194  0.00  0.00    +0.232 A 
ATOM     17  C   UNL     1      45.065  16.211  20.367  0.00  0.00    -0.300 A 
ATOM     18  C   UNL     1      44.411  16.763  21.558  0.00  0.00    +0.400 C 
ATOM     19  O   UNL     1      43.762  16.066  22.311  0.00  0.00    -0.426 OA
ATOM     20  C   UNL     1      44.598  18.251  21.807  0.00  0.00    +0.038 C 
ATOM     21  C   UNL     1      44.493  18.950  20.444  0.00  0.00    +0.235 C 
ATOM     28  O   UNL     1      45.495  18.433  19.568  0.00  0.00    -0.290 OA
ATOM     29  O   UNL     1      46.890  14.702  16.973  0.00  0.00    -0.290 OA
ATOM     30  C   UNL     1      45.582  17.093  19.397  0.00  0.00    +0.230 A 
ENDROOT
BRANCH  21  22
ATOM     22  C   UNL     1      44.697  20.433  20.622  0.00  0.00    -0.092 A 
ATOM     23  C   UNL     1      44.711  20.981  21.890  0.00  0.00    +0.038 A 
ATOM     24  C   UNL     1      44.897  22.341  22.053  0.00  0.00    +0.005 A 
ATOM     25  C   UNL     1      45.072  23.153  20.948  0.00  0.00    +0.015 A 
ATOM     26  C   UNL     1      45.059  22.604  19.679  0.00  0.00    +0.009 A 
ATOM     27  C   UNL     1      44.876  21.243  19.517  0.00  0.00    +0.023 A 
ENDBRANCH  21  22
BRANCH  14  15
ATOM     15  O   UNL     1      44.692  13.973  21.132  0.00  0.00    -0.318 OA
ATOM     16  C   UNL     1      45.636  13.394  22.035  0.00  0.00    +0.242 C 
ENDBRANCH  14  15
BRANCH   6   5
ATOM      5  C   UNL     1      46.729  17.524  17.214  0.00  0.00    +0.136 C 
BRANCH   5   4
ATOM      1  C   UNL     1      48.692  18.949  18.652  0.00  0.00    +0.074 C 
ATOM      2  C   UNL     1      49.102  17.938  17.613  0.00  0.00    -0.128 C 
ATOM      3  C   UNL     1      50.560  17.734  17.293  0.00  0.00    +0.069 C 
ATOM      4  C   UNL     1      48.190  17.234  16.987  0.00  0.00    -0.050 C 
ENDBRANCH   5   4
ENDBRANCH   6   5
TORSDOF 4
ENDMDL
MODEL 8
REMARK VINA RESULT:      -6.2      3.037      5.894
REMARK  Name = ZINC95486267
REMARK  9 active torsions:
REMARK  status: ('A' for Active; 'I' for Inactive)
REMARK    1  A    between atoms: C1_1  and  C2_2
REMARK    2  A    between atoms: C2_2  and  C26_31
REMARK    3  A    between atoms: C3_3  and  C4_4
REMARK    4  A    between atoms: C4_4  and  C5_5
REMARK    5  A    between atoms: C8_8  and  O3_23
REMARK    6  A    between atoms: C11_12  and  C14_17
REMARK    7  A    between atoms: O3_23  and  C20_24
REMARK    8  A    between atoms: C23_27  and  C24_29
REMARK    9  A    between atoms: C23_27  and  C25_30
REMARK                            x       y       z     vdW  Elec       q    Type
REMARK                         _______ _______ _______ _____ _____    ______ ____
ROOT
ATOM      6  C   UNL     1      49.987  17.045  18.567  0.00  0.00    -0.150 A 
ATOM      7  C   UNL     1      49.433  17.862  19.539  0.00  0.00    +0.222 A 
ATOM      8  C   UNL     1      48.108  17.663  19.962  0.00  0.00    -0.196 A 
ATOM      9  C   UNL     1      47.557  18.561  20.998  0.00  0.00    +0.057 C 
ATOM     10  C   UNL     1      48.200  19.701  21.244  0.00  0.00    -0.057 C 
ATOM     11  C   UNL     1      49.441  20.048  20.466  0.00  0.00    +0.150 C 
ATOM     12  C   UNL     1      49.046  20.810  19.199  0.00  0.00    +0.036 C 
ATOM     13  C   UNL     1      50.344  20.935  21.327  0.00  0.00    +0.085 C 
ATOM     14  C   UNL     1      47.342  16.640  19.409  0.00  0.00    +0.232 A 
ATOM     17  C   UNL     1      47.912  15.814  18.427  0.00  0.00    -0.300 A 
ATOM     18  C   UNL     1      47.136  14.721  17.831  0.00  0.00    +0.400 C 
ATOM     19  O   UNL     1      46.081  14.356  18.306  0.00  0.00    -0.426 OA
ATOM     20  C   UNL     1      47.717  14.081  16.581  0.00  0.00    +0.038 C 
ATOM     21  C   UNL     1      49.231  13.955  16.804  0.00  0.00    +0.235 C 
ATOM     28  O   UNL     1      49.785  15.249  17.036  0.00  0.00    -0.290 OA
ATOM     29  O   UNL     1      50.152  18.865  20.101  0.00  0.00    -0.290 OA
ATOM     30  C   UNL     1      49.238  16.028  17.999  0.00  0.00    +0.230 A 
ENDROOT
BRANCH  21  22
ATOM     22  C   UNL     1      49.871  13.345  15.582  0.00  0.00    -0.092 A 
ATOM     23  C   UNL     1      51.248  13.283  15.481  0.00  0.00    +0.038 A 
ATOM     24  C   UNL     1      51.834  12.724  14.361  0.00  0.00    +0.005 A 
ATOM     25  C   UNL     1      51.043  12.227  13.342  0.00  0.00    +0.015 A 
ATOM     26  C   UNL     1      49.666  12.288  13.444  0.00  0.00    +0.009 A 
ATOM     27  C   UNL     1      49.080  12.843  14.566  0.00  0.00    +0.023 A 
ENDBRANCH  21  22
BRANCH  14  15
ATOM     15  O   UNL     1      46.063  16.444  19.813  0.00  0.00    -0.318 OA
ATOM     16  C   UNL     1      45.092  17.395  19.374  0.00  0.00    +0.242 C 
ENDBRANCH  14  15
BRANCH   6   5
ATOM      5  C   UNL     1      51.409  17.269  18.120  0.00  0.00    +0.136 C 
BRANCH   5   4
ATOM      1  C   UNL     1      52.677  19.787  18.208  0.00  0.00    +0.074 C 
ATOM      2  C   UNL     1      51.957  19.346  16.959  0.00  0.00    -0.128 C 
ATOM      3  C   UNL     1      51.856  20.277  15.779  0.00  0.00    +0.069 C 
ATOM      4  C   UNL     1      51.419  18.152  16.899  0.00  0.00    -0.050 C 
ENDBRANCH   5   4
ENDBRANCH   6   5
TORSDOF 4
ENDMDL
MODEL 9
REMARK VINA RESULT:      -6.2      2.452      5.775
REMARK  Name = ZINC95486267
REMARK  9 active torsions:
REMARK  status: ('A' for Active; 'I' for Inactive)
REMARK    1  A    between atoms: C1_1  and  C2_2
REMARK    2  A    between atoms: C2_2  and  C26_31
REMARK    3  A    between atoms: C3_3  and  C4_4
REMARK    4  A    between atoms: C4_4  and  C5_5
REMARK    5  A    between atoms: C8_8  and  O3_23
REMARK    6  A    between atoms: C11_12  and  C14_17
REMARK    7  A    between atoms: O3_23  and  C20_24
REMARK    8  A    between atoms: C23_27  and  C24_29
REMARK    9  A    between atoms: C23_27  and  C25_30
REMARK                            x       y       z     vdW  Elec       q    Type
REMARK                         _______ _______ _______ _____ _____    ______ ____
ROOT
ATOM      6  C   UNL     1      46.976  17.654  18.498  0.00  0.00    -0.150 A 
ATOM      7  C   UNL     1      47.504  18.833  18.996  0.00  0.00    +0.222 A 
ATOM      8  C   UNL     1      48.889  19.066  18.947  0.00  0.00    -0.196 A 
ATOM      9  C   UNL     1      49.409  20.337  19.494  0.00  0.00    +0.057 C 
ATOM     10  C   UNL     1      48.614  21.047  20.293  0.00  0.00    -0.057 C 
ATOM     11  C   UNL     1      47.235  20.541  20.625  0.00  0.00    +0.150 C 
ATOM     12  C   UNL     1      47.310  19.652  21.868  0.00  0.00    +0.036 C 
ATOM     13  C   UNL     1      46.316  21.731  20.910  0.00  0.00    +0.085 C 
ATOM     14  C   UNL     1      49.741  18.114  18.395  0.00  0.00    +0.232 A 
ATOM     17  C   UNL     1      49.197  16.922  17.890  0.00  0.00    -0.300 A 
ATOM     18  C   UNL     1      50.065  15.902  17.292  0.00  0.00    +0.400 C 
ATOM     19  O   UNL     1      51.224  16.133  17.015  0.00  0.00    -0.426 OA
ATOM     20  C   UNL     1      49.441  14.537  17.051  0.00  0.00    +0.038 C 
ATOM     21  C   UNL     1      48.019  14.782  16.525  0.00  0.00    +0.235 C 
ATOM     28  O   UNL     1      47.281  15.533  17.488  0.00  0.00    -0.290 OA
ATOM     29  O   UNL     1      46.702  19.784  19.537  0.00  0.00    -0.290 OA
ATOM     30  C   UNL     1      47.808  16.690  17.953  0.00  0.00    +0.230 A 
ENDROOT
BRANCH  21  22
ATOM     22  C   UNL     1      47.336  13.458  16.289  0.00  0.00    -0.092 A 
ATOM     23  C   UNL     1      46.270  13.080  17.083  0.00  0.00    +0.038 A 
ATOM     24  C   UNL     1      45.644  11.867  16.866  0.00  0.00    +0.005 A 
ATOM     25  C   UNL     1      46.082  11.033  15.854  0.00  0.00    +0.015 A 
ATOM     26  C   UNL     1      47.148  11.412  15.060  0.00  0.00    +0.009 A 
ATOM     27  C   UNL     1      47.772  12.628  15.274  0.00  0.00    +0.023 A 
ENDBRANCH  21  22
BRANCH  14  15
ATOM     15  O   UNL     1      51.077  18.333  18.346  0.00  0.00    -0.318 OA
ATOM     16  C   UNL     1      51.813  18.130  19.554  0.00  0.00    +0.242 C 
ENDBRANCH  14  15
BRANCH   6   5
ATOM      5  C   UNL     1      45.489  17.414  18.557  0.00  0.00    +0.136 C 
BRANCH   5   4
ATOM      1  C   UNL     1      43.608  18.580  20.305  0.00  0.00    +0.074 C 
ATOM      2  C   UNL     1      44.311  17.305  20.693  0.00  0.00    -0.128 C 
ATOM      3  C   UNL     1      44.059  16.686  22.044  0.00  0.00    +0.069 C 
ATOM      4  C   UNL     1      45.141  16.733  19.855  0.00  0.00    -0.050 C 
ENDBRANCH   5   4
ENDBRANCH   6   5
TORSDOF 4
ENDMDL
