MODEL 1
REMARK VINA RESULT:      -6.0      0.000      0.000
REMARK  Name = ZINC95486171
REMARK  8 active torsions:
REMARK  status: ('A' for Active; 'I' for Inactive)
REMARK    1  A    between atoms: C1_1  and  C2_2
REMARK    2  A    between atoms: C2_2  and  O2_4
REMARK    3  A    between atoms: O2_4  and  C3_5
REMARK    4  A    between atoms: C5_7  and  C9_14
REMARK    5  A    between atoms: C9_14  and  O5_15
REMARK    6  A    between atoms: O5_15  and  C10_16
REMARK    7  A    between atoms: C10_16  and  C11_18
REMARK    8  A    between atoms: C11_18  and  C12_19
REMARK                            x       y       z     vdW  Elec       q    Type
REMARK                         _______ _______ _______ _____ _____    ______ ____
ROOT
ATOM      4  C   UNL     1      42.572  19.844  19.229  0.00  0.00    +0.106 C 
ATOM      5  C   UNL     1      43.863  19.986  19.081  0.00  0.00    -0.011 C 
ATOM      6  C   UNL     1      44.935  19.394  19.930  0.00  0.00    +0.318 C 
ATOM     18  O   UNL     1      44.572  19.314  21.293  0.00  0.00    -0.362 OA
ATOM     19  C   UNL     1      43.643  18.437  21.673  0.00  0.00    +0.513 C 
ATOM     20  C   UNL     1      42.236  18.598  21.361  0.00  0.00    -0.011 C 
ATOM     21  O   UNL     1      43.990  17.459  22.309  0.00  0.00    -0.430 OA
ATOM     22  C   UNL     1      41.802  19.183  20.243  0.00  0.00    +0.068 C 
ENDROOT
BRANCH   4   3
ATOM      3  O   UNL     1      41.828  20.431  18.254  0.00  0.00    -0.310 OA
BRANCH   3   2
ATOM      1  C   UNL     1      39.587  21.421  18.562  0.00  0.00    +0.174 C 
ATOM      2  C   UNL     1      41.092  21.504  18.583  0.00  0.00    +0.459 C 
ATOM     23  O   UNL     1      41.635  22.537  18.896  0.00  0.00    -0.490 OA
ENDBRANCH   3   2
ENDBRANCH   4   3
BRANCH   6   7
ATOM      7  C   UNL     1      45.244  17.984  19.422  0.00  0.00    +0.199 C 
BRANCH   7   8
ATOM      8  O   UNL     1      45.558  18.039  18.029  0.00  0.00    -0.338 OA
BRANCH   8   9
ATOM      9  C   UNL     1      46.774  17.607  17.661  0.00  0.00    +0.464 C 
ATOM     17  O   UNL     1      46.990  17.316  16.508  0.00  0.00    -0.493 OA
BRANCH   9  10
ATOM     10  C   UNL     1      47.872  17.483  18.687  0.00  0.00    +0.167 C 
BRANCH  10  11
ATOM     11  C   UNL     1      48.844  18.622  18.522  0.00  0.00    -0.083 A 
ATOM     12  C   UNL     1      48.572  19.851  19.093  0.00  0.00    +0.021 A 
ATOM     13  C   UNL     1      49.464  20.896  18.940  0.00  0.00    +0.006 A 
ATOM     14  C   UNL     1      50.628  20.713  18.217  0.00  0.00    +0.009 A 
ATOM     15  C   UNL     1      50.899  19.484  17.647  0.00  0.00    +0.005 A 
ATOM     16  C   UNL     1      50.010  18.437  17.803  0.00  0.00    +0.019 A 
ENDBRANCH  10  11
ENDBRANCH   9  10
ENDBRANCH   8   9
ENDBRANCH   7   8
ENDBRANCH   6   7
TORSDOF 7
ENDMDL
MODEL 2
REMARK VINA RESULT:      -5.8      2.335      3.405
REMARK  Name = ZINC95486171
REMARK  8 active torsions:
REMARK  status: ('A' for Active; 'I' for Inactive)
REMARK    1  A    between atoms: C1_1  and  C2_2
REMARK    2  A    between atoms: C2_2  and  O2_4
REMARK    3  A    between atoms: O2_4  and  C3_5
REMARK    4  A    between atoms: C5_7  and  C9_14
REMARK    5  A    between atoms: C9_14  and  O5_15
REMARK    6  A    between atoms: O5_15  and  C10_16
REMARK    7  A    between atoms: C10_16  and  C11_18
REMARK    8  A    between atoms: C11_18  and  C12_19
REMARK                            x       y       z     vdW  Elec       q    Type
REMARK                         _______ _______ _______ _____ _____    ______ ____
ROOT
ATOM      4  C   UNL     1      43.853  19.811  20.001  0.00  0.00    +0.106 C 
ATOM      5  C   UNL     1      44.578  20.012  18.931  0.00  0.00    -0.011 C 
ATOM      6  C   UNL     1      45.801  20.856  18.822  0.00  0.00    +0.318 C 
ATOM     18  O   UNL     1      45.746  22.008  19.639  0.00  0.00    -0.362 OA
ATOM     19  C   UNL     1      45.831  21.875  20.963  0.00  0.00    +0.513 C 
ATOM     20  C   UNL     1      44.761  21.316  21.767  0.00  0.00    -0.011 C 
ATOM     21  O   UNL     1      46.849  22.238  21.521  0.00  0.00    -0.430 OA
ATOM     22  C   UNL     1      43.936  20.367  21.320  0.00  0.00    +0.068 C 
ENDROOT
BRANCH   4   3
ATOM      3  O   UNL     1      42.837  18.923  19.830  0.00  0.00    -0.310 OA
BRANCH   3   2
ATOM      1  C   UNL     1      40.964  20.392  19.174  0.00  0.00    +0.174 C 
ATOM      2  C   UNL     1      41.585  19.346  20.064  0.00  0.00    +0.459 C 
ATOM     23  O   UNL     1      40.955  18.888  20.988  0.00  0.00    -0.490 OA
ENDBRANCH   3   2
ENDBRANCH   4   3
BRANCH   6   7
ATOM      7  C   UNL     1      47.015  20.021  19.233  0.00  0.00    +0.199 C 
BRANCH   7   8
ATOM      8  O   UNL     1      48.212  20.726  18.899  0.00  0.00    -0.338 OA
BRANCH   8   9
ATOM      9  C   UNL     1      49.293  20.485  19.658  0.00  0.00    +0.464 C 
ATOM     17  O   UNL     1      49.189  19.829  20.667  0.00  0.00    -0.493 OA
BRANCH   9  10
ATOM     10  C   UNL     1      50.637  21.035  19.253  0.00  0.00    +0.167 C 
BRANCH  10  11
ATOM     11  C   UNL     1      51.093  20.361  17.985  0.00  0.00    -0.083 A 
ATOM     12  C   UNL     1      51.458  21.123  16.891  0.00  0.00    +0.021 A 
ATOM     13  C   UNL     1      51.875  20.504  15.727  0.00  0.00    +0.006 A 
ATOM     14  C   UNL     1      51.929  19.125  15.658  0.00  0.00    +0.009 A 
ATOM     15  C   UNL     1      51.565  18.364  16.753  0.00  0.00    +0.005 A 
ATOM     16  C   UNL     1      51.152  18.983  17.918  0.00  0.00    +0.019 A 
ENDBRANCH  10  11
ENDBRANCH   9  10
ENDBRANCH   8   9
ENDBRANCH   7   8
ENDBRANCH   6   7
TORSDOF 7
ENDMDL
MODEL 3
REMARK VINA RESULT:      -5.5      3.186      4.362
REMARK  Name = ZINC95486171
REMARK  8 active torsions:
REMARK  status: ('A' for Active; 'I' for Inactive)
REMARK    1  A    between atoms: C1_1  and  C2_2
REMARK    2  A    between atoms: C2_2  and  O2_4
REMARK    3  A    between atoms: O2_4  and  C3_5
REMARK    4  A    between atoms: C5_7  and  C9_14
REMARK    5  A    between atoms: C9_14  and  O5_15
REMARK    6  A    between atoms: O5_15  and  C10_16
REMARK    7  A    between atoms: C10_16  and  C11_18
REMARK    8  A    between atoms: C11_18  and  C12_19
REMARK                            x       y       z     vdW  Elec       q    Type
REMARK                         _______ _______ _______ _____ _____    ______ ____
ROOT
ATOM      4  C   UNL     1      42.456  19.703  19.348  0.00  0.00    +0.106 C 
ATOM      5  C   UNL     1      43.759  19.607  19.322  0.00  0.00    -0.011 C 
ATOM      6  C   UNL     1      44.620  18.828  20.256  0.00  0.00    +0.318 C 
ATOM     18  O   UNL     1      44.122  18.816  21.578  0.00  0.00    -0.362 OA
ATOM     19  C   UNL     1      43.017  18.123  21.855  0.00  0.00    +0.513 C 
ATOM     20  C   UNL     1      41.698  18.539  21.417  0.00  0.00    -0.011 C 
ATOM     21  O   UNL     1      43.119  17.098  22.503  0.00  0.00    -0.430 OA
ATOM     22  C   UNL     1      41.486  19.194  20.274  0.00  0.00    +0.068 C 
ENDROOT
BRANCH   4   3
ATOM      3  O   UNL     1      41.926  20.417  18.318  0.00  0.00    -0.310 OA
BRANCH   3   2
ATOM      1  C   UNL     1      39.705  21.479  18.502  0.00  0.00    +0.174 C 
ATOM      2  C   UNL     1      41.207  21.511  18.614  0.00  0.00    +0.459 C 
ATOM     23  O   UNL     1      41.764  22.522  18.971  0.00  0.00    -0.490 OA
ENDBRANCH   3   2
ENDBRANCH   4   3
BRANCH   6   7
ATOM      7  C   UNL     1      44.713  17.385  19.754  0.00  0.00    +0.199 C 
BRANCH   7   8
ATOM      8  O   UNL     1      46.007  16.859  20.056  0.00  0.00    -0.338 OA
BRANCH   8   9
ATOM      9  C   UNL     1      46.091  16.003  21.086  0.00  0.00    +0.464 C 
ATOM     17  O   UNL     1      46.776  16.274  22.044  0.00  0.00    -0.493 OA
BRANCH   9  10
ATOM     10  C   UNL     1      45.331  14.701  21.049  0.00  0.00    +0.167 C 
BRANCH  10  11
ATOM     11  C   UNL     1      45.904  13.816  19.973  0.00  0.00    -0.083 A 
ATOM     12  C   UNL     1      47.226  13.419  20.036  0.00  0.00    +0.021 A 
ATOM     13  C   UNL     1      47.752  12.608  19.047  0.00  0.00    +0.006 A 
ATOM     14  C   UNL     1      46.955  12.194  17.996  0.00  0.00    +0.009 A 
ATOM     15  C   UNL     1      45.633  12.591  17.934  0.00  0.00    +0.005 A 
ATOM     16  C   UNL     1      45.106  13.398  18.925  0.00  0.00    +0.019 A 
ENDBRANCH  10  11
ENDBRANCH   9  10
ENDBRANCH   8   9
ENDBRANCH   7   8
ENDBRANCH   6   7
TORSDOF 7
ENDMDL
MODEL 4
REMARK VINA RESULT:      -5.5      2.228      4.315
REMARK  Name = ZINC95486171
REMARK  8 active torsions:
REMARK  status: ('A' for Active; 'I' for Inactive)
REMARK    1  A    between atoms: C1_1  and  C2_2
REMARK    2  A    between atoms: C2_2  and  O2_4
REMARK    3  A    between atoms: O2_4  and  C3_5
REMARK    4  A    between atoms: C5_7  and  C9_14
REMARK    5  A    between atoms: C9_14  and  O5_15
REMARK    6  A    between atoms: O5_15  and  C10_16
REMARK    7  A    between atoms: C10_16  and  C11_18
REMARK    8  A    between atoms: C11_18  and  C12_19
REMARK                            x       y       z     vdW  Elec       q    Type
REMARK                         _______ _______ _______ _____ _____    ______ ____
ROOT
ATOM      4  C   UNL     1      45.462  18.082  18.527  0.00  0.00    +0.106 C 
ATOM      5  C   UNL     1      45.797  19.265  18.081  0.00  0.00    -0.011 C 
ATOM      6  C   UNL     1      45.571  20.575  18.755  0.00  0.00    +0.318 C 
ATOM     18  O   UNL     1      44.360  20.615  19.482  0.00  0.00    -0.362 OA
ATOM     19  C   UNL     1      44.245  19.901  20.602  0.00  0.00    +0.513 C 
ATOM     20  C   UNL     1      44.140  18.455  20.606  0.00  0.00    -0.011 C 
ATOM     21  O   UNL     1      44.227  20.489  21.667  0.00  0.00    -0.430 OA
ATOM     22  C   UNL     1      44.735  17.681  19.696  0.00  0.00    +0.068 C 
ENDROOT
BRANCH   4   3
ATOM      3  O   UNL     1      45.869  17.052  17.739  0.00  0.00    -0.310 OA
BRANCH   3   2
ATOM      1  C   UNL     1      46.214  14.693  18.383  0.00  0.00    +0.174 C 
ATOM      2  C   UNL     1      46.675  16.124  18.280  0.00  0.00    +0.459 C 
ATOM     23  O   UNL     1      47.769  16.437  18.684  0.00  0.00    -0.490 OA
ENDBRANCH   3   2
ENDBRANCH   4   3
BRANCH   6   7
ATOM      7  C   UNL     1      46.730  20.840  19.719  0.00  0.00    +0.199 C 
BRANCH   7   8
ATOM      8  O   UNL     1      47.970  20.631  19.041  0.00  0.00    -0.338 OA
BRANCH   8   9
ATOM      9  C   UNL     1      48.960  20.059  19.744  0.00  0.00    +0.464 C 
ATOM     17  O   UNL     1      48.729  19.106  20.449  0.00  0.00    -0.493 OA
BRANCH   9  10
ATOM     10  C   UNL     1      50.362  20.608  19.656  0.00  0.00    +0.167 C 
BRANCH  10  11
ATOM     11  C   UNL     1      50.917  20.346  18.280  0.00  0.00    -0.083 A 
ATOM     12  C   UNL     1      51.088  21.393  17.393  0.00  0.00    +0.021 A 
ATOM     13  C   UNL     1      51.597  21.151  16.130  0.00  0.00    +0.006 A 
ATOM     14  C   UNL     1      51.935  19.865  15.755  0.00  0.00    +0.009 A 
ATOM     15  C   UNL     1      51.764  18.819  16.642  0.00  0.00    +0.005 A 
ATOM     16  C   UNL     1      51.260  19.061  17.906  0.00  0.00    +0.019 A 
ENDBRANCH  10  11
ENDBRANCH   9  10
ENDBRANCH   8   9
ENDBRANCH   7   8
ENDBRANCH   6   7
TORSDOF 7
ENDMDL
MODEL 5
REMARK VINA RESULT:      -5.3      2.238      3.194
REMARK  Name = ZINC95486171
REMARK  8 active torsions:
REMARK  status: ('A' for Active; 'I' for Inactive)
REMARK    1  A    between atoms: C1_1  and  C2_2
REMARK    2  A    between atoms: C2_2  and  O2_4
REMARK    3  A    between atoms: O2_4  and  C3_5
REMARK    4  A    between atoms: C5_7  and  C9_14
REMARK    5  A    between atoms: C9_14  and  O5_15
REMARK    6  A    between atoms: O5_15  and  C10_16
REMARK    7  A    between atoms: C10_16  and  C11_18
REMARK    8  A    between atoms: C11_18  and  C12_19
REMARK                            x       y       z     vdW  Elec       q    Type
REMARK                         _______ _______ _______ _____ _____    ______ ____
ROOT
ATOM      4  C   UNL     1      43.322  20.478  19.036  0.00  0.00    +0.106 C 
ATOM      5  C   UNL     1      44.386  19.778  18.739  0.00  0.00    -0.011 C 
ATOM      6  C   UNL     1      45.799  20.103  19.083  0.00  0.00    +0.318 C 
ATOM     18  O   UNL     1      46.064  21.491  19.058  0.00  0.00    -0.362 OA
ATOM     19  C   UNL     1      45.544  22.274  20.004  0.00  0.00    +0.513 C 
ATOM     20  C   UNL     1      44.132  22.596  20.070  0.00  0.00    -0.011 C 
ATOM     21  O   UNL     1      46.287  22.737  20.848  0.00  0.00    -0.430 OA
ATOM     22  C   UNL     1      43.175  21.753  19.676  0.00  0.00    +0.068 C 
ENDROOT
BRANCH   4   3
ATOM      3  O   UNL     1      42.149  19.898  18.667  0.00  0.00    -0.310 OA
BRANCH   3   2
ATOM      1  C   UNL     1      41.035  19.132  20.733  0.00  0.00    +0.174 C 
ATOM      2  C   UNL     1      41.105  20.002  19.504  0.00  0.00    +0.459 C 
ATOM     23  O   UNL     1      40.220  20.791  19.272  0.00  0.00    -0.490 OA
ENDBRANCH   3   2
ENDBRANCH   4   3
BRANCH   6   7
ATOM      7  C   UNL     1      46.099  19.573  20.487  0.00  0.00    +0.199 C 
BRANCH   7   8
ATOM      8  O   UNL     1      47.175  18.635  20.421  0.00  0.00    -0.338 OA
BRANCH   8   9
ATOM      9  C   UNL     1      48.297  18.948  21.089  0.00  0.00    +0.464 C 
ATOM     17  O   UNL     1      48.963  18.076  21.595  0.00  0.00    -0.493 OA
BRANCH   9  10
ATOM     10  C   UNL     1      48.726  20.388  21.209  0.00  0.00    +0.167 C 
BRANCH  10  11
ATOM     11  C   UNL     1      49.838  20.664  20.230  0.00  0.00    -0.083 A 
ATOM     12  C   UNL     1      51.132  20.832  20.684  0.00  0.00    +0.021 A 
ATOM     13  C   UNL     1      52.152  21.086  19.784  0.00  0.00    +0.006 A 
ATOM     14  C   UNL     1      51.876  21.172  18.432  0.00  0.00    +0.009 A 
ATOM     15  C   UNL     1      50.581  21.004  17.980  0.00  0.00    +0.005 A 
ATOM     16  C   UNL     1      49.563  20.745  18.878  0.00  0.00    +0.019 A 
ENDBRANCH  10  11
ENDBRANCH   9  10
ENDBRANCH   8   9
ENDBRANCH   7   8
ENDBRANCH   6   7
TORSDOF 7
ENDMDL
MODEL 6
REMARK VINA RESULT:      -5.2      3.709      5.924
REMARK  Name = ZINC95486171
REMARK  8 active torsions:
REMARK  status: ('A' for Active; 'I' for Inactive)
REMARK    1  A    between atoms: C1_1  and  C2_2
REMARK    2  A    between atoms: C2_2  and  O2_4
REMARK    3  A    between atoms: O2_4  and  C3_5
REMARK    4  A    between atoms: C5_7  and  C9_14
REMARK    5  A    between atoms: C9_14  and  O5_15
REMARK    6  A    between atoms: O5_15  and  C10_16
REMARK    7  A    between atoms: C10_16  and  C11_18
REMARK    8  A    between atoms: C11_18  and  C12_19
REMARK                            x       y       z     vdW  Elec       q    Type
REMARK                         _______ _______ _______ _____ _____    ______ ____
ROOT
ATOM      4  C   UNL     1      46.394  14.468  17.391  0.00  0.00    +0.106 C 
ATOM      5  C   UNL     1      46.623  15.577  16.738  0.00  0.00    -0.011 C 
ATOM      6  C   UNL     1      46.566  16.965  17.278  0.00  0.00    +0.318 C 
ATOM     18  O   UNL     1      45.556  17.131  18.253  0.00  0.00    -0.362 OA
ATOM     19  C   UNL     1      45.702  16.561  19.449  0.00  0.00    +0.513 C 
ATOM     20  C   UNL     1      45.593  15.129  19.656  0.00  0.00    -0.011 C 
ATOM     21  O   UNL     1      45.935  17.271  20.409  0.00  0.00    -0.430 OA
ATOM     22  C   UNL     1      45.957  14.233  18.737  0.00  0.00    +0.068 C 
ENDROOT
BRANCH   4   3
ATOM      3  O   UNL     1      46.602  13.337  16.664  0.00  0.00    -0.310 OA
BRANCH   3   2
ATOM      1  C   UNL     1      48.718  12.357  17.474  0.00  0.00    +0.174 C 
ATOM      2  C   UNL     1      47.869  12.983  16.398  0.00  0.00    +0.459 C 
ATOM     23  O   UNL     1      48.329  13.166  15.296  0.00  0.00    -0.490 OA
ENDBRANCH   3   2
ENDBRANCH   4   3
BRANCH   6   7
ATOM      7  C   UNL     1      47.918  17.304  17.909  0.00  0.00    +0.199 C 
BRANCH   7   8
ATOM      8  O   UNL     1      48.951  17.138  16.937  0.00  0.00    -0.338 OA
BRANCH   8   9
ATOM      9  C   UNL     1      50.104  16.594  17.359  0.00  0.00    +0.464 C 
ATOM     17  O   UNL     1      50.366  15.445  17.088  0.00  0.00    -0.493 OA
BRANCH   9  10
ATOM     10  C   UNL     1      51.071  17.414  18.173  0.00  0.00    +0.167 C 
BRANCH  10  11
ATOM     11  C   UNL     1      51.275  18.752  17.511  0.00  0.00    -0.083 A 
ATOM     12  C   UNL     1      50.881  19.910  18.157  0.00  0.00    +0.021 A 
ATOM     13  C   UNL     1      51.067  21.137  17.548  0.00  0.00    +0.006 A 
ATOM     14  C   UNL     1      51.648  21.207  16.295  0.00  0.00    +0.009 A 
ATOM     15  C   UNL     1      52.042  20.050  15.651  0.00  0.00    +0.005 A 
ATOM     16  C   UNL     1      51.860  18.823  16.261  0.00  0.00    +0.019 A 
ENDBRANCH  10  11
ENDBRANCH   9  10
ENDBRANCH   8   9
ENDBRANCH   7   8
ENDBRANCH   6   7
TORSDOF 7
ENDMDL
MODEL 7
REMARK VINA RESULT:      -5.2      2.661      4.005
REMARK  Name = ZINC95486171
REMARK  8 active torsions:
REMARK  status: ('A' for Active; 'I' for Inactive)
REMARK    1  A    between atoms: C1_1  and  C2_2
REMARK    2  A    between atoms: C2_2  and  O2_4
REMARK    3  A    between atoms: O2_4  and  C3_5
REMARK    4  A    between atoms: C5_7  and  C9_14
REMARK    5  A    between atoms: C9_14  and  O5_15
REMARK    6  A    between atoms: O5_15  and  C10_16
REMARK    7  A    between atoms: C10_16  and  C11_18
REMARK    8  A    between atoms: C11_18  and  C12_19
REMARK                            x       y       z     vdW  Elec       q    Type
REMARK                         _______ _______ _______ _____ _____    ______ ____
ROOT
ATOM      4  C   UNL     1      46.113  20.400  19.644  0.00  0.00    +0.106 C 
ATOM      5  C   UNL     1      46.556  19.929  20.780  0.00  0.00    -0.011 C 
ATOM      6  C   UNL     1      47.041  18.546  21.050  0.00  0.00    +0.318 C 
ATOM     18  O   UNL     1      46.333  17.565  20.320  0.00  0.00    -0.362 OA
ATOM     19  C   UNL     1      46.507  17.479  19.001  0.00  0.00    +0.513 C 
ATOM     20  C   UNL     1      45.992  18.468  18.074  0.00  0.00    -0.011 C 
ATOM     21  O   UNL     1      47.125  16.530  18.556  0.00  0.00    -0.430 OA
ATOM     22  C   UNL     1      45.879  19.762  18.380  0.00  0.00    +0.068 C 
ENDROOT
BRANCH   4   3
ATOM      3  O   UNL     1      45.815  21.726  19.665  0.00  0.00    -0.310 OA
BRANCH   3   2
ATOM      1  C   UNL     1      44.720  23.023  21.458  0.00  0.00    +0.174 C 
ATOM      2  C   UNL     1      44.675  22.107  20.262  0.00  0.00    +0.459 C 
ATOM     23  O   UNL     1      43.612  21.716  19.841  0.00  0.00    -0.490 OA
ENDBRANCH   3   2
ENDBRANCH   4   3
BRANCH   6   7
ATOM      7  C   UNL     1      48.522  18.461  20.678  0.00  0.00    +0.199 C 
BRANCH   7   8
ATOM      8  O   UNL     1      49.194  19.640  21.127  0.00  0.00    -0.338 OA
BRANCH   8   9
ATOM      9  C   UNL     1      50.127  20.157  20.312  0.00  0.00    +0.464 C 
ATOM     17  O   UNL     1      51.297  20.084  20.608  0.00  0.00    -0.493 OA
BRANCH   9  10
ATOM     10  C   UNL     1      49.716  20.831  19.027  0.00  0.00    +0.167 C 
BRANCH  10  11
ATOM     11  C   UNL     1      50.542  20.288  17.890  0.00  0.00    -0.083 A 
ATOM     12  C   UNL     1      51.341  21.138  17.149  0.00  0.00    +0.021 A 
ATOM     13  C   UNL     1      52.098  20.640  16.104  0.00  0.00    +0.006 A 
ATOM     14  C   UNL     1      52.056  19.291  15.802  0.00  0.00    +0.009 A 
ATOM     15  C   UNL     1      51.256  18.442  16.543  0.00  0.00    +0.005 A 
ATOM     16  C   UNL     1      50.504  18.940  17.590  0.00  0.00    +0.019 A 
ENDBRANCH  10  11
ENDBRANCH   9  10
ENDBRANCH   8   9
ENDBRANCH   7   8
ENDBRANCH   6   7
TORSDOF 7
ENDMDL
MODEL 8
REMARK VINA RESULT:      -5.2      3.006      7.864
REMARK  Name = ZINC95486171
REMARK  8 active torsions:
REMARK  status: ('A' for Active; 'I' for Inactive)
REMARK    1  A    between atoms: C1_1  and  C2_2
REMARK    2  A    between atoms: C2_2  and  O2_4
REMARK    3  A    between atoms: O2_4  and  C3_5
REMARK    4  A    between atoms: C5_7  and  C9_14
REMARK    5  A    between atoms: C9_14  and  O5_15
REMARK    6  A    between atoms: O5_15  and  C10_16
REMARK    7  A    between atoms: C10_16  and  C11_18
REMARK    8  A    between atoms: C11_18  and  C12_19
REMARK                            x       y       z     vdW  Elec       q    Type
REMARK                         _______ _______ _______ _____ _____    ______ ____
ROOT
ATOM      4  C   UNL     1      51.116  18.045  17.908  0.00  0.00    +0.106 C 
ATOM      5  C   UNL     1      51.079  18.852  18.936  0.00  0.00    -0.011 C 
ATOM      6  C   UNL     1      51.206  20.337  18.916  0.00  0.00    +0.318 C 
ATOM     18  O   UNL     1      52.100  20.797  17.923  0.00  0.00    -0.362 OA
ATOM     19  C   UNL     1      51.754  20.705  16.638  0.00  0.00    +0.513 C 
ATOM     20  C   UNL     1      51.695  19.442  15.928  0.00  0.00    -0.011 C 
ATOM     21  O   UNL     1      51.476  21.725  16.036  0.00  0.00    -0.430 OA
ATOM     22  C   UNL     1      51.360  18.293  16.517  0.00  0.00    +0.068 C 
ENDROOT
BRANCH   4   3
ATOM      3  O   UNL     1      50.889  16.739  18.213  0.00  0.00    -0.310 OA
BRANCH   3   2
ATOM      1  C   UNL     1      48.428  16.673  18.031  0.00  0.00    +0.174 C 
ATOM      2  C   UNL     1      49.800  16.151  17.693  0.00  0.00    +0.459 C 
ATOM     23  O   UNL     1      49.921  15.203  16.954  0.00  0.00    -0.490 OA
ENDBRANCH   3   2
ENDBRANCH   4   3
BRANCH   6   7
ATOM      7  C   UNL     1      49.827  20.946  18.654  0.00  0.00    +0.199 C 
BRANCH   7   8
ATOM      8  O   UNL     1      49.040  20.871  19.845  0.00  0.00    -0.338 OA
BRANCH   8   9
ATOM      9  C   UNL     1      47.912  20.145  19.786  0.00  0.00    +0.464 C 
ATOM     17  O   UNL     1      47.564  19.490  20.740  0.00  0.00    -0.493 OA
BRANCH   9  10
ATOM     10  C   UNL     1      47.080  20.147  18.529  0.00  0.00    +0.167 C 
BRANCH  10  11
ATOM     11  C   UNL     1      45.674  20.576  18.859  0.00  0.00    -0.083 A 
ATOM     12  C   UNL     1      44.616  19.718  18.621  0.00  0.00    +0.021 A 
ATOM     13  C   UNL     1      43.325  20.113  18.923  0.00  0.00    +0.006 A 
ATOM     14  C   UNL     1      43.094  21.364  19.464  0.00  0.00    +0.009 A 
ATOM     15  C   UNL     1      44.152  22.220  19.702  0.00  0.00    +0.005 A 
ATOM     16  C   UNL     1      45.442  21.824  19.404  0.00  0.00    +0.019 A 
ENDBRANCH  10  11
ENDBRANCH   9  10
ENDBRANCH   8   9
ENDBRANCH   7   8
ENDBRANCH   6   7
TORSDOF 7
ENDMDL
MODEL 9
REMARK VINA RESULT:      -5.2      1.764      2.536
REMARK  Name = ZINC95486171
REMARK  8 active torsions:
REMARK  status: ('A' for Active; 'I' for Inactive)
REMARK    1  A    between atoms: C1_1  and  C2_2
REMARK    2  A    between atoms: C2_2  and  O2_4
REMARK    3  A    between atoms: O2_4  and  C3_5
REMARK    4  A    between atoms: C5_7  and  C9_14
REMARK    5  A    between atoms: C9_14  and  O5_15
REMARK    6  A    between atoms: O5_15  and  C10_16
REMARK    7  A    between atoms: C10_16  and  C11_18
REMARK    8  A    between atoms: C11_18  and  C12_19
REMARK                            x       y       z     vdW  Elec       q    Type
REMARK                         _______ _______ _______ _____ _____    ______ ____
ROOT
ATOM      4  C   UNL     1      44.454  19.100  19.324  0.00  0.00    +0.106 C 
ATOM      5  C   UNL     1      45.723  19.152  19.015  0.00  0.00    -0.011 C 
ATOM      6  C   UNL     1      46.826  18.352  19.617  0.00  0.00    +0.318 C 
ATOM     18  O   UNL     1      46.635  18.104  20.995  0.00  0.00    -0.362 OA
ATOM     19  C   UNL     1      45.675  17.262  21.381  0.00  0.00    +0.513 C 
ATOM     20  C   UNL     1      44.264  17.586  21.295  0.00  0.00    -0.011 C 
ATOM     21  O   UNL     1      45.997  16.176  21.824  0.00  0.00    -0.430 OA
ATOM     22  C   UNL     1      43.755  18.365  20.339  0.00  0.00    +0.068 C 
ENDROOT
BRANCH   4   3
ATOM      3  O   UNL     1      43.656  19.885  18.552  0.00  0.00    -0.310 OA
BRANCH   3   2
ATOM      1  C   UNL     1      43.847  22.016  19.785  0.00  0.00    +0.174 C 
ATOM      2  C   UNL     1      43.037  20.923  19.136  0.00  0.00    +0.459 C 
ATOM     23  O   UNL     1      41.830  20.981  19.143  0.00  0.00    -0.490 OA
ENDBRANCH   3   2
ENDBRANCH   4   3
BRANCH   6   7
ATOM      7  C   UNL     1      46.919  17.011  18.885  0.00  0.00    +0.199 C 
BRANCH   7   8
ATOM      8  O   UNL     1      48.290  16.623  18.775  0.00  0.00    -0.338 OA
BRANCH   8   9
ATOM      9  C   UNL     1      48.966  17.073  17.706  0.00  0.00    +0.464 C 
ATOM     17  O   UNL     1      48.373  17.360  16.692  0.00  0.00    -0.493 OA
BRANCH   9  10
ATOM     10  C   UNL     1      50.465  17.221  17.769  0.00  0.00    +0.167 C 
BRANCH  10  11
ATOM     11  C   UNL     1      50.851  18.612  17.339  0.00  0.00    -0.083 A 
ATOM     12  C   UNL     1      51.517  18.807  16.144  0.00  0.00    +0.021 A 
ATOM     13  C   UNL     1      51.872  20.084  15.751  0.00  0.00    +0.006 A 
ATOM     14  C   UNL     1      51.560  21.166  16.553  0.00  0.00    +0.009 A 
ATOM     15  C   UNL     1      50.894  20.971  17.748  0.00  0.00    +0.005 A 
ATOM     16  C   UNL     1      50.535  19.694  18.139  0.00  0.00    +0.019 A 
ENDBRANCH  10  11
ENDBRANCH   9  10
ENDBRANCH   8   9
ENDBRANCH   7   8
ENDBRANCH   6   7
TORSDOF 7
ENDMDL
