MODEL 1
REMARK VINA RESULT:      -5.5      0.000      0.000
REMARK  Name = ZINC00607911
REMARK  9 active torsions:
REMARK  status: ('A' for Active; 'I' for Inactive)
REMARK    1  A    between atoms: C1_1  and  N1_2
REMARK    2  A    between atoms: C6_7  and  O4_26
REMARK    3  A    between atoms: C7_8  and  O3_24
REMARK    4  A    between atoms: C15_17  and  O2_22
REMARK    5  A    between atoms: C16_18  and  O1_20
REMARK    6  A    between atoms: O1_20  and  C18_21
REMARK    7  A    between atoms: O2_22  and  C19_23
REMARK    8  A    between atoms: O3_24  and  C20_25
REMARK    9  A    between atoms: O4_26  and  C21_27
REMARK                            x       y       z     vdW  Elec       q    Type
REMARK                         _______ _______ _______ _____ _____    ______ ____
ROOT
ATOM      1  C   UNL     1      44.223  19.458  19.133  0.00  0.00    +0.329 C 
ATOM      2  N   UNL     1      45.623  19.889  19.010  0.00  0.00    -0.382 N 
ATOM      3  H   UNL     1      45.727  20.457  18.183  0.00  0.00    +0.426 HD
ATOM      4  C   UNL     1      45.996  20.669  20.189  0.00  0.00    +0.268 C 
ATOM      5  C   UNL     1      47.372  21.292  20.012  0.00  0.00    +0.126 C 
ATOM      6  C   UNL     1      48.330  20.362  19.322  0.00  0.00    -0.040 A 
ATOM      7  C   UNL     1      49.661  20.746  19.226  0.00  0.00    -0.052 A 
ATOM      8  C   UNL     1      50.596  19.923  18.625  0.00  0.00    +0.148 A 
ATOM     11  C   UNL     1      50.199  18.696  18.105  0.00  0.00    +0.081 A 
ATOM     14  C   UNL     1      48.861  18.317  18.181  0.00  0.00    +0.024 A 
ATOM     15  C   UNL     1      48.418  17.014  17.632  0.00  0.00    -0.060 A 
ATOM     16  C   UNL     1      49.342  16.010  17.353  0.00  0.00    +0.024 A 
ATOM     17  C   UNL     1      48.906  14.795  16.856  0.00  0.00    +0.108 A 
ATOM     20  C   UNL     1      47.547  14.579  16.639  0.00  0.00    +0.124 A 
ATOM     23  C   UNL     1      46.630  15.584  16.912  0.00  0.00    -0.024 A 
ATOM     24  C   UNL     1      47.062  16.801  17.397  0.00  0.00    -0.075 A 
ATOM     25  C   UNL     1      46.076  17.903  17.674  0.00  0.00    +0.113 C 
ATOM     26  C   UNL     1      47.926  19.152  18.799  0.00  0.00    -0.157 A 
ATOM     27  C   UNL     1      46.491  18.707  18.905  0.00  0.00    +0.244 C 
ENDROOT
BRANCH   8   9
ATOM      9  O   UNL     1      51.897  20.311  18.542  0.00  0.00    -0.296 OA
ATOM     10  C   UNL     1      52.401  21.118  19.607  0.00  0.00    +0.256 C 
ENDBRANCH   8   9
BRANCH  11  12
ATOM     12  O   UNL     1      51.112  17.870  17.526  0.00  0.00    -0.317 OA
ATOM     13  C   UNL     1      51.599  18.244  16.236  0.00  0.00    +0.237 C 
ENDBRANCH  11  12
BRANCH  17  18
ATOM     18  O   UNL     1      49.803  13.811  16.579  0.00  0.00    -0.299 OA
ATOM     19  C   UNL     1      51.131  14.220  16.246  0.00  0.00    +0.248 C 
ENDBRANCH  17  18
BRANCH  20  21
ATOM     21  O   UNL     1      47.119  13.381  16.161  0.00  0.00    -0.297 OA
ATOM     22  C   UNL     1      46.227  12.633  16.989  0.00  0.00    +0.246 C 
ENDBRANCH  20  21
TORSDOF 4
ENDMDL
MODEL 2
REMARK VINA RESULT:      -5.5      2.213      5.357
REMARK  Name = ZINC00607911
REMARK  9 active torsions:
REMARK  status: ('A' for Active; 'I' for Inactive)
REMARK    1  A    between atoms: C1_1  and  N1_2
REMARK    2  A    between atoms: C6_7  and  O4_26
REMARK    3  A    between atoms: C7_8  and  O3_24
REMARK    4  A    between atoms: C15_17  and  O2_22
REMARK    5  A    between atoms: C16_18  and  O1_20
REMARK    6  A    between atoms: O1_20  and  C18_21
REMARK    7  A    between atoms: O2_22  and  C19_23
REMARK    8  A    between atoms: O3_24  and  C20_25
REMARK    9  A    between atoms: O4_26  and  C21_27
REMARK                            x       y       z     vdW  Elec       q    Type
REMARK                         _______ _______ _______ _____ _____    ______ ____
ROOT
ATOM      1  C   UNL     1      44.763  22.385  19.513  0.00  0.00    +0.329 C 
ATOM      2  N   UNL     1      44.778  20.962  19.879  0.00  0.00    -0.382 N 
ATOM      3  H   UNL     1      44.903  20.872  20.876  0.00  0.00    +0.426 HD
ATOM      4  C   UNL     1      43.510  20.346  19.488  0.00  0.00    +0.268 C 
ATOM      5  C   UNL     1      43.412  18.925  20.020  0.00  0.00    +0.126 C 
ATOM      6  C   UNL     1      44.723  18.197  19.933  0.00  0.00    -0.040 A 
ATOM      7  C   UNL     1      44.744  16.844  20.248  0.00  0.00    -0.052 A 
ATOM      8  C   UNL     1      45.915  16.113  20.162  0.00  0.00    +0.148 A 
ATOM     11  C   UNL     1      47.090  16.739  19.761  0.00  0.00    +0.081 A 
ATOM     14  C   UNL     1      47.076  18.100  19.465  0.00  0.00    +0.024 A 
ATOM     15  C   UNL     1      48.319  18.786  19.037  0.00  0.00    -0.060 A 
ATOM     16  C   UNL     1      49.416  18.054  18.590  0.00  0.00    +0.024 A 
ATOM     17  C   UNL     1      50.560  18.715  18.179  0.00  0.00    +0.108 A 
ATOM     20  C   UNL     1      50.609  20.107  18.211  0.00  0.00    +0.124 A 
ATOM     23  C   UNL     1      49.517  20.832  18.664  0.00  0.00    -0.024 A 
ATOM     24  C   UNL     1      48.378  20.177  19.085  0.00  0.00    -0.075 A 
ATOM     25  C   UNL     1      47.197  20.955  19.598  0.00  0.00    +0.113 C 
ATOM     26  C   UNL     1      45.886  18.828  19.545  0.00  0.00    -0.157 A 
ATOM     27  C   UNL     1      45.886  20.290  19.184  0.00  0.00    +0.244 C 
ENDROOT
BRANCH   8   9
ATOM      9  O   UNL     1      45.918  14.788  20.470  0.00  0.00    -0.296 OA
ATOM     10  C   UNL     1      45.415  13.891  19.479  0.00  0.00    +0.256 C 
ENDBRANCH   8   9
BRANCH  11  12
ATOM     12  O   UNL     1      48.244  16.027  19.658  0.00  0.00    -0.317 OA
ATOM     13  C   UNL     1      48.866  15.618  20.877  0.00  0.00    +0.237 C 
ENDBRANCH  11  12
BRANCH  17  18
ATOM     18  O   UNL     1      51.635  18.006  17.743  0.00  0.00    -0.299 OA
ATOM     19  C   UNL     1      51.535  17.403  16.451  0.00  0.00    +0.248 C 
ENDBRANCH  17  18
BRANCH  20  21
ATOM     21  O   UNL     1      51.730  20.755  17.798  0.00  0.00    -0.297 OA
ATOM     22  C   UNL     1      51.779  21.157  16.428  0.00  0.00    +0.246 C 
ENDBRANCH  20  21
TORSDOF 4
ENDMDL
MODEL 3
REMARK VINA RESULT:      -5.5      3.194      6.042
REMARK  Name = ZINC00607911
REMARK  9 active torsions:
REMARK  status: ('A' for Active; 'I' for Inactive)
REMARK    1  A    between atoms: C1_1  and  N1_2
REMARK    2  A    between atoms: C6_7  and  O4_26
REMARK    3  A    between atoms: C7_8  and  O3_24
REMARK    4  A    between atoms: C15_17  and  O2_22
REMARK    5  A    between atoms: C16_18  and  O1_20
REMARK    6  A    between atoms: O1_20  and  C18_21
REMARK    7  A    between atoms: O2_22  and  C19_23
REMARK    8  A    between atoms: O3_24  and  C20_25
REMARK    9  A    between atoms: O4_26  and  C21_27
REMARK                            x       y       z     vdW  Elec       q    Type
REMARK                         _______ _______ _______ _____ _____    ______ ____
ROOT
ATOM      1  C   UNL     1      46.615  15.719  17.087  0.00  0.00    +0.329 C 
ATOM      2  N   UNL     1      47.552  16.516  17.890  0.00  0.00    -0.382 N 
ATOM      3  H   UNL     1      47.626  16.117  18.814  0.00  0.00    +0.426 HD
ATOM      4  C   UNL     1      48.867  16.510  17.251  0.00  0.00    +0.268 C 
ATOM      5  C   UNL     1      49.908  17.162  18.148  0.00  0.00    +0.126 C 
ATOM      6  C   UNL     1      49.364  18.366  18.863  0.00  0.00    -0.040 A 
ATOM      7  C   UNL     1      50.246  19.144  19.602  0.00  0.00    -0.052 A 
ATOM      8  C   UNL     1      49.811  20.278  20.263  0.00  0.00    +0.148 A 
ATOM     11  C   UNL     1      48.471  20.645  20.192  0.00  0.00    +0.081 A 
ATOM     14  C   UNL     1      47.580  19.855  19.469  0.00  0.00    +0.024 A 
ATOM     15  C   UNL     1      46.148  20.228  19.383  0.00  0.00    -0.060 A 
ATOM     16  C   UNL     1      45.729  21.515  19.709  0.00  0.00    +0.024 A 
ATOM     17  C   UNL     1      44.389  21.847  19.605  0.00  0.00    +0.108 A 
ATOM     20  C   UNL     1      43.468  20.896  19.175  0.00  0.00    +0.124 A 
ATOM     23  C   UNL     1      43.888  19.612  18.859  0.00  0.00    -0.024 A 
ATOM     24  C   UNL     1      45.221  19.274  18.970  0.00  0.00    -0.075 A 
ATOM     25  C   UNL     1      45.681  17.878  18.651  0.00  0.00    +0.113 C 
ATOM     26  C   UNL     1      48.031  18.716  18.797  0.00  0.00    -0.157 A 
ATOM     27  C   UNL     1      47.058  17.897  17.990  0.00  0.00    +0.244 C 
ENDROOT
BRANCH   8   9
ATOM      9  O   UNL     1      50.687  21.031  20.979  0.00  0.00    -0.296 OA
ATOM     10  C   UNL     1      51.984  21.230  20.412  0.00  0.00    +0.256 C 
ENDBRANCH   8   9
BRANCH  11  12
ATOM     12  O   UNL     1      48.034  21.767  20.824  0.00  0.00    -0.317 OA
ATOM     13  C   UNL     1      47.919  21.708  22.247  0.00  0.00    +0.237 C 
ENDBRANCH  11  12
BRANCH  17  18
ATOM     18  O   UNL     1      43.974  23.102  19.923  0.00  0.00    -0.299 OA
ATOM     19  C   UNL     1      44.542  24.182  19.180  0.00  0.00    +0.248 C 
ENDBRANCH  17  18
BRANCH  20  21
ATOM     21  O   UNL     1      42.154  21.226  19.065  0.00  0.00    -0.297 OA
ATOM     22  C   UNL     1      41.320  20.332  18.325  0.00  0.00    +0.246 C 
ENDBRANCH  20  21
TORSDOF 4
ENDMDL
MODEL 4
REMARK VINA RESULT:      -5.4      2.140      5.495
REMARK  Name = ZINC00607911
REMARK  9 active torsions:
REMARK  status: ('A' for Active; 'I' for Inactive)
REMARK    1  A    between atoms: C1_1  and  N1_2
REMARK    2  A    between atoms: C6_7  and  O4_26
REMARK    3  A    between atoms: C7_8  and  O3_24
REMARK    4  A    between atoms: C15_17  and  O2_22
REMARK    5  A    between atoms: C16_18  and  O1_20
REMARK    6  A    between atoms: O1_20  and  C18_21
REMARK    7  A    between atoms: O2_22  and  C19_23
REMARK    8  A    between atoms: O3_24  and  C20_25
REMARK    9  A    between atoms: O4_26  and  C21_27
REMARK                            x       y       z     vdW  Elec       q    Type
REMARK                         _______ _______ _______ _____ _____    ______ ____
ROOT
ATOM      1  C   UNL     1      45.606  22.896  20.792  0.00  0.00    +0.329 C 
ATOM      2  N   UNL     1      45.389  21.448  20.669  0.00  0.00    -0.382 N 
ATOM      3  H   UNL     1      45.491  21.016  21.575  0.00  0.00    +0.426 HD
ATOM      4  C   UNL     1      44.042  21.200  20.158  0.00  0.00    +0.268 C 
ATOM      5  C   UNL     1      43.713  19.716  20.199  0.00  0.00    +0.126 C 
ATOM      6  C   UNL     1      44.890  18.865  19.817  0.00  0.00    -0.040 A 
ATOM      7  C   UNL     1      44.691  17.498  19.669  0.00  0.00    -0.052 A 
ATOM      8  C   UNL     1      45.730  16.665  19.295  0.00  0.00    +0.148 A 
ATOM     11  C   UNL     1      46.993  17.200  19.067  0.00  0.00    +0.081 A 
ATOM     14  C   UNL     1      47.201  18.567  19.235  0.00  0.00    +0.024 A 
ATOM     15  C   UNL     1      48.540  19.156  18.998  0.00  0.00    -0.060 A 
ATOM     16  C   UNL     1      49.509  18.453  18.285  0.00  0.00    +0.024 A 
ATOM     17  C   UNL     1      50.747  19.028  18.061  0.00  0.00    +0.108 A 
ATOM     20  C   UNL     1      51.019  20.305  18.546  0.00  0.00    +0.124 A 
ATOM     23  C   UNL     1      50.055  20.999  19.261  0.00  0.00    -0.024 A 
ATOM     24  C   UNL     1      48.822  20.426  19.496  0.00  0.00    -0.075 A 
ATOM     25  C   UNL     1      47.778  21.162  20.290  0.00  0.00    +0.113 C 
ATOM     26  C   UNL     1      46.143  19.401  19.603  0.00  0.00    -0.157 A 
ATOM     27  C   UNL     1      46.381  20.882  19.742  0.00  0.00    +0.244 C 
ENDROOT
BRANCH   8   9
ATOM      9  O   UNL     1      45.518  15.330  19.151  0.00  0.00    -0.296 OA
ATOM     10  C   UNL     1      45.221  14.590  20.337  0.00  0.00    +0.256 C 
ENDBRANCH   8   9
BRANCH  11  12
ATOM     12  O   UNL     1      48.019  16.394  18.683  0.00  0.00    -0.317 OA
ATOM     13  C   UNL     1      48.653  15.620  19.703  0.00  0.00    +0.237 C 
ENDBRANCH  11  12
BRANCH  17  18
ATOM     18  O   UNL     1      51.698  18.347  17.368  0.00  0.00    -0.299 OA
ATOM     19  C   UNL     1      51.639  18.421  15.942  0.00  0.00    +0.248 C 
ENDBRANCH  17  18
BRANCH  20  21
ATOM     21  O   UNL     1      52.233  20.873  18.316  0.00  0.00    -0.297 OA
ATOM     22  C   UNL     1      52.864  21.523  19.420  0.00  0.00    +0.246 C 
ENDBRANCH  20  21
TORSDOF 4
ENDMDL
MODEL 5
REMARK VINA RESULT:      -5.3      2.322      4.498
REMARK  Name = ZINC00607911
REMARK  9 active torsions:
REMARK  status: ('A' for Active; 'I' for Inactive)
REMARK    1  A    between atoms: C1_1  and  N1_2
REMARK    2  A    between atoms: C6_7  and  O4_26
REMARK    3  A    between atoms: C7_8  and  O3_24
REMARK    4  A    between atoms: C15_17  and  O2_22
REMARK    5  A    between atoms: C16_18  and  O1_20
REMARK    6  A    between atoms: O1_20  and  C18_21
REMARK    7  A    between atoms: O2_22  and  C19_23
REMARK    8  A    between atoms: O3_24  and  C20_25
REMARK    9  A    between atoms: O4_26  and  C21_27
REMARK                            x       y       z     vdW  Elec       q    Type
REMARK                         _______ _______ _______ _____ _____    ______ ____
ROOT
ATOM      1  C   UNL     1      52.586  19.221  18.046  0.00  0.00    +0.329 C 
ATOM      2  N   UNL     1      51.201  19.337  18.522  0.00  0.00    -0.382 N 
ATOM      3  H   UNL     1      51.166  19.122  19.507  0.00  0.00    +0.426 HD
ATOM      4  C   UNL     1      50.724  20.702  18.303  0.00  0.00    +0.268 C 
ATOM      5  C   UNL     1      49.367  20.912  18.955  0.00  0.00    +0.126 C 
ATOM      6  C   UNL     1      48.475  19.712  18.806  0.00  0.00    -0.040 A 
ATOM      7  C   UNL     1      47.155  19.819  19.226  0.00  0.00    -0.052 A 
ATOM      8  C   UNL     1      46.279  18.758  19.091  0.00  0.00    +0.148 A 
ATOM     11  C   UNL     1      46.723  17.564  18.532  0.00  0.00    +0.081 A 
ATOM     14  C   UNL     1      48.052  17.447  18.130  0.00  0.00    +0.024 A 
ATOM     15  C   UNL     1      48.545  16.183  17.533  0.00  0.00    -0.060 A 
ATOM     16  C   UNL     1      47.652  15.232  17.047  0.00  0.00    +0.024 A 
ATOM     17  C   UNL     1      48.134  14.066  16.478  0.00  0.00    +0.108 A 
ATOM     20  C   UNL     1      49.507  13.849  16.393  0.00  0.00    +0.124 A 
ATOM     23  C   UNL     1      50.394  14.796  16.885  0.00  0.00    -0.024 A 
ATOM     24  C   UNL     1      49.917  15.955  17.462  0.00  0.00    -0.075 A 
ATOM     25  C   UNL     1      50.871  16.977  18.019  0.00  0.00    +0.113 C 
ATOM     26  C   UNL     1      48.927  18.528  18.260  0.00  0.00    -0.157 A 
ATOM     27  C   UNL     1      50.349  18.393  17.784  0.00  0.00    +0.244 C 
ENDROOT
BRANCH   8   9
ATOM      9  O   UNL     1      44.989  18.879  19.504  0.00  0.00    -0.296 OA
ATOM     10  C   UNL     1      44.150  19.761  18.756  0.00  0.00    +0.256 C 
ENDBRANCH   8   9
BRANCH  11  12
ATOM     12  O   UNL     1      45.867  16.519  18.379  0.00  0.00    -0.317 OA
ATOM     13  C   UNL     1      45.464  15.832  19.566  0.00  0.00    +0.237 C 
ENDBRANCH  11  12
BRANCH  17  18
ATOM     18  O   UNL     1      47.267  13.132  16.003  0.00  0.00    -0.299 OA
ATOM     19  C   UNL     1      46.220  12.713  16.881  0.00  0.00    +0.248 C 
ENDBRANCH  17  18
BRANCH  20  21
ATOM     21  O   UNL     1      49.980  12.708  15.826  0.00  0.00    -0.297 OA
ATOM     22  C   UNL     1      50.558  12.822  14.525  0.00  0.00    +0.246 C 
ENDBRANCH  20  21
TORSDOF 4
ENDMDL
MODEL 6
REMARK VINA RESULT:      -5.3      2.915      6.733
REMARK  Name = ZINC00607911
REMARK  9 active torsions:
REMARK  status: ('A' for Active; 'I' for Inactive)
REMARK    1  A    between atoms: C1_1  and  N1_2
REMARK    2  A    between atoms: C6_7  and  O4_26
REMARK    3  A    between atoms: C7_8  and  O3_24
REMARK    4  A    between atoms: C15_17  and  O2_22
REMARK    5  A    between atoms: C16_18  and  O1_20
REMARK    6  A    between atoms: O1_20  and  C18_21
REMARK    7  A    between atoms: O2_22  and  C19_23
REMARK    8  A    between atoms: O3_24  and  C20_25
REMARK    9  A    between atoms: O4_26  and  C21_27
REMARK                            x       y       z     vdW  Elec       q    Type
REMARK                         _______ _______ _______ _____ _____    ______ ____
ROOT
ATOM      1  C   UNL     1      51.834  20.961  18.563  0.00  0.00    +0.329 C 
ATOM      2  N   UNL     1      51.050  19.849  18.010  0.00  0.00    -0.382 N 
ATOM      3  H   UNL     1      50.690  20.109  17.104  0.00  0.00    +0.426 HD
ATOM      4  C   UNL     1      51.905  18.670  17.876  0.00  0.00    +0.268 C 
ATOM      5  C   UNL     1      51.182  17.559  17.132  0.00  0.00    +0.126 C 
ATOM      6  C   UNL     1      49.734  17.465  17.522  0.00  0.00    -0.040 A 
ATOM      7  C   UNL     1      48.989  16.401  17.029  0.00  0.00    -0.052 A 
ATOM      8  C   UNL     1      47.659  16.246  17.373  0.00  0.00    +0.148 A 
ATOM     11  C   UNL     1      47.054  17.169  18.219  0.00  0.00    +0.081 A 
ATOM     14  C   UNL     1      47.793  18.249  18.698  0.00  0.00    +0.024 A 
ATOM     15  C   UNL     1      47.166  19.244  19.600  0.00  0.00    -0.060 A 
ATOM     16  C   UNL     1      45.973  18.954  20.258  0.00  0.00    +0.024 A 
ATOM     17  C   UNL     1      45.414  19.891  21.109  0.00  0.00    +0.108 A 
ATOM     20  C   UNL     1      46.045  21.117  21.305  0.00  0.00    +0.124 A 
ATOM     23  C   UNL     1      47.228  21.405  20.642  0.00  0.00    -0.024 A 
ATOM     24  C   UNL     1      47.784  20.478  19.785  0.00  0.00    -0.075 A 
ATOM     25  C   UNL     1      49.056  20.791  19.045  0.00  0.00    +0.113 C 
ATOM     26  C   UNL     1      49.139  18.391  18.353  0.00  0.00    -0.157 A 
ATOM     27  C   UNL     1      49.929  19.545  18.913  0.00  0.00    +0.244 C 
ENDROOT
BRANCH   8   9
ATOM      9  O   UNL     1      46.945  15.197  16.885  0.00  0.00    -0.296 OA
ATOM     10  C   UNL     1      47.685  14.056  16.449  0.00  0.00    +0.256 C 
ENDBRANCH   8   9
BRANCH  11  12
ATOM     12  O   UNL     1      45.751  17.019  18.577  0.00  0.00    -0.317 OA
ATOM     13  C   UNL     1      45.437  15.923  19.439  0.00  0.00    +0.237 C 
ENDBRANCH  11  12
BRANCH  17  18
ATOM     18  O   UNL     1      44.248  19.615  21.753  0.00  0.00    -0.299 OA
ATOM     19  C   UNL     1      43.127  19.260  20.941  0.00  0.00    +0.248 C 
ENDBRANCH  17  18
BRANCH  20  21
ATOM     21  O   UNL     1      45.499  22.033  22.148  0.00  0.00    -0.297 OA
ATOM     22  C   UNL     1      44.697  23.059  21.561  0.00  0.00    +0.246 C 
ENDBRANCH  20  21
TORSDOF 4
ENDMDL
MODEL 7
REMARK VINA RESULT:      -5.1      1.501      5.570
REMARK  Name = ZINC00607911
REMARK  9 active torsions:
REMARK  status: ('A' for Active; 'I' for Inactive)
REMARK    1  A    between atoms: C1_1  and  N1_2
REMARK    2  A    between atoms: C6_7  and  O4_26
REMARK    3  A    between atoms: C7_8  and  O3_24
REMARK    4  A    between atoms: C15_17  and  O2_22
REMARK    5  A    between atoms: C16_18  and  O1_20
REMARK    6  A    between atoms: O1_20  and  C18_21
REMARK    7  A    between atoms: O2_22  and  C19_23
REMARK    8  A    between atoms: O3_24  and  C20_25
REMARK    9  A    between atoms: O4_26  and  C21_27
REMARK                            x       y       z     vdW  Elec       q    Type
REMARK                         _______ _______ _______ _____ _____    ______ ____
ROOT
ATOM      1  C   UNL     1      45.445  20.626  21.811  0.00  0.00    +0.329 C 
ATOM      2  N   UNL     1      45.605  19.333  21.130  0.00  0.00    -0.382 N 
ATOM      3  H   UNL     1      45.886  18.634  21.801  0.00  0.00    +0.426 HD
ATOM      4  C   UNL     1      44.334  18.944  20.521  0.00  0.00    +0.268 C 
ATOM      5  C   UNL     1      44.409  17.527  19.973  0.00  0.00    +0.126 C 
ATOM      6  C   UNL     1      45.735  17.239  19.328  0.00  0.00    -0.040 A 
ATOM      7  C   UNL     1      45.889  16.033  18.657  0.00  0.00    -0.052 A 
ATOM      8  C   UNL     1      47.077  15.720  18.021  0.00  0.00    +0.148 A 
ATOM     11  C   UNL     1      48.135  16.622  18.058  0.00  0.00    +0.081 A 
ATOM     14  C   UNL     1      47.991  17.823  18.749  0.00  0.00    +0.024 A 
ATOM     15  C   UNL     1      49.107  18.796  18.801  0.00  0.00    -0.060 A 
ATOM     16  C   UNL     1      50.168  18.709  17.903  0.00  0.00    +0.024 A 
ATOM     17  C   UNL     1      51.192  19.638  17.958  0.00  0.00    +0.108 A 
ATOM     20  C   UNL     1      51.157  20.656  18.908  0.00  0.00    +0.124 A 
ATOM     23  C   UNL     1      50.103  20.736  19.805  0.00  0.00    -0.024 A 
ATOM     24  C   UNL     1      49.085  19.806  19.761  0.00  0.00    -0.075 A 
ATOM     25  C   UNL     1      47.949  19.871  20.745  0.00  0.00    +0.113 C 
ATOM     26  C   UNL     1      46.783  18.134  19.379  0.00  0.00    -0.157 A 
ATOM     27  C   UNL     1      46.635  19.455  20.088  0.00  0.00    +0.244 C 
ENDROOT
BRANCH   8   9
ATOM      9  O   UNL     1      47.211  14.537  17.365  0.00  0.00    -0.296 OA
ATOM     10  C   UNL     1      46.304  13.492  17.722  0.00  0.00    +0.256 C 
ENDBRANCH   8   9
BRANCH  11  12
ATOM     12  O   UNL     1      49.303  16.333  17.424  0.00  0.00    -0.317 OA
ATOM     13  C   UNL     1      50.127  15.323  18.009  0.00  0.00    +0.237 C 
ENDBRANCH  11  12
BRANCH  17  18
ATOM     18  O   UNL     1      52.231  19.557  17.085  0.00  0.00    -0.299 OA
ATOM     19  C   UNL     1      51.938  19.784  15.704  0.00  0.00    +0.248 C 
ENDBRANCH  17  18
BRANCH  20  21
ATOM     21  O   UNL     1      52.159  21.574  18.954  0.00  0.00    -0.297 OA
ATOM     22  C   UNL     1      52.749  21.825  20.230  0.00  0.00    +0.246 C 
ENDBRANCH  20  21
TORSDOF 4
ENDMDL
MODEL 8
REMARK VINA RESULT:      -5.1      2.509      4.328
REMARK  Name = ZINC00607911
REMARK  9 active torsions:
REMARK  status: ('A' for Active; 'I' for Inactive)
REMARK    1  A    between atoms: C1_1  and  N1_2
REMARK    2  A    between atoms: C6_7  and  O4_26
REMARK    3  A    between atoms: C7_8  and  O3_24
REMARK    4  A    between atoms: C15_17  and  O2_22
REMARK    5  A    between atoms: C16_18  and  O1_20
REMARK    6  A    between atoms: O1_20  and  C18_21
REMARK    7  A    between atoms: O2_22  and  C19_23
REMARK    8  A    between atoms: O3_24  and  C20_25
REMARK    9  A    between atoms: O4_26  and  C21_27
REMARK                            x       y       z     vdW  Elec       q    Type
REMARK                         _______ _______ _______ _____ _____    ______ ____
ROOT
ATOM      1  C   UNL     1      52.197  18.321  15.446  0.00  0.00    +0.329 C 
ATOM      2  N   UNL     1      51.714  18.906  16.704  0.00  0.00    -0.382 N 
ATOM      3  H   UNL     1      52.330  18.640  17.457  0.00  0.00    +0.426 HD
ATOM      4  C   UNL     1      51.691  20.364  16.585  0.00  0.00    +0.268 C 
ATOM      5  C   UNL     1      51.381  21.011  17.925  0.00  0.00    +0.126 C 
ATOM      6  C   UNL     1      50.340  20.249  18.694  0.00  0.00    -0.040 A 
ATOM      7  C   UNL     1      49.854  20.807  19.870  0.00  0.00    -0.052 A 
ATOM      8  C   UNL     1      48.877  20.166  20.610  0.00  0.00    +0.148 A 
ATOM     11  C   UNL     1      48.376  18.943  20.175  0.00  0.00    +0.081 A 
ATOM     14  C   UNL     1      48.877  18.371  19.008  0.00  0.00    +0.024 A 
ATOM     15  C   UNL     1      48.357  17.068  18.530  0.00  0.00    -0.060 A 
ATOM     16  C   UNL     1      47.153  16.563  19.013  0.00  0.00    +0.024 A 
ATOM     17  C   UNL     1      46.677  15.353  18.541  0.00  0.00    +0.108 A 
ATOM     20  C   UNL     1      47.402  14.646  17.584  0.00  0.00    +0.124 A 
ATOM     23  C   UNL     1      48.605  15.148  17.110  0.00  0.00    -0.024 A 
ATOM     24  C   UNL     1      49.088  16.350  17.586  0.00  0.00    -0.075 A 
ATOM     25  C   UNL     1      50.402  16.891  17.094  0.00  0.00    +0.113 C 
ATOM     26  C   UNL     1      49.856  19.032  18.263  0.00  0.00    -0.157 A 
ATOM     27  C   UNL     1      50.357  18.413  16.983  0.00  0.00    +0.244 C 
ENDROOT
BRANCH   8   9
ATOM      9  O   UNL     1      48.409  20.726  21.757  0.00  0.00    -0.296 OA
ATOM     10  C   UNL     1      47.430  21.758  21.621  0.00  0.00    +0.256 C 
ENDBRANCH   8   9
BRANCH  11  12
ATOM     12  O   UNL     1      47.404  18.310  20.886  0.00  0.00    -0.317 OA
ATOM     13  C   UNL     1      47.789  17.717  22.127  0.00  0.00    +0.237 C 
ENDBRANCH  11  12
BRANCH  17  18
ATOM     18  O   UNL     1      45.503  14.853  19.011  0.00  0.00    -0.299 OA
ATOM     19  C   UNL     1      45.109  15.251  20.325  0.00  0.00    +0.248 C 
ENDBRANCH  17  18
BRANCH  20  21
ATOM     21  O   UNL     1      46.929  13.462  17.114  0.00  0.00    -0.297 OA
ATOM     22  C   UNL     1      47.710  12.801  16.117  0.00  0.00    +0.246 C 
ENDBRANCH  20  21
TORSDOF 4
ENDMDL
MODEL 9
REMARK VINA RESULT:      -4.6     20.956     22.071
REMARK  Name = ZINC00607911
REMARK  9 active torsions:
REMARK  status: ('A' for Active; 'I' for Inactive)
REMARK    1  A    between atoms: C1_1  and  N1_2
REMARK    2  A    between atoms: C6_7  and  O4_26
REMARK    3  A    between atoms: C7_8  and  O3_24
REMARK    4  A    between atoms: C15_17  and  O2_22
REMARK    5  A    between atoms: C16_18  and  O1_20
REMARK    6  A    between atoms: O1_20  and  C18_21
REMARK    7  A    between atoms: O2_22  and  C19_23
REMARK    8  A    between atoms: O3_24  and  C20_25
REMARK    9  A    between atoms: O4_26  and  C21_27
REMARK                            x       y       z     vdW  Elec       q    Type
REMARK                         _______ _______ _______ _____ _____    ______ ____
ROOT
ATOM      1  C   UNL     1      52.038  31.649  -0.302  0.00  0.00    +0.329 C 
ATOM      2  N   UNL     1      52.160  32.296   1.012  0.00  0.00    -0.382 N 
ATOM      3  H   UNL     1      52.265  33.292   0.887  0.00  0.00    +0.426 HD
ATOM      4  C   UNL     1      50.957  32.027   1.799  0.00  0.00    +0.268 C 
ATOM      5  C   UNL     1      50.962  32.836   3.087  0.00  0.00    +0.126 C 
ATOM      6  C   UNL     1      52.330  32.911   3.703  0.00  0.00    -0.040 A 
ATOM      7  C   UNL     1      52.453  33.494   4.958  0.00  0.00    -0.052 A 
ATOM      8  C   UNL     1      53.681  33.570   5.589  0.00  0.00    +0.148 A 
ATOM     11  C   UNL     1      54.811  33.061   4.958  0.00  0.00    +0.081 A 
ATOM     14  C   UNL     1      54.695  32.495   3.691  0.00  0.00    +0.024 A 
ATOM     15  C   UNL     1      55.888  31.948   3.002  0.00  0.00    -0.060 A 
ATOM     16  C   UNL     1      57.052  31.669   3.712  0.00  0.00    +0.024 A 
ATOM     17  C   UNL     1      58.149  31.143   3.052  0.00  0.00    +0.108 A 
ATOM     20  C   UNL     1      58.084  30.893   1.684  0.00  0.00    +0.124 A 
ATOM     23  C   UNL     1      56.924  31.178   0.978  0.00  0.00    -0.024 A 
ATOM     24  C   UNL     1      55.832  31.712   1.630  0.00  0.00    -0.075 A 
ATOM     25  C   UNL     1      54.578  32.046   0.868  0.00  0.00    +0.113 C 
ATOM     26  C   UNL     1      53.448  32.413   3.066  0.00  0.00    -0.157 A 
ATOM     27  C   UNL     1      53.337  31.763   1.712  0.00  0.00    +0.244 C 
ENDROOT
BRANCH   8   9
ATOM      9  O   UNL     1      53.785  34.140   6.818  0.00  0.00    -0.296 OA
ATOM     10  C   UNL     1      52.798  35.114   7.166  0.00  0.00    +0.256 C 
ENDBRANCH   8   9
BRANCH  11  12
ATOM     12  O   UNL     1      56.023  33.115   5.575  0.00  0.00    -0.317 OA
ATOM     13  C   UNL     1      56.666  34.389   5.630  0.00  0.00    +0.237 C 
ENDBRANCH  11  12
BRANCH  17  18
ATOM     18  O   UNL     1      59.290  30.870   3.740  0.00  0.00    -0.299 OA
ATOM     19  C   UNL     1      59.338  29.633   4.453  0.00  0.00    +0.248 C 
ENDBRANCH  17  18
BRANCH  20  21
ATOM     21  O   UNL     1      59.158  30.367   1.039  0.00  0.00    -0.297 OA
ATOM     22  C   UNL     1      59.107  28.975   0.722  0.00  0.00    +0.246 C 
ENDBRANCH  20  21
TORSDOF 4
ENDMDL
