MODEL 1
REMARK VINA RESULT:      -6.3      0.000      0.000
REMARK  Name = ZINC14825190
REMARK  7 active torsions:
REMARK  status: ('A' for Active; 'I' for Inactive)
REMARK    1  A    between atoms: C1_1  and  C2_2
REMARK    2  A    between atoms: C2_2  and  C25_31
REMARK    3  A    between atoms: C7_7  and  C11_13
REMARK    4  A    between atoms: C8_8  and  O2_12
REMARK    5  A    between atoms: C17_20  and  O5_24
REMARK    6  A    between atoms: C22_27  and  C23_29
REMARK    7  A    between atoms: C22_27  and  C24_30
REMARK                            x       y       z     vdW  Elec       q    Type
REMARK                         _______ _______ _______ _____ _____    ______ ____
ROOT
ATOM      9  C   UNL     1      48.282  16.991  18.500  0.00  0.00    -0.224 A 
ATOM     10  C   UNL     1      49.634  17.071  18.429  0.00  0.00    +0.318 A 
ATOM     11  O   UNL     1      50.390  16.212  17.749  0.00  0.00    -0.206 OA
ATOM     12  C   UNL     1      49.863  15.178  17.069  0.00  0.00    +0.194 A 
ATOM     13  C   UNL     1      50.702  14.308  16.378  0.00  0.00    -0.027 A 
ATOM     14  C   UNL     1      50.175  13.242  15.677  0.00  0.00    +0.212 A 
ATOM     15  C   UNL     1      48.785  13.025  15.651  0.00  0.00    -0.191 A 
ATOM     16  C   UNL     1      48.265  11.875  14.884  0.00  0.00    +0.057 C 
ATOM     17  C   UNL     1      49.122  10.915  14.537  0.00  0.00    -0.049 C 
ATOM     18  C   UNL     1      50.570  11.018  14.940  0.00  0.00    +0.146 C 
ATOM     19  C   UNL     1      50.757  10.376  16.316  0.00  0.00    +0.039 C 
ATOM     20  C   UNL     1      51.432  10.277  13.916  0.00  0.00    +0.088 C 
ATOM     21  C   UNL     1      47.931  13.883  16.336  0.00  0.00    +0.246 A 
ATOM     24  O   UNL     1      50.979  12.384  14.998  0.00  0.00    -0.295 OA
ATOM     25  C   UNL     1      48.474  14.961  17.047  0.00  0.00    -0.276 A 
ATOM     26  C   UNL     1      47.605  15.892  17.787  0.00  0.00    +0.432 A 
ATOM     27  O   UNL     1      46.394  15.760  17.810  0.00  0.00    -0.428 OA
ENDROOT
BRANCH   9   8
ATOM      1  C   UNL     1      46.865  22.613  21.520  0.00  0.00    +0.035 C 
ATOM      2  C   UNL     1      45.487  22.124  21.070  0.00  0.00    +0.146 C 
ATOM      3  C   UNL     1      44.406  22.967  21.749  0.00  0.00    +0.082 C 
ATOM      4  C   UNL     1      45.371  22.277  19.576  0.00  0.00    -0.051 C 
ATOM      5  C   UNL     1      45.761  21.290  18.772  0.00  0.00    +0.042 C 
ATOM      6  C   UNL     1      46.292  20.056  19.393  0.00  0.00    -0.142 A 
ATOM      7  C   UNL     1      47.022  19.132  18.656  0.00  0.00    +0.093 A 
ATOM      8  C   UNL     1      47.503  17.985  19.278  0.00  0.00    -0.084 A 
ATOM     28  C   UNL     1      47.246  17.765  20.636  0.00  0.00    +0.173 A 
ATOM     31  C   UNL     1      46.521  18.691  21.369  0.00  0.00    -0.029 A 
ATOM     32  C   UNL     1      46.041  19.834  20.757  0.00  0.00    +0.158 A 
ATOM     33  O   UNL     1      45.325  20.757  21.449  0.00  0.00    -0.303 OA
BRANCH  28  29
ATOM     29  O   UNL     1      47.712  16.641  21.240  0.00  0.00    -0.483 OA
ATOM     30  H   UNL     1      47.036  16.141  21.717  0.00  0.00    +0.390 HD
ENDBRANCH  28  29
ENDBRANCH   9   8
BRANCH  21  22
ATOM     22  O   UNL     1      46.590  13.678  16.316  0.00  0.00    -0.469 OA
ATOM     23  H   UNL     1      46.253  13.370  15.464  0.00  0.00    +0.404 HD
ENDBRANCH  21  22
TORSDOF 3
ENDMDL
MODEL 2
REMARK VINA RESULT:      -6.3      1.107      2.239
REMARK  Name = ZINC14825190
REMARK  7 active torsions:
REMARK  status: ('A' for Active; 'I' for Inactive)
REMARK    1  A    between atoms: C1_1  and  C2_2
REMARK    2  A    between atoms: C2_2  and  C25_31
REMARK    3  A    between atoms: C7_7  and  C11_13
REMARK    4  A    between atoms: C8_8  and  O2_12
REMARK    5  A    between atoms: C17_20  and  O5_24
REMARK    6  A    between atoms: C22_27  and  C23_29
REMARK    7  A    between atoms: C22_27  and  C24_30
REMARK                            x       y       z     vdW  Elec       q    Type
REMARK                         _______ _______ _______ _____ _____    ______ ____
ROOT
ATOM      9  C   UNL     1      47.131  16.175  18.114  0.00  0.00    -0.224 A 
ATOM     10  C   UNL     1      46.235  15.365  17.500  0.00  0.00    +0.318 A 
ATOM     11  O   UNL     1      46.577  14.350  16.710  0.00  0.00    -0.206 OA
ATOM     12  C   UNL     1      47.862  14.044  16.453  0.00  0.00    +0.194 A 
ATOM     13  C   UNL     1      48.162  12.973  15.616  0.00  0.00    -0.027 A 
ATOM     14  C   UNL     1      49.476  12.649  15.343  0.00  0.00    +0.212 A 
ATOM     15  C   UNL     1      50.525  13.396  15.910  0.00  0.00    -0.191 A 
ATOM     16  C   UNL     1      51.916  13.011  15.593  0.00  0.00    +0.057 C 
ATOM     17  C   UNL     1      52.121  12.212  14.547  0.00  0.00    -0.049 C 
ATOM     18  C   UNL     1      50.954  11.741  13.719  0.00  0.00    +0.146 C 
ATOM     19  C   UNL     1      50.684  12.755  12.606  0.00  0.00    +0.039 C 
ATOM     20  C   UNL     1      51.293  10.385  13.096  0.00  0.00    +0.088 C 
ATOM     21  C   UNL     1      50.245  14.471  16.747  0.00  0.00    +0.246 A 
ATOM     24  O   UNL     1      49.786  11.608  14.529  0.00  0.00    -0.295 OA
ATOM     25  C   UNL     1      48.909  14.794  17.018  0.00  0.00    -0.276 A 
ATOM     26  C   UNL     1      48.568  15.924  17.898  0.00  0.00    +0.432 A 
ATOM     27  O   UNL     1      49.427  16.615  18.418  0.00  0.00    -0.428 OA
ENDROOT
BRANCH   9   8
ATOM      1  C   UNL     1      47.283  21.909  21.249  0.00  0.00    +0.035 C 
ATOM      2  C   UNL     1      45.787  21.713  20.994  0.00  0.00    +0.146 C 
ATOM      3  C   UNL     1      44.997  22.741  21.806  0.00  0.00    +0.082 C 
ATOM      4  C   UNL     1      45.504  21.913  19.528  0.00  0.00    -0.051 C 
ATOM      5  C   UNL     1      45.578  20.883  18.688  0.00  0.00    +0.042 C 
ATOM      6  C   UNL     1      45.931  19.558  19.241  0.00  0.00    -0.142 A 
ATOM      7  C   UNL     1      46.356  18.521  18.420  0.00  0.00    +0.093 A 
ATOM      8  C   UNL     1      46.678  17.289  18.981  0.00  0.00    -0.084 A 
ATOM     28  C   UNL     1      46.567  17.100  20.364  0.00  0.00    +0.173 A 
ATOM     31  C   UNL     1      46.147  18.138  21.180  0.00  0.00    -0.029 A 
ATOM     32  C   UNL     1      45.827  19.364  20.629  0.00  0.00    +0.158 A 
ATOM     33  O   UNL     1      45.409  20.398  21.403  0.00  0.00    -0.303 OA
BRANCH  28  29
ATOM     29  O   UNL     1      46.876  15.895  20.909  0.00  0.00    -0.483 OA
ATOM     30  H   UNL     1      47.776  15.840  21.258  0.00  0.00    +0.390 HD
ENDBRANCH  28  29
ENDBRANCH   9   8
BRANCH  21  22
ATOM     22  O   UNL     1      51.252  15.195  17.296  0.00  0.00    -0.469 OA
ATOM     23  H   UNL     1      51.527  14.886  18.170  0.00  0.00    +0.404 HD
ENDBRANCH  21  22
TORSDOF 3
ENDMDL
MODEL 3
REMARK VINA RESULT:      -6.2      4.464      8.968
REMARK  Name = ZINC14825190
REMARK  7 active torsions:
REMARK  status: ('A' for Active; 'I' for Inactive)
REMARK    1  A    between atoms: C1_1  and  C2_2
REMARK    2  A    between atoms: C2_2  and  C25_31
REMARK    3  A    between atoms: C7_7  and  C11_13
REMARK    4  A    between atoms: C8_8  and  O2_12
REMARK    5  A    between atoms: C17_20  and  O5_24
REMARK    6  A    between atoms: C22_27  and  C23_29
REMARK    7  A    between atoms: C22_27  and  C24_30
REMARK                            x       y       z     vdW  Elec       q    Type
REMARK                         _______ _______ _______ _____ _____    ______ ____
ROOT
ATOM      9  C   UNL     1      48.017  19.462  19.963  0.00  0.00    -0.224 A 
ATOM     10  C   UNL     1      47.881  20.530  19.139  0.00  0.00    +0.318 A 
ATOM     11  O   UNL     1      46.710  21.086  18.839  0.00  0.00    -0.206 OA
ATOM     12  C   UNL     1      45.549  20.623  19.338  0.00  0.00    +0.194 A 
ATOM     13  C   UNL     1      44.352  21.242  18.987  0.00  0.00    -0.027 A 
ATOM     14  C   UNL     1      43.154  20.778  19.490  0.00  0.00    +0.212 A 
ATOM     15  C   UNL     1      43.130  19.675  20.364  0.00  0.00    -0.191 A 
ATOM     16  C   UNL     1      41.825  19.214  20.882  0.00  0.00    +0.057 C 
ATOM     17  C   UNL     1      40.723  19.627  20.257  0.00  0.00    -0.049 C 
ATOM     18  C   UNL     1      40.832  20.524  19.053  0.00  0.00    +0.146 C 
ATOM     19  C   UNL     1      40.953  19.665  17.793  0.00  0.00    +0.039 C 
ATOM     20  C   UNL     1      39.575  21.391  18.954  0.00  0.00    +0.088 C 
ATOM     21  C   UNL     1      44.315  19.043  20.725  0.00  0.00    +0.246 A 
ATOM     24  O   UNL     1      41.978  21.369  19.158  0.00  0.00    -0.295 OA
ATOM     25  C   UNL     1      45.527  19.520  20.209  0.00  0.00    -0.276 A 
ATOM     26  C   UNL     1      46.804  18.879  20.564  0.00  0.00    +0.432 A 
ATOM     27  O   UNL     1      46.854  17.918  21.312  0.00  0.00    -0.428 OA
ENDROOT
BRANCH   9   8
ATOM      1  C   UNL     1      52.615  14.942  21.046  0.00  0.00    +0.035 C 
ATOM      2  C   UNL     1      53.414  16.079  20.405  0.00  0.00    +0.146 C 
ATOM      3  C   UNL     1      54.909  15.796  20.565  0.00  0.00    +0.082 C 
ATOM      4  C   UNL     1      53.078  16.157  18.939  0.00  0.00    -0.051 C 
ATOM      5  C   UNL     1      52.060  16.910  18.528  0.00  0.00    +0.042 C 
ATOM      6  C   UNL     1      51.296  17.663  19.547  0.00  0.00    -0.142 A 
ATOM      7  C   UNL     1      50.042  18.191  19.266  0.00  0.00    +0.093 A 
ATOM      8  C   UNL     1      49.356  18.893  20.252  0.00  0.00    -0.084 A 
ATOM     28  C   UNL     1      49.933  19.067  21.516  0.00  0.00    +0.173 A 
ATOM     31  C   UNL     1      51.182  18.535  21.794  0.00  0.00    -0.029 A 
ATOM     32  C   UNL     1      51.867  17.836  20.818  0.00  0.00    +0.158 A 
ATOM     33  O   UNL     1      53.094  17.307  21.060  0.00  0.00    -0.303 OA
BRANCH  28  29
ATOM     29  O   UNL     1      49.264  19.757  22.476  0.00  0.00    -0.483 OA
ATOM     30  H   UNL     1      48.333  19.917  22.269  0.00  0.00    +0.390 HD
ENDBRANCH  28  29
ENDBRANCH   9   8
BRANCH  21  22
ATOM     22  O   UNL     1      44.298  17.979  21.567  0.00  0.00    -0.469 OA
ATOM     23  H   UNL     1      44.135  18.212  22.491  0.00  0.00    +0.404 HD
ENDBRANCH  21  22
TORSDOF 3
ENDMDL
MODEL 4
REMARK VINA RESULT:      -6.1      3.120     10.060
REMARK  Name = ZINC14825190
REMARK  7 active torsions:
REMARK  status: ('A' for Active; 'I' for Inactive)
REMARK    1  A    between atoms: C1_1  and  C2_2
REMARK    2  A    between atoms: C2_2  and  C25_31
REMARK    3  A    between atoms: C7_7  and  C11_13
REMARK    4  A    between atoms: C8_8  and  O2_12
REMARK    5  A    between atoms: C17_20  and  O5_24
REMARK    6  A    between atoms: C22_27  and  C23_29
REMARK    7  A    between atoms: C22_27  and  C24_30
REMARK                            x       y       z     vdW  Elec       q    Type
REMARK                         _______ _______ _______ _____ _____    ______ ____
ROOT
ATOM      9  C   UNL     1      48.804  12.807  15.176  0.00  0.00    -0.224 A 
ATOM     10  C   UNL     1      47.494  12.466  15.242  0.00  0.00    +0.318 A 
ATOM     11  O   UNL     1      46.656  12.930  16.167  0.00  0.00    -0.206 OA
ATOM     12  C   UNL     1      47.052  13.786  17.126  0.00  0.00    +0.194 A 
ATOM     13  C   UNL     1      46.134  14.236  18.071  0.00  0.00    -0.027 A 
ATOM     14  C   UNL     1      46.526  15.114  19.061  0.00  0.00    +0.212 A 
ATOM     15  C   UNL     1      47.857  15.566  19.125  0.00  0.00    -0.191 A 
ATOM     16  C   UNL     1      48.231  16.508  20.199  0.00  0.00    +0.057 C 
ATOM     17  C   UNL     1      47.409  16.629  21.240  0.00  0.00    -0.049 C 
ATOM     18  C   UNL     1      46.149  15.807  21.302  0.00  0.00    +0.146 C 
ATOM     19  C   UNL     1      46.451  14.471  21.984  0.00  0.00    +0.039 C 
ATOM     20  C   UNL     1      45.095  16.561  22.116  0.00  0.00    +0.088 C 
ATOM     21  C   UNL     1      48.790  15.127  18.191  0.00  0.00    +0.246 A 
ATOM     24  O   UNL     1      45.643  15.562  19.990  0.00  0.00    -0.295 OA
ATOM     25  C   UNL     1      48.384  14.234  17.190  0.00  0.00    -0.276 A 
ATOM     26  C   UNL     1      49.339  13.743  16.182  0.00  0.00    +0.432 A 
ATOM     27  O   UNL     1      50.507  14.090  16.181  0.00  0.00    -0.428 OA
ENDROOT
BRANCH   9   8
ATOM      1  C   UNL     1      50.531  10.277   9.401  0.00  0.00    +0.035 C 
ATOM      2  C   UNL     1      51.790  11.041   9.816  0.00  0.00    +0.146 C 
ATOM      3  C   UNL     1      52.944  10.651   8.890  0.00  0.00    +0.082 C 
ATOM      4  C   UNL     1      51.534  12.520   9.695  0.00  0.00    -0.051 C 
ATOM      5  C   UNL     1      51.028  13.196  10.724  0.00  0.00    +0.042 C 
ATOM      6  C   UNL     1      50.744  12.453  11.972  0.00  0.00    -0.142 A 
ATOM      7  C   UNL     1      49.921  12.982  12.958  0.00  0.00    +0.093 A 
ATOM      8  C   UNL     1      49.680  12.251  14.116  0.00  0.00    -0.084 A 
ATOM     28  C   UNL     1      50.270  10.992  14.284  0.00  0.00    +0.173 A 
ATOM     31  C   UNL     1      51.086  10.465  13.296  0.00  0.00    -0.029 A 
ATOM     32  C   UNL     1      51.329  11.187  12.143  0.00  0.00    +0.158 A 
ATOM     33  O   UNL     1      52.127  10.698  11.160  0.00  0.00    -0.303 OA
BRANCH  28  29
ATOM     29  O   UNL     1      50.037  10.282  15.419  0.00  0.00    -0.483 OA
ATOM     30  H   UNL     1      49.241   9.735  15.385  0.00  0.00    +0.390 HD
ENDBRANCH  28  29
ENDBRANCH   9   8
BRANCH  21  22
ATOM     22  O   UNL     1      50.075  15.557  18.247  0.00  0.00    -0.469 OA
ATOM     23  H   UNL     1      50.601  15.132  18.938  0.00  0.00    +0.404 HD
ENDBRANCH  21  22
TORSDOF 3
ENDMDL
MODEL 5
REMARK VINA RESULT:      -6.1      1.809      2.245
REMARK  Name = ZINC14825190
REMARK  7 active torsions:
REMARK  status: ('A' for Active; 'I' for Inactive)
REMARK    1  A    between atoms: C1_1  and  C2_2
REMARK    2  A    between atoms: C2_2  and  C25_31
REMARK    3  A    between atoms: C7_7  and  C11_13
REMARK    4  A    between atoms: C8_8  and  O2_12
REMARK    5  A    between atoms: C17_20  and  O5_24
REMARK    6  A    between atoms: C22_27  and  C23_29
REMARK    7  A    between atoms: C22_27  and  C24_30
REMARK                            x       y       z     vdW  Elec       q    Type
REMARK                         _______ _______ _______ _____ _____    ______ ____
ROOT
ATOM      9  C   UNL     1      48.599  17.430  18.017  0.00  0.00    -0.224 A 
ATOM     10  C   UNL     1      49.671  17.755  17.252  0.00  0.00    +0.318 A 
ATOM     11  O   UNL     1      50.534  16.863  16.773  0.00  0.00    -0.206 OA
ATOM     12  C   UNL     1      50.410  15.546  17.016  0.00  0.00    +0.194 A 
ATOM     13  C   UNL     1      51.346  14.657  16.492  0.00  0.00    -0.027 A 
ATOM     14  C   UNL     1      51.232  13.303  16.734  0.00  0.00    +0.212 A 
ATOM     15  C   UNL     1      50.169  12.806  17.511  0.00  0.00    -0.191 A 
ATOM     16  C   UNL     1      50.084  11.349  17.740  0.00  0.00    +0.057 C 
ATOM     17  C   UNL     1      51.169  10.614  17.501  0.00  0.00    -0.049 C 
ATOM     18  C   UNL     1      52.436  11.275  17.025  0.00  0.00    +0.146 C 
ATOM     19  C   UNL     1      53.267  11.701  18.236  0.00  0.00    +0.039 C 
ATOM     20  C   UNL     1      53.239  10.279  16.186  0.00  0.00    +0.088 C 
ATOM     21  C   UNL     1      49.225  13.678  18.044  0.00  0.00    +0.246 A 
ATOM     24  O   UNL     1      52.135  12.423  16.232  0.00  0.00    -0.295 OA
ATOM     25  C   UNL     1      49.349  15.051  17.794  0.00  0.00    -0.276 A 
ATOM     26  C   UNL     1      48.373  16.009  18.341  0.00  0.00    +0.432 A 
ATOM     27  O   UNL     1      47.431  15.647  19.024  0.00  0.00    -0.428 OA
ENDROOT
BRANCH   9   8
ATOM      1  C   UNL     1      44.835  20.739  22.214  0.00  0.00    +0.035 C 
ATOM      2  C   UNL     1      45.307  21.837  21.258  0.00  0.00    +0.146 C 
ATOM      3  C   UNL     1      44.494  23.108  21.510  0.00  0.00    +0.082 C 
ATOM      4  C   UNL     1      46.764  22.121  21.510  0.00  0.00    -0.051 C 
ATOM      5  C   UNL     1      47.700  21.432  20.860  0.00  0.00    +0.042 C 
ATOM      6  C   UNL     1      47.260  20.405  19.891  0.00  0.00    -0.142 A 
ATOM      7  C   UNL     1      48.131  19.426  19.429  0.00  0.00    +0.093 A 
ATOM      8  C   UNL     1      47.678  18.478  18.517  0.00  0.00    -0.084 A 
ATOM     28  C   UNL     1      46.352  18.519  18.067  0.00  0.00    +0.173 A 
ATOM     31  C   UNL     1      45.485  19.494  18.534  0.00  0.00    -0.029 A 
ATOM     32  C   UNL     1      45.930  20.437  19.440  0.00  0.00    +0.158 A 
ATOM     33  O   UNL     1      45.105  21.407  19.911  0.00  0.00    -0.303 OA
BRANCH  28  29
ATOM     29  O   UNL     1      45.913  17.596  17.173  0.00  0.00    -0.483 OA
ATOM     30  H   UNL     1      44.989  17.340  17.292  0.00  0.00    +0.390 HD
ENDBRANCH  28  29
ENDBRANCH   9   8
BRANCH  21  22
ATOM     22  O   UNL     1      48.198  13.205  18.793  0.00  0.00    -0.469 OA
ATOM     23  H   UNL     1      47.523  12.738  18.283  0.00  0.00    +0.404 HD
ENDBRANCH  21  22
TORSDOF 3
ENDMDL
MODEL 6
REMARK VINA RESULT:      -6.1      1.406      9.474
REMARK  Name = ZINC14825190
REMARK  7 active torsions:
REMARK  status: ('A' for Active; 'I' for Inactive)
REMARK    1  A    between atoms: C1_1  and  C2_2
REMARK    2  A    between atoms: C2_2  and  C25_31
REMARK    3  A    between atoms: C7_7  and  C11_13
REMARK    4  A    between atoms: C8_8  and  O2_12
REMARK    5  A    between atoms: C17_20  and  O5_24
REMARK    6  A    between atoms: C22_27  and  C23_29
REMARK    7  A    between atoms: C22_27  and  C24_30
REMARK                            x       y       z     vdW  Elec       q    Type
REMARK                         _______ _______ _______ _____ _____    ______ ____
ROOT
ATOM      9  C   UNL     1      47.783  15.318  18.139  0.00  0.00    -0.224 A 
ATOM     10  C   UNL     1      48.002  15.160  19.468  0.00  0.00    +0.318 A 
ATOM     11  O   UNL     1      47.598  16.029  20.391  0.00  0.00    -0.206 OA
ATOM     12  C   UNL     1      46.932  17.153  20.072  0.00  0.00    +0.194 A 
ATOM     13  C   UNL     1      46.536  18.030  21.079  0.00  0.00    -0.027 A 
ATOM     14  C   UNL     1      45.853  19.187  20.767  0.00  0.00    +0.212 A 
ATOM     15  C   UNL     1      45.546  19.493  19.428  0.00  0.00    -0.191 A 
ATOM     16  C   UNL     1      44.810  20.741  19.140  0.00  0.00    +0.057 C 
ATOM     17  C   UNL     1      44.762  21.673  20.091  0.00  0.00    -0.049 C 
ATOM     18  C   UNL     1      45.458  21.442  21.407  0.00  0.00    +0.146 C 
ATOM     19  C   UNL     1      46.901  21.939  21.307  0.00  0.00    +0.039 C 
ATOM     20  C   UNL     1      44.731  22.220  22.505  0.00  0.00    +0.088 C 
ATOM     21  C   UNL     1      45.934  18.631  18.408  0.00  0.00    +0.246 A 
ATOM     24  O   UNL     1      45.461  20.053  21.736  0.00  0.00    -0.295 OA
ATOM     25  C   UNL     1      46.629  17.458  18.733  0.00  0.00    -0.276 A 
ATOM     26  C   UNL     1      47.059  16.519  17.684  0.00  0.00    +0.432 A 
ATOM     27  O   UNL     1      46.830  16.724  16.505  0.00  0.00    -0.428 OA
ENDROOT
BRANCH   9   8
ATOM      1  C   UNL     1      50.413  12.892  12.667  0.00  0.00    +0.035 C 
ATOM      2  C   UNL     1      50.770  11.827  13.706  0.00  0.00    +0.146 C 
ATOM      3  C   UNL     1      51.297  10.581  12.989  0.00  0.00    +0.082 C 
ATOM      4  C   UNL     1      51.840  12.364  14.619  0.00  0.00    -0.051 C 
ATOM      5  C   UNL     1      51.503  13.035  15.719  0.00  0.00    +0.042 C 
ATOM      6  C   UNL     1      50.064  13.217  16.009  0.00  0.00    -0.142 A 
ATOM      7  C   UNL     1      49.625  14.168  16.922  0.00  0.00    +0.093 A 
ATOM      8  C   UNL     1      48.263  14.307  17.166  0.00  0.00    -0.084 A 
ATOM     28  C   UNL     1      47.345  13.488  16.496  0.00  0.00    +0.173 A 
ATOM     31  C   UNL     1      47.786  12.544  15.583  0.00  0.00    -0.029 A 
ATOM     32  C   UNL     1      49.139  12.402  15.336  0.00  0.00    +0.158 A 
ATOM     33  O   UNL     1      49.601  11.483  14.450  0.00  0.00    -0.303 OA
BRANCH  28  29
ATOM     29  O   UNL     1      46.016  13.622  16.740  0.00  0.00    -0.483 OA
ATOM     30  H   UNL     1      45.716  13.180  17.546  0.00  0.00    +0.390 HD
ENDBRANCH  28  29
ENDBRANCH   9   8
BRANCH  21  22
ATOM     22  O   UNL     1      45.642  18.920  17.115  0.00  0.00    -0.469 OA
ATOM     23  H   UNL     1      46.304  19.474  16.678  0.00  0.00    +0.404 HD
ENDBRANCH  21  22
TORSDOF 3
ENDMDL
MODEL 7
REMARK VINA RESULT:      -6.0      3.566      8.889
REMARK  Name = ZINC14825190
REMARK  7 active torsions:
REMARK  status: ('A' for Active; 'I' for Inactive)
REMARK    1  A    between atoms: C1_1  and  C2_2
REMARK    2  A    between atoms: C2_2  and  C25_31
REMARK    3  A    between atoms: C7_7  and  C11_13
REMARK    4  A    between atoms: C8_8  and  O2_12
REMARK    5  A    between atoms: C17_20  and  O5_24
REMARK    6  A    between atoms: C22_27  and  C23_29
REMARK    7  A    between atoms: C22_27  and  C24_30
REMARK                            x       y       z     vdW  Elec       q    Type
REMARK                         _______ _______ _______ _____ _____    ______ ____
ROOT
ATOM      9  C   UNL     1      47.667  17.922  19.582  0.00  0.00    -0.224 A 
ATOM     10  C   UNL     1      47.704  18.982  18.738  0.00  0.00    +0.318 A 
ATOM     11  O   UNL     1      46.656  19.763  18.486  0.00  0.00    -0.206 OA
ATOM     12  C   UNL     1      45.456  19.555  19.058  0.00  0.00    +0.194 A 
ATOM     13  C   UNL     1      44.392  20.401  18.755  0.00  0.00    -0.027 A 
ATOM     14  C   UNL     1      43.155  20.200  19.334  0.00  0.00    +0.212 A 
ATOM     15  C   UNL     1      42.957  19.139  20.237  0.00  0.00    -0.191 A 
ATOM     16  C   UNL     1      41.617  18.964  20.835  0.00  0.00    +0.057 C 
ATOM     17  C   UNL     1      40.589  19.584  20.259  0.00  0.00    -0.049 C 
ATOM     18  C   UNL     1      40.809  20.422  19.027  0.00  0.00    +0.146 C 
ATOM     19  C   UNL     1      40.680  19.537  17.786  0.00  0.00    +0.039 C 
ATOM     20  C   UNL     1      39.752  21.527  18.972  0.00  0.00    +0.088 C 
ATOM     21  C   UNL     1      44.006  18.283  20.551  0.00  0.00    +0.246 A 
ATOM     24  O   UNL     1      42.108  21.015  19.049  0.00  0.00    -0.295 OA
ATOM     25  C   UNL     1      45.259  18.493  19.958  0.00  0.00    -0.276 A 
ATOM     26  C   UNL     1      46.396  17.609  20.262  0.00  0.00    +0.432 A 
ATOM     27  O   UNL     1      46.293  16.670  21.032  0.00  0.00    -0.428 OA
ENDROOT
BRANCH   9   8
ATOM      1  C   UNL     1      53.967  16.179  19.505  0.00  0.00    +0.035 C 
ATOM      2  C   UNL     1      53.450  15.492  20.772  0.00  0.00    +0.146 C 
ATOM      3  C   UNL     1      54.504  14.505  21.276  0.00  0.00    +0.082 C 
ATOM      4  C   UNL     1      53.197  16.532  21.831  0.00  0.00    -0.051 C 
ATOM      5  C   UNL     1      52.009  17.128  21.911  0.00  0.00    +0.042 C 
ATOM      6  C   UNL     1      50.964  16.726  20.945  0.00  0.00    -0.142 A 
ATOM      7  C   UNL     1      49.836  17.509  20.733  0.00  0.00    +0.093 A 
ATOM      8  C   UNL     1      48.876  17.095  19.815  0.00  0.00    -0.084 A 
ATOM     28  C   UNL     1      49.048  15.894  19.116  0.00  0.00    +0.173 A 
ATOM     31  C   UNL     1      50.177  15.119  19.326  0.00  0.00    -0.029 A 
ATOM     32  C   UNL     1      51.135  15.525  20.236  0.00  0.00    +0.158 A 
ATOM     33  O   UNL     1      52.248  14.784  20.466  0.00  0.00    -0.303 OA
BRANCH  28  29
ATOM     29  O   UNL     1      48.107  15.490  18.224  0.00  0.00    -0.483 OA
ATOM     30  H   UNL     1      47.254  15.934  18.322  0.00  0.00    +0.390 HD
ENDBRANCH  28  29
ENDBRANCH   9   8
BRANCH  21  22
ATOM     22  O   UNL     1      43.821  17.258  21.420  0.00  0.00    -0.469 OA
ATOM     23  H   UNL     1      44.023  17.482  22.339  0.00  0.00    +0.404 HD
ENDBRANCH  21  22
TORSDOF 3
ENDMDL
MODEL 8
REMARK VINA RESULT:      -6.0      1.718      9.551
REMARK  Name = ZINC14825190
REMARK  7 active torsions:
REMARK  status: ('A' for Active; 'I' for Inactive)
REMARK    1  A    between atoms: C1_1  and  C2_2
REMARK    2  A    between atoms: C2_2  and  C25_31
REMARK    3  A    between atoms: C7_7  and  C11_13
REMARK    4  A    between atoms: C8_8  and  O2_12
REMARK    5  A    between atoms: C17_20  and  O5_24
REMARK    6  A    between atoms: C22_27  and  C23_29
REMARK    7  A    between atoms: C22_27  and  C24_30
REMARK                            x       y       z     vdW  Elec       q    Type
REMARK                         _______ _______ _______ _____ _____    ______ ____
ROOT
ATOM      9  C   UNL     1      48.382  15.869  17.604  0.00  0.00    -0.224 A 
ATOM     10  C   UNL     1      47.133  15.830  17.077  0.00  0.00    +0.318 A 
ATOM     11  O   UNL     1      46.234  16.797  17.237  0.00  0.00    -0.206 OA
ATOM     12  C   UNL     1      46.497  17.908  17.950  0.00  0.00    +0.194 A 
ATOM     13  C   UNL     1      45.516  18.887  18.088  0.00  0.00    -0.027 A 
ATOM     14  C   UNL     1      45.771  20.030  18.817  0.00  0.00    +0.212 A 
ATOM     15  C   UNL     1      47.026  20.221  19.426  0.00  0.00    -0.191 A 
ATOM     16  C   UNL     1      47.256  21.462  20.192  0.00  0.00    +0.057 C 
ATOM     17  C   UNL     1      46.194  22.179  20.558  0.00  0.00    -0.049 C 
ATOM     18  C   UNL     1      44.809  21.707  20.199  0.00  0.00    +0.146 C 
ATOM     19  C   UNL     1      44.288  20.788  21.305  0.00  0.00    +0.039 C 
ATOM     20  C   UNL     1      43.883  22.918  20.070  0.00  0.00    +0.088 C 
ATOM     21  C   UNL     1      48.018  19.254  19.300  0.00  0.00    +0.246 A 
ATOM     24  O   UNL     1      44.826  20.994  18.962  0.00  0.00    -0.295 OA
ATOM     25  C   UNL     1      47.750  18.095  18.559  0.00  0.00    -0.276 A 
ATOM     26  C   UNL     1      48.771  17.046  18.402  0.00  0.00    +0.432 A 
ATOM     27  O   UNL     1      49.877  17.144  18.906  0.00  0.00    -0.428 OA
ENDROOT
BRANCH   9   8
ATOM      1  C   UNL     1      50.902  10.433  14.988  0.00  0.00    +0.035 C 
ATOM      2  C   UNL     1      52.152  11.201  15.421  0.00  0.00    +0.146 C 
ATOM      3  C   UNL     1      53.368  10.277  15.332  0.00  0.00    +0.082 C 
ATOM      4  C   UNL     1      52.354  12.378  14.504  0.00  0.00    -0.051 C 
ATOM      5  C   UNL     1      51.784  13.548  14.784  0.00  0.00    +0.042 C 
ATOM      6  C   UNL     1      50.970  13.647  16.015  0.00  0.00    -0.142 A 
ATOM      7  C   UNL     1      50.080  14.696  16.211  0.00  0.00    +0.093 A 
ATOM      8  C   UNL     1      49.333  14.753  17.384  0.00  0.00    -0.084 A 
ATOM     28  C   UNL     1      49.485  13.759  18.359  0.00  0.00    +0.173 A 
ATOM     31  C   UNL     1      50.370  12.712  18.157  0.00  0.00    -0.029 A 
ATOM     32  C   UNL     1      51.114  12.650  16.994  0.00  0.00    +0.158 A 
ATOM     33  O   UNL     1      51.992  11.639  16.771  0.00  0.00    -0.303 OA
BRANCH  28  29
ATOM     29  O   UNL     1      48.759  13.820  19.505  0.00  0.00    -0.483 OA
ATOM     30  H   UNL     1      49.032  14.525  20.107  0.00  0.00    +0.390 HD
ENDBRANCH  28  29
ENDBRANCH   9   8
BRANCH  21  22
ATOM     22  O   UNL     1      49.229  19.431  19.885  0.00  0.00    -0.469 OA
ATOM     23  H   UNL     1      49.202  19.971  20.686  0.00  0.00    +0.404 HD
ENDBRANCH  21  22
TORSDOF 3
ENDMDL
MODEL 9
REMARK VINA RESULT:      -5.9      3.837      9.058
REMARK  Name = ZINC14825190
REMARK  7 active torsions:
REMARK  status: ('A' for Active; 'I' for Inactive)
REMARK    1  A    between atoms: C1_1  and  C2_2
REMARK    2  A    between atoms: C2_2  and  C25_31
REMARK    3  A    between atoms: C7_7  and  C11_13
REMARK    4  A    between atoms: C8_8  and  O2_12
REMARK    5  A    between atoms: C17_20  and  O5_24
REMARK    6  A    between atoms: C22_27  and  C23_29
REMARK    7  A    between atoms: C22_27  and  C24_30
REMARK                            x       y       z     vdW  Elec       q    Type
REMARK                         _______ _______ _______ _____ _____    ______ ____
ROOT
ATOM      9  C   UNL     1      49.285  17.712  18.839  0.00  0.00    -0.224 A 
ATOM     10  C   UNL     1      48.449  16.944  18.099  0.00  0.00    +0.318 A 
ATOM     11  O   UNL     1      47.179  17.257  17.856  0.00  0.00    -0.206 OA
ATOM     12  C   UNL     1      46.614  18.379  18.337  0.00  0.00    +0.194 A 
ATOM     13  C   UNL     1      45.278  18.655  18.054  0.00  0.00    -0.027 A 
ATOM     14  C   UNL     1      44.686  19.802  18.542  0.00  0.00    +0.212 A 
ATOM     15  C   UNL     1      45.425  20.705  19.328  0.00  0.00    -0.191 A 
ATOM     16  C   UNL     1      44.751  21.922  19.825  0.00  0.00    +0.057 C 
ATOM     17  C   UNL     1      43.419  21.954  19.802  0.00  0.00    -0.049 C 
ATOM     18  C   UNL     1      42.647  20.765  19.292  0.00  0.00    +0.146 C 
ATOM     19  C   UNL     1      42.379  19.803  20.451  0.00  0.00    +0.039 C 
ATOM     20  C   UNL     1      41.313  21.241  18.712  0.00  0.00    +0.088 C 
ATOM     21  C   UNL     1      46.759  20.447  19.622  0.00  0.00    +0.246 A 
ATOM     24  O   UNL     1      43.385  20.085  18.276  0.00  0.00    -0.295 OA
ATOM     25  C   UNL     1      47.353  19.279  19.124  0.00  0.00    -0.276 A 
ATOM     26  C   UNL     1      48.763  18.967  19.413  0.00  0.00    +0.432 A 
ATOM     27  O   UNL     1      49.459  19.703  20.090  0.00  0.00    -0.428 OA
ENDROOT
BRANCH   9   8
ATOM      1  C   UNL     1      54.879  16.658  22.053  0.00  0.00    +0.035 C 
ATOM      2  C   UNL     1      54.904  15.567  20.981  0.00  0.00    +0.146 C 
ATOM      3  C   UNL     1      56.295  14.931  20.941  0.00  0.00    +0.082 C 
ATOM      4  C   UNL     1      53.885  14.512  21.323  0.00  0.00    -0.051 C 
ATOM      5  C   UNL     1      52.632  14.629  20.889  0.00  0.00    +0.042 C 
ATOM      6  C   UNL     1      52.290  15.808  20.063  0.00  0.00    -0.142 A 
ATOM      7  C   UNL     1      50.970  16.186  19.854  0.00  0.00    +0.093 A 
ATOM      8  C   UNL     1      50.691  17.300  19.070  0.00  0.00    -0.084 A 
ATOM     28  C   UNL     1      51.738  18.029  18.492  0.00  0.00    +0.173 A 
ATOM     31  C   UNL     1      53.054  17.652  18.707  0.00  0.00    -0.029 A 
ATOM     32  C   UNL     1      53.337  16.545  19.486  0.00  0.00    +0.158 A 
ATOM     33  O   UNL     1      54.616  16.150  19.709  0.00  0.00    -0.303 OA
BRANCH  28  29
ATOM     29  O   UNL     1      51.463  19.114  17.723  0.00  0.00    -0.483 OA
ATOM     30  H   UNL     1      50.858  19.746  18.134  0.00  0.00    +0.390 HD
ENDBRANCH  28  29
ENDBRANCH   9   8
BRANCH  21  22
ATOM     22  O   UNL     1      47.477  21.314  20.379  0.00  0.00    -0.469 OA
ATOM     23  H   UNL     1      47.886  22.029  19.875  0.00  0.00    +0.404 HD
ENDBRANCH  21  22
TORSDOF 3
ENDMDL
