MODEL 1
REMARK VINA RESULT:      -7.0      0.000      0.000
REMARK  Name = ZINC03994271
REMARK  10 active torsions:
REMARK  status: ('A' for Active; 'I' for Inactive)
REMARK    1  A    between atoms: C1_1  and  C2_2
REMARK    2  A    between atoms: C5_6  and  C30_37
REMARK    3  A    between atoms: C8_9  and  C29_36
REMARK    4  A    between atoms: C13_15  and  C25_30
REMARK    5  A    between atoms: C17_20  and  C24_29
REMARK    6  A    between atoms: C20_23  and  O1_28
REMARK    7  A    between atoms: C21_25  and  C22_26
REMARK    8  A    between atoms: C21_25  and  C23_27
REMARK    9  A    between atoms: C27_33  and  C28_35
REMARK   10  A    between atoms: C30_37  and  O2_38
REMARK                            x       y       z     vdW  Elec       q    Type
REMARK                         _______ _______ _______ _____ _____    ______ ____
ROOT
ATOM      1  C   UNL     1      48.839  11.619  19.807  0.00  0.00    +0.007 C 
ATOM      2  C   UNL     1      47.658  11.753  18.745  0.00  0.00    +0.005 C 
ATOM      3  C   UNL     1      48.191  11.731  17.408  0.00  0.00    +0.000 C 
ATOM      4  C   UNL     1      49.063  12.988  17.014  0.00  0.00    +0.025 C 
ATOM      5  C   UNL     1      48.236  14.282  17.283  0.00  0.00    -0.062 C 
ATOM      9  C   UNL     1      49.210  15.500  17.255  0.00  0.00    +0.022 C 
ATOM     10  C   UNL     1      48.384  16.777  17.442  0.00  0.00    +0.019 C 
ATOM     11  C   UNL     1      47.668  16.841  18.737  0.00  0.00    +0.011 C 
ATOM     12  C   UNL     1      48.780  16.966  19.834  0.00  0.00    +0.010 C 
ATOM     13  C   UNL     1      46.997  15.489  19.094  0.00  0.00    -0.074 C 
ATOM     14  C   UNL     1      45.902  15.535  19.743  0.00  0.00    -0.071 C 
ATOM     15  C   UNL     1      45.070  16.690  20.103  0.00  0.00    +0.073 C 
ATOM     16  C   UNL     1      45.949  17.961  20.093  0.00  0.00    -0.026 C 
ATOM     17  C   UNL     1      45.176  19.274  20.448  0.00  0.00    -0.037 C 
ATOM     18  C   UNL     1      43.922  19.397  19.515  0.00  0.00    +0.022 C 
ATOM     19  C   UNL     1      44.674  19.089  21.959  0.00  0.00    +0.036 C 
ATOM     20  C   UNL     1      43.965  20.394  22.262  0.00  0.00    -0.052 C 
ATOM     21  C   UNL     1      44.911  21.633  22.282  0.00  0.00    +0.177 C 
ATOM     24  C   UNL     1      45.599  21.748  20.839  0.00  0.00    -0.034 C 
ATOM     25  C   UNL     1      44.593  22.399  19.907  0.00  0.00    +0.032 C 
ATOM     26  C   UNL     1      46.743  22.758  21.095  0.00  0.00    +0.019 C 
ATOM     27  C   UNL     1      46.093  20.476  20.339  0.00  0.00    +0.005 C 
ATOM     28  C   UNL     1      46.654  20.606  18.948  0.00  0.00    +0.035 C 
ATOM     29  C   UNL     1      47.562  19.361  18.734  0.00  0.00    +0.007 C 
ATOM     30  C   UNL     1      46.795  18.011  18.858  0.00  0.00    -0.025 C 
ATOM     31  C   UNL     1      45.838  17.952  17.633  0.00  0.00    +0.005 C 
ATOM     32  C   UNL     1      47.683  14.217  18.825  0.00  0.00    +0.050 C 
ATOM     33  C   UNL     1      46.902  12.944  19.092  0.00  0.00    -0.002 C 
ATOM     34  C   UNL     1      45.495  12.905  18.340  0.00  0.00    +0.008 C 
ENDROOT
BRANCH  21  22
ATOM     22  O   UNL     1      44.123  22.785  22.501  0.00  0.00    -0.550 OA
ATOM     23  H   UNL     1      43.171  22.627  22.443  0.00  0.00    +0.375 HD
ENDBRANCH  21  22
BRANCH   5   6
ATOM      6  C   UNL     1      47.215  14.457  16.305  0.00  0.00    +0.191 C 
BRANCH   6   7
ATOM      7  O   UNL     1      47.588  13.784  15.102  0.00  0.00    -0.571 OA
ATOM      8  H   UNL     1      46.919  13.825  14.404  0.00  0.00    +0.375 HD
ENDBRANCH   6   7
ENDBRANCH   5   6
TORSDOF 3
ENDMDL
MODEL 2
REMARK VINA RESULT:      -6.7      1.783      7.923
REMARK  Name = ZINC03994271
REMARK  10 active torsions:
REMARK  status: ('A' for Active; 'I' for Inactive)
REMARK    1  A    between atoms: C1_1  and  C2_2
REMARK    2  A    between atoms: C5_6  and  C30_37
REMARK    3  A    between atoms: C8_9  and  C29_36
REMARK    4  A    between atoms: C13_15  and  C25_30
REMARK    5  A    between atoms: C17_20  and  C24_29
REMARK    6  A    between atoms: C20_23  and  O1_28
REMARK    7  A    between atoms: C21_25  and  C22_26
REMARK    8  A    between atoms: C21_25  and  C23_27
REMARK    9  A    between atoms: C27_33  and  C28_35
REMARK   10  A    between atoms: C30_37  and  O2_38
REMARK                            x       y       z     vdW  Elec       q    Type
REMARK                         _______ _______ _______ _____ _____    ______ ____
ROOT
ATOM      1  C   UNL     1      42.603  19.712  20.095  0.00  0.00    +0.007 C 
ATOM      2  C   UNL     1      43.297  18.983  21.331  0.00  0.00    +0.005 C 
ATOM      3  C   UNL     1      44.232  19.875  21.968  0.00  0.00    +0.000 C 
ATOM      4  C   UNL     1      45.505  20.236  21.106  0.00  0.00    +0.025 C 
ATOM      5  C   UNL     1      46.193  18.916  20.642  0.00  0.00    -0.062 C 
ATOM      9  C   UNL     1      47.203  19.264  19.505  0.00  0.00    +0.022 C 
ATOM     10  C   UNL     1      47.933  17.979  19.105  0.00  0.00    +0.019 C 
ATOM     11  C   UNL     1      47.040  16.926  18.566  0.00  0.00    +0.011 C 
ATOM     12  C   UNL     1      46.505  17.479  17.200  0.00  0.00    +0.010 C 
ATOM     13  C   UNL     1      45.741  16.787  19.402  0.00  0.00    -0.074 C 
ATOM     14  C   UNL     1      45.231  15.625  19.498  0.00  0.00    -0.071 C 
ATOM     15  C   UNL     1      45.754  14.328  19.051  0.00  0.00    +0.073 C 
ATOM     16  C   UNL     1      46.781  14.567  17.921  0.00  0.00    -0.026 C 
ATOM     17  C   UNL     1      47.431  13.259  17.361  0.00  0.00    -0.037 C 
ATOM     18  C   UNL     1      48.024  12.432  18.554  0.00  0.00    +0.022 C 
ATOM     19  C   UNL     1      46.231  12.423  16.705  0.00  0.00    +0.036 C 
ATOM     20  C   UNL     1      46.916  11.189  16.152  0.00  0.00    -0.052 C 
ATOM     21  C   UNL     1      47.905  11.489  14.986  0.00  0.00    +0.177 C 
ATOM     24  C   UNL     1      49.026  12.491  15.541  0.00  0.00    -0.034 C 
ATOM     25  C   UNL     1      50.031  11.661  16.321  0.00  0.00    +0.032 C 
ATOM     26  C   UNL     1      49.710  12.978  14.241  0.00  0.00    +0.019 C 
ATOM     27  C   UNL     1      48.478  13.590  16.316  0.00  0.00    +0.005 C 
ATOM     28  C   UNL     1      49.562  14.461  16.892  0.00  0.00    +0.035 C 
ATOM     29  C   UNL     1      48.882  15.812  17.251  0.00  0.00    +0.007 C 
ATOM     30  C   UNL     1      47.731  15.665  18.291  0.00  0.00    -0.025 C 
ATOM     31  C   UNL     1      48.416  15.259  19.627  0.00  0.00    +0.005 C 
ATOM     32  C   UNL     1      45.055  17.978  19.925  0.00  0.00    +0.050 C 
ATOM     33  C   UNL     1      43.864  17.742  20.835  0.00  0.00    -0.002 C 
ATOM     34  C   UNL     1      44.201  16.793  22.072  0.00  0.00    +0.008 C 
ENDROOT
BRANCH  21  22
ATOM     22  O   UNL     1      48.526  10.277  14.612  0.00  0.00    -0.550 OA
ATOM     23  H   UNL     1      48.134   9.858  13.833  0.00  0.00    +0.375 HD
ENDBRANCH  21  22
BRANCH   5   6
ATOM      6  C   UNL     1      46.877  18.282  21.718  0.00  0.00    +0.191 C 
BRANCH   6   7
ATOM      7  O   UNL     1      47.684  19.242  22.402  0.00  0.00    -0.571 OA
ATOM      8  H   UNL     1      47.723  20.106  21.967  0.00  0.00    +0.375 HD
ENDBRANCH   6   7
ENDBRANCH   5   6
TORSDOF 3
ENDMDL
MODEL 3
REMARK VINA RESULT:      -6.6      3.059      5.353
REMARK  Name = ZINC03994271
REMARK  10 active torsions:
REMARK  status: ('A' for Active; 'I' for Inactive)
REMARK    1  A    between atoms: C1_1  and  C2_2
REMARK    2  A    between atoms: C5_6  and  C30_37
REMARK    3  A    between atoms: C8_9  and  C29_36
REMARK    4  A    between atoms: C13_15  and  C25_30
REMARK    5  A    between atoms: C17_20  and  C24_29
REMARK    6  A    between atoms: C20_23  and  O1_28
REMARK    7  A    between atoms: C21_25  and  C22_26
REMARK    8  A    between atoms: C21_25  and  C23_27
REMARK    9  A    between atoms: C27_33  and  C28_35
REMARK   10  A    between atoms: C30_37  and  O2_38
REMARK                            x       y       z     vdW  Elec       q    Type
REMARK                         _______ _______ _______ _____ _____    ______ ____
ROOT
ATOM      1  C   UNL     1      52.030  19.693  16.411  0.00  0.00    +0.007 C 
ATOM      2  C   UNL     1      52.140  19.900  17.987  0.00  0.00    +0.005 C 
ATOM      3  C   UNL     1      52.674  18.714  18.605  0.00  0.00    +0.000 C 
ATOM      4  C   UNL     1      51.728  17.450  18.555  0.00  0.00    +0.025 C 
ATOM      5  C   UNL     1      50.340  17.833  19.151  0.00  0.00    -0.062 C 
ATOM      9  C   UNL     1      49.316  16.723  18.761  0.00  0.00    +0.022 C 
ATOM     10  C   UNL     1      47.972  17.062  19.413  0.00  0.00    +0.019 C 
ATOM     11  C   UNL     1      47.393  18.347  18.954  0.00  0.00    +0.011 C 
ATOM     12  C   UNL     1      47.021  18.133  17.447  0.00  0.00    +0.010 C 
ATOM     13  C   UNL     1      48.461  19.468  18.879  0.00  0.00    -0.074 C 
ATOM     14  C   UNL     1      48.080  20.655  19.138  0.00  0.00    -0.071 C 
ATOM     15  C   UNL     1      46.790  21.139  19.643  0.00  0.00    +0.073 C 
ATOM     16  C   UNL     1      45.700  20.094  19.313  0.00  0.00    -0.026 C 
ATOM     17  C   UNL     1      44.270  20.483  19.814  0.00  0.00    -0.037 C 
ATOM     18  C   UNL     1      44.339  20.824  21.343  0.00  0.00    +0.022 C 
ATOM     19  C   UNL     1      43.873  21.811  19.010  0.00  0.00    +0.036 C 
ATOM     20  C   UNL     1      42.475  22.123  19.505  0.00  0.00    -0.052 C 
ATOM     21  C   UNL     1      41.413  21.056  19.103  0.00  0.00    +0.177 C 
ATOM     24  C   UNL     1      41.872  19.652  19.722  0.00  0.00    -0.034 C 
ATOM     25  C   UNL     1      41.475  19.649  21.187  0.00  0.00    +0.032 C 
ATOM     26  C   UNL     1      40.964  18.646  18.975  0.00  0.00    +0.019 C 
ATOM     27  C   UNL     1      43.283  19.371  19.519  0.00  0.00    +0.005 C 
ATOM     28  C   UNL     1      43.697  18.086  20.185  0.00  0.00    +0.035 C 
ATOM     29  C   UNL     1      45.029  17.660  19.506  0.00  0.00    +0.007 C 
ATOM     30  C   UNL     1      46.166  18.714  19.664  0.00  0.00    -0.025 C 
ATOM     31  C   UNL     1      46.536  18.715  21.174  0.00  0.00    +0.005 C 
ATOM     32  C   UNL     1      49.815  19.182  18.380  0.00  0.00    +0.050 C 
ATOM     33  C   UNL     1      50.829  20.308  18.460  0.00  0.00    -0.002 C 
ATOM     34  C   UNL     1      50.972  20.920  19.926  0.00  0.00    +0.008 C 
ENDROOT
BRANCH  21  22
ATOM     22  O   UNL     1      40.178  21.424  19.682  0.00  0.00    -0.550 OA
ATOM     23  H   UNL     1      40.157  21.348  20.646  0.00  0.00    +0.375 HD
ENDBRANCH  21  22
BRANCH   5   6
ATOM      6  C   UNL     1      50.401  17.959  20.568  0.00  0.00    +0.191 C 
BRANCH   6   7
ATOM      7  O   UNL     1      51.061  16.819  21.120  0.00  0.00    -0.571 OA
ATOM      8  H   UNL     1      51.593  16.324  20.480  0.00  0.00    +0.375 HD
ENDBRANCH   6   7
ENDBRANCH   5   6
TORSDOF 3
ENDMDL
MODEL 4
REMARK VINA RESULT:      -6.2      1.898      3.771
REMARK  Name = ZINC03994271
REMARK  10 active torsions:
REMARK  status: ('A' for Active; 'I' for Inactive)
REMARK    1  A    between atoms: C1_1  and  C2_2
REMARK    2  A    between atoms: C5_6  and  C30_37
REMARK    3  A    between atoms: C8_9  and  C29_36
REMARK    4  A    between atoms: C13_15  and  C25_30
REMARK    5  A    between atoms: C17_20  and  C24_29
REMARK    6  A    between atoms: C20_23  and  O1_28
REMARK    7  A    between atoms: C21_25  and  C22_26
REMARK    8  A    between atoms: C21_25  and  C23_27
REMARK    9  A    between atoms: C27_33  and  C28_35
REMARK   10  A    between atoms: C30_37  and  O2_38
REMARK                            x       y       z     vdW  Elec       q    Type
REMARK                         _______ _______ _______ _____ _____    ______ ____
ROOT
ATOM      1  C   UNL     1      50.571  13.236  14.980  0.00  0.00    +0.007 C 
ATOM      2  C   UNL     1      51.379  13.650  16.291  0.00  0.00    +0.005 C 
ATOM      3  C   UNL     1      51.514  12.515  17.166  0.00  0.00    +0.000 C 
ATOM      4  C   UNL     1      50.167  12.008  17.817  0.00  0.00    +0.025 C 
ATOM      5  C   UNL     1      49.468  13.204  18.531  0.00  0.00    -0.062 C 
ATOM      9  C   UNL     1      47.993  12.798  18.837  0.00  0.00    +0.022 C 
ATOM     10  C   UNL     1      47.332  13.945  19.607  0.00  0.00    +0.019 C 
ATOM     11  C   UNL     1      47.268  15.216  18.848  0.00  0.00    +0.011 C 
ATOM     12  C   UNL     1      46.276  14.956  17.662  0.00  0.00    +0.010 C 
ATOM     13  C   UNL     1      48.599  15.515  18.110  0.00  0.00    -0.074 C 
ATOM     14  C   UNL     1      48.934  16.738  17.984  0.00  0.00    -0.071 C 
ATOM     15  C   UNL     1      48.323  17.944  18.556  0.00  0.00    +0.073 C 
ATOM     16  C   UNL     1      46.849  17.639  18.907  0.00  0.00    -0.026 C 
ATOM     17  C   UNL     1      46.081  18.844  19.543  0.00  0.00    -0.037 C 
ATOM     18  C   UNL     1      46.897  19.379  20.770  0.00  0.00    +0.022 C 
ATOM     19  C   UNL     1      46.045  19.982  18.414  0.00  0.00    +0.036 C 
ATOM     20  C   UNL     1      45.267  21.107  19.067  0.00  0.00    -0.052 C 
ATOM     21  C   UNL     1      43.776  20.754  19.355  0.00  0.00    +0.177 C 
ATOM     24  C   UNL     1      43.753  19.484  20.331  0.00  0.00    -0.034 C 
ATOM     25  C   UNL     1      44.016  19.988  21.739  0.00  0.00    +0.032 C 
ATOM     26  C   UNL     1      42.276  19.029  20.250  0.00  0.00    +0.019 C 
ATOM     27  C   UNL     1      44.673  18.435  19.925  0.00  0.00    +0.005 C 
ATOM     28  C   UNL     1      44.687  17.296  20.910  0.00  0.00    +0.035 C 
ATOM     29  C   UNL     1      45.289  16.080  20.151  0.00  0.00    +0.007 C 
ATOM     30  C   UNL     1      46.736  16.333  19.632  0.00  0.00    -0.025 C 
ATOM     31  C   UNL     1      47.631  16.423  20.900  0.00  0.00    +0.005 C 
ATOM     32  C   UNL     1      49.353  14.436  17.455  0.00  0.00    +0.050 C 
ATOM     33  C   UNL     1      50.703  14.800  16.866  0.00  0.00    -0.002 C 
ATOM     34  C   UNL     1      51.676  15.501  17.918  0.00  0.00    +0.008 C 
ENDROOT
BRANCH  21  22
ATOM     22  O   UNL     1      43.186  21.850  20.023  0.00  0.00    -0.550 OA
ATOM     23  H   UNL     1      43.000  21.687  20.958  0.00  0.00    +0.375 HD
ENDBRANCH  21  22
BRANCH   5   6
ATOM      6  C   UNL     1      50.136  13.548  19.740  0.00  0.00    +0.191 C 
BRANCH   6   7
ATOM      7  O   UNL     1      50.377  12.366  20.505  0.00  0.00    -0.571 OA
ATOM      8  H   UNL     1      51.141  12.428  21.097  0.00  0.00    +0.375 HD
ENDBRANCH   6   7
ENDBRANCH   5   6
TORSDOF 3
ENDMDL
MODEL 5
REMARK VINA RESULT:      -6.2      1.454      8.049
REMARK  Name = ZINC03994271
REMARK  10 active torsions:
REMARK  status: ('A' for Active; 'I' for Inactive)
REMARK    1  A    between atoms: C1_1  and  C2_2
REMARK    2  A    between atoms: C5_6  and  C30_37
REMARK    3  A    between atoms: C8_9  and  C29_36
REMARK    4  A    between atoms: C13_15  and  C25_30
REMARK    5  A    between atoms: C17_20  and  C24_29
REMARK    6  A    between atoms: C20_23  and  O1_28
REMARK    7  A    between atoms: C21_25  and  C22_26
REMARK    8  A    between atoms: C21_25  and  C23_27
REMARK    9  A    between atoms: C27_33  and  C28_35
REMARK   10  A    between atoms: C30_37  and  O2_38
REMARK                            x       y       z     vdW  Elec       q    Type
REMARK                         _______ _______ _______ _____ _____    ______ ____
ROOT
ATOM      1  C   UNL     1      47.344  22.735  22.142  0.00  0.00    +0.007 C 
ATOM      2  C   UNL     1      46.213  22.567  21.031  0.00  0.00    +0.005 C 
ATOM      3  C   UNL     1      44.920  22.455  21.656  0.00  0.00    +0.000 C 
ATOM      4  C   UNL     1      44.691  21.133  22.488  0.00  0.00    +0.025 C 
ATOM      5  C   UNL     1      45.000  19.903  21.581  0.00  0.00    -0.062 C 
ATOM      9  C   UNL     1      45.139  18.645  22.492  0.00  0.00    +0.022 C 
ATOM     10  C   UNL     1      45.365  17.426  21.592  0.00  0.00    +0.019 C 
ATOM     11  C   UNL     1      46.606  17.500  20.785  0.00  0.00    +0.011 C 
ATOM     12  C   UNL     1      47.787  17.416  21.812  0.00  0.00    +0.010 C 
ATOM     13  C   UNL     1      46.806  18.905  20.160  0.00  0.00    -0.074 C 
ATOM     14  C   UNL     1      47.375  18.962  19.023  0.00  0.00    -0.071 C 
ATOM     15  C   UNL     1      47.764  17.879  18.111  0.00  0.00    +0.073 C 
ATOM     16  C   UNL     1      47.918  16.573  18.923  0.00  0.00    -0.026 C 
ATOM     17  C   UNL     1      48.318  15.329  18.063  0.00  0.00    -0.037 C 
ATOM     18  C   UNL     1      47.308  15.187  16.871  0.00  0.00    +0.022 C 
ATOM     19  C   UNL     1      49.769  15.660  17.468  0.00  0.00    +0.036 C 
ATOM     20  C   UNL     1      50.121  14.417  16.675  0.00  0.00    -0.052 C 
ATOM     21  C   UNL     1      50.307  13.144  17.554  0.00  0.00    +0.177 C 
ATOM     24  C   UNL     1      48.932  12.880  18.332  0.00  0.00    -0.034 C 
ATOM     25  C   UNL     1      47.983  12.201  17.361  0.00  0.00    +0.032 C 
ATOM     26  C   UNL     1      49.348  11.844  19.404  0.00  0.00    +0.019 C 
ATOM     27  C   UNL     1      48.370  14.083  18.923  0.00  0.00    +0.005 C 
ATOM     28  C   UNL     1      47.038  13.815  19.571  0.00  0.00    +0.035 C 
ATOM     29  C   UNL     1      46.793  14.996  20.553  0.00  0.00    +0.007 C 
ATOM     30  C   UNL     1      46.755  16.384  19.848  0.00  0.00    -0.025 C 
ATOM     31  C   UNL     1      45.463  16.385  18.983  0.00  0.00    +0.005 C 
ATOM     32  C   UNL     1      46.489  20.119  20.927  0.00  0.00    +0.050 C 
ATOM     33  C   UNL     1      46.596  21.444  20.194  0.00  0.00    -0.002 C 
ATOM     34  C   UNL     1      45.744  21.484  18.847  0.00  0.00    +0.008 C 
ENDROOT
BRANCH  21  22
ATOM     22  O   UNL     1      50.559  12.049  16.696  0.00  0.00    -0.550 OA
ATOM     23  H   UNL     1      50.769  12.303  15.786  0.00  0.00    +0.375 HD
ENDBRANCH  21  22
BRANCH   5   6
ATOM      6  C   UNL     1      43.968  19.695  20.622  0.00  0.00    +0.191 C 
BRANCH   6   7
ATOM      7  O   UNL     1      42.695  19.802  21.261  0.00  0.00    -0.571 OA
ATOM      8  H   UNL     1      42.030  19.186  20.921  0.00  0.00    +0.375 HD
ENDBRANCH   6   7
ENDBRANCH   5   6
TORSDOF 3
ENDMDL
MODEL 6
REMARK VINA RESULT:      -6.0      2.214      8.285
REMARK  Name = ZINC03994271
REMARK  10 active torsions:
REMARK  status: ('A' for Active; 'I' for Inactive)
REMARK    1  A    between atoms: C1_1  and  C2_2
REMARK    2  A    between atoms: C5_6  and  C30_37
REMARK    3  A    between atoms: C8_9  and  C29_36
REMARK    4  A    between atoms: C13_15  and  C25_30
REMARK    5  A    between atoms: C17_20  and  C24_29
REMARK    6  A    between atoms: C20_23  and  O1_28
REMARK    7  A    between atoms: C21_25  and  C22_26
REMARK    8  A    between atoms: C21_25  and  C23_27
REMARK    9  A    between atoms: C27_33  and  C28_35
REMARK   10  A    between atoms: C30_37  and  O2_38
REMARK                            x       y       z     vdW  Elec       q    Type
REMARK                         _______ _______ _______ _____ _____    ______ ____
ROOT
ATOM      1  C   UNL     1      45.939  21.352  18.709  0.00  0.00    +0.007 C 
ATOM      2  C   UNL     1      46.032  20.458  20.025  0.00  0.00    +0.005 C 
ATOM      3  C   UNL     1      47.041  20.983  20.909  0.00  0.00    +0.000 C 
ATOM      4  C   UNL     1      48.524  20.857  20.381  0.00  0.00    +0.025 C 
ATOM      5  C   UNL     1      48.804  19.370  20.008  0.00  0.00    -0.062 C 
ATOM      9  C   UNL     1      50.107  19.317  19.152  0.00  0.00    +0.022 C 
ATOM     10  C   UNL     1      50.423  17.848  18.853  0.00  0.00    +0.019 C 
ATOM     11  C   UNL     1      49.374  17.160  18.064  0.00  0.00    +0.011 C 
ATOM     12  C   UNL     1      49.396  17.831  16.648  0.00  0.00    +0.010 C 
ATOM     13  C   UNL     1      47.950  17.502  18.574  0.00  0.00    -0.074 C 
ATOM     14  C   UNL     1      47.063  16.593  18.483  0.00  0.00    -0.071 C 
ATOM     15  C   UNL     1      47.198  15.185  18.090  0.00  0.00    +0.073 C 
ATOM     16  C   UNL     1      48.478  15.024  17.239  0.00  0.00    -0.026 C 
ATOM     17  C   UNL     1      48.749  13.558  16.765  0.00  0.00    -0.037 C 
ATOM     18  C   UNL     1      48.726  12.606  18.011  0.00  0.00    +0.022 C 
ATOM     19  C   UNL     1      47.523  13.177  15.805  0.00  0.00    +0.036 C 
ATOM     20  C   UNL     1      47.851  11.768  15.350  0.00  0.00    -0.052 C 
ATOM     21  C   UNL     1      49.126  11.677  14.459  0.00  0.00    +0.177 C 
ATOM     24  C   UNL     1      50.361  12.238  15.312  0.00  0.00    -0.034 C 
ATOM     25  C   UNL     1      50.807  11.130  16.249  0.00  0.00    +0.032 C 
ATOM     26  C   UNL     1      51.454  12.425  14.232  0.00  0.00    +0.019 C 
ATOM     27  C   UNL     1      50.059  13.478  16.007  0.00  0.00    +0.005 C 
ATOM     28  C   UNL     1      51.211  13.931  16.864  0.00  0.00    +0.035 C 
ATOM     29  C   UNL     1      50.973  15.443  17.139  0.00  0.00    +0.007 C 
ATOM     30  C   UNL     1      49.633  15.730  17.880  0.00  0.00    -0.025 C 
ATOM     31  C   UNL     1      49.805  15.144  19.310  0.00  0.00    +0.005 C 
ATOM     32  C   UNL     1      47.614  18.869  18.997  0.00  0.00    +0.050 C 
ATOM     33  C   UNL     1      46.237  19.085  19.598  0.00  0.00    -0.002 C 
ATOM     34  C   UNL     1      45.928  18.108  20.821  0.00  0.00    +0.008 C 
ENDROOT
BRANCH  21  22
ATOM     22  O   UNL     1      49.361  10.315  14.165  0.00  0.00    -0.550 OA
ATOM     23  H   UNL     1      48.555   9.798  14.024  0.00  0.00    +0.375 HD
ENDBRANCH  21  22
BRANCH   5   6
ATOM      6  C   UNL     1      48.957  18.564  21.172  0.00  0.00    +0.191 C 
BRANCH   6   7
ATOM      7  O   UNL     1      49.858  19.202  22.079  0.00  0.00    -0.571 OA
ATOM      8  H   UNL     1      50.459  18.593  22.531  0.00  0.00    +0.375 HD
ENDBRANCH   6   7
ENDBRANCH   5   6
TORSDOF 3
ENDMDL
MODEL 7
REMARK VINA RESULT:      -6.0      3.733      5.588
REMARK  Name = ZINC03994271
REMARK  10 active torsions:
REMARK  status: ('A' for Active; 'I' for Inactive)
REMARK    1  A    between atoms: C1_1  and  C2_2
REMARK    2  A    between atoms: C5_6  and  C30_37
REMARK    3  A    between atoms: C8_9  and  C29_36
REMARK    4  A    between atoms: C13_15  and  C25_30
REMARK    5  A    between atoms: C17_20  and  C24_29
REMARK    6  A    between atoms: C20_23  and  O1_28
REMARK    7  A    between atoms: C21_25  and  C22_26
REMARK    8  A    between atoms: C21_25  and  C23_27
REMARK    9  A    between atoms: C27_33  and  C28_35
REMARK   10  A    between atoms: C30_37  and  O2_38
REMARK                            x       y       z     vdW  Elec       q    Type
REMARK                         _______ _______ _______ _____ _____    ______ ____
ROOT
ATOM      1  C   UNL     1      47.711  12.550  13.824  0.00  0.00    +0.007 C 
ATOM      2  C   UNL     1      48.963  11.885  14.553  0.00  0.00    +0.005 C 
ATOM      3  C   UNL     1      48.517  10.872  15.474  0.00  0.00    +0.000 C 
ATOM      4  C   UNL     1      47.720  11.410  16.727  0.00  0.00    +0.025 C 
ATOM      5  C   UNL     1      48.574  12.501  17.441  0.00  0.00    -0.062 C 
ATOM      9  C   UNL     1      47.650  13.280  18.426  0.00  0.00    +0.022 C 
ATOM     10  C   UNL     1      48.509  14.299  19.183  0.00  0.00    +0.019 C 
ATOM     11  C   UNL     1      49.142  15.314  18.308  0.00  0.00    +0.011 C 
ATOM     12  C   UNL     1      47.966  16.182  17.742  0.00  0.00    +0.010 C 
ATOM     13  C   UNL     1      49.738  14.680  17.024  0.00  0.00    -0.074 C 
ATOM     14  C   UNL     1      50.789  15.214  16.544  0.00  0.00    -0.071 C 
ATOM     15  C   UNL     1      51.638  16.278  17.093  0.00  0.00    +0.073 C 
ATOM     16  C   UNL     1      50.809  17.109  18.099  0.00  0.00    -0.026 C 
ATOM     17  C   UNL     1      51.605  18.275  18.773  0.00  0.00    -0.037 C 
ATOM     18  C   UNL     1      52.921  17.698  19.402  0.00  0.00    +0.022 C 
ATOM     19  C   UNL     1      52.001  19.276  17.585  0.00  0.00    +0.036 C 
ATOM     20  C   UNL     1      52.736  20.396  18.293  0.00  0.00    -0.052 C 
ATOM     21  C   UNL     1      51.838  21.226  19.259  0.00  0.00    +0.177 C 
ATOM     24  C   UNL     1      51.250  20.224  20.362  0.00  0.00    -0.034 C 
ATOM     25  C   UNL     1      52.338  19.998  21.398  0.00  0.00    +0.032 C 
ATOM     26  C   UNL     1      50.130  21.068  21.017  0.00  0.00    +0.019 C 
ATOM     27  C   UNL     1      50.743  18.985  19.797  0.00  0.00    +0.005 C 
ATOM     28  C   UNL     1      50.278  18.034  20.868  0.00  0.00    +0.035 C 
ATOM     29  C   UNL     1      49.340  17.015  20.159  0.00  0.00    +0.007 C 
ATOM     30  C   UNL     1      50.047  16.213  19.026  0.00  0.00    -0.025 C 
ATOM     31  C   UNL     1      51.079  15.292  19.739  0.00  0.00    +0.005 C 
ATOM     32  C   UNL     1      49.023  13.607  16.316  0.00  0.00    +0.050 C 
ATOM     33  C   UNL     1      49.738  12.962  15.144  0.00  0.00    -0.002 C 
ATOM     34  C   UNL     1      51.188  12.413  15.520  0.00  0.00    +0.008 C 
ENDROOT
BRANCH  21  22
ATOM     22  O   UNL     1      52.652  22.183  19.905  0.00  0.00    -0.550 OA
ATOM     23  H   UNL     1      52.676  23.042  19.460  0.00  0.00    +0.375 HD
ENDBRANCH  21  22
BRANCH   5   6
ATOM      6  C   UNL     1      49.663  11.921  18.154  0.00  0.00    +0.191 C 
BRANCH   6   7
ATOM      7  O   UNL     1      49.183  10.848  18.965  0.00  0.00    -0.571 OA
ATOM      8  H   UNL     1      48.737  10.147  18.467  0.00  0.00    +0.375 HD
ENDBRANCH   6   7
ENDBRANCH   5   6
TORSDOF 3
ENDMDL
MODEL 8
REMARK VINA RESULT:      -6.0      1.720      2.493
REMARK  Name = ZINC03994271
REMARK  10 active torsions:
REMARK  status: ('A' for Active; 'I' for Inactive)
REMARK    1  A    between atoms: C1_1  and  C2_2
REMARK    2  A    between atoms: C5_6  and  C30_37
REMARK    3  A    between atoms: C8_9  and  C29_36
REMARK    4  A    between atoms: C13_15  and  C25_30
REMARK    5  A    between atoms: C17_20  and  C24_29
REMARK    6  A    between atoms: C20_23  and  O1_28
REMARK    7  A    between atoms: C21_25  and  C22_26
REMARK    8  A    between atoms: C21_25  and  C23_27
REMARK    9  A    between atoms: C27_33  and  C28_35
REMARK   10  A    between atoms: C30_37  and  O2_38
REMARK                            x       y       z     vdW  Elec       q    Type
REMARK                         _______ _______ _______ _____ _____    ______ ____
ROOT
ATOM      1  C   UNL     1      50.287  13.353  19.976  0.00  0.00    +0.007 C 
ATOM      2  C   UNL     1      48.908  13.019  20.702  0.00  0.00    +0.005 C 
ATOM      3  C   UNL     1      48.090  12.193  19.853  0.00  0.00    +0.000 C 
ATOM      4  C   UNL     1      47.552  12.903  18.548  0.00  0.00    +0.025 C 
ATOM      5  C   UNL     1      46.819  14.218  18.951  0.00  0.00    -0.062 C 
ATOM      9  C   UNL     1      46.628  15.085  17.669  0.00  0.00    +0.022 C 
ATOM     10  C   UNL     1      45.839  16.340  18.055  0.00  0.00    +0.019 C 
ATOM     11  C   UNL     1      46.529  17.200  19.045  0.00  0.00    +0.011 C 
ATOM     12  C   UNL     1      47.787  17.775  18.307  0.00  0.00    +0.010 C 
ATOM     13  C   UNL     1      47.165  16.368  20.189  0.00  0.00    -0.074 C 
ATOM     14  C   UNL     1      47.203  16.899  21.346  0.00  0.00    -0.071 C 
ATOM     15  C   UNL     1      46.605  18.151  21.825  0.00  0.00    +0.073 C 
ATOM     16  C   UNL     1      46.364  19.084  20.617  0.00  0.00    -0.026 C 
ATOM     17  C   UNL     1      45.711  20.457  20.989  0.00  0.00    -0.037 C 
ATOM     18  C   UNL     1      44.408  20.193  21.821  0.00  0.00    +0.022 C 
ATOM     19  C   UNL     1      46.775  21.204  21.926  0.00  0.00    +0.036 C 
ATOM     20  C   UNL     1      46.112  22.533  22.229  0.00  0.00    -0.052 C 
ATOM     21  C   UNL     1      45.937  23.447  20.980  0.00  0.00    +0.177 C 
ATOM     24  C   UNL     1      45.036  22.657  19.917  0.00  0.00    -0.034 C 
ATOM     25  C   UNL     1      43.588  22.798  20.354  0.00  0.00    +0.032 C 
ATOM     26  C   UNL     1      45.233  23.490  18.628  0.00  0.00    +0.019 C 
ATOM     27  C   UNL     1      45.440  21.273  19.742  0.00  0.00    +0.005 C 
ATOM     28  C   UNL     1      44.520  20.539  18.802  0.00  0.00    +0.035 C 
ATOM     29  C   UNL     1      45.307  19.285  18.325  0.00  0.00    +0.007 C 
ATOM     30  C   UNL     1      45.720  18.337  19.489  0.00  0.00    -0.025 C 
ATOM     31  C   UNL     1      44.395  17.726  20.030  0.00  0.00    +0.005 C 
ATOM     32  C   UNL     1      47.831  15.088  19.905  0.00  0.00    +0.050 C 
ATOM     33  C   UNL     1      48.313  14.283  21.098  0.00  0.00    -0.002 C 
ATOM     34  C   UNL     1      47.166  14.006  22.171  0.00  0.00    +0.008 C 
ENDROOT
BRANCH  21  22
ATOM     22  O   UNL     1      45.247  24.614  21.380  0.00  0.00    -0.550 OA
ATOM     23  H   UNL     1      44.789  25.067  20.659  0.00  0.00    +0.375 HD
ENDBRANCH  21  22
BRANCH   5   6
ATOM      6  C   UNL     1      45.553  13.944  19.544  0.00  0.00    +0.191 C 
BRANCH   6   7
ATOM      7  O   UNL     1      44.803  13.080  18.688  0.00  0.00    -0.571 OA
ATOM      8  H   UNL     1      43.844  13.154  18.796  0.00  0.00    +0.375 HD
ENDBRANCH   6   7
ENDBRANCH   5   6
TORSDOF 3
ENDMDL
MODEL 9
REMARK VINA RESULT:      -6.0      1.642      3.107
REMARK  Name = ZINC03994271
REMARK  10 active torsions:
REMARK  status: ('A' for Active; 'I' for Inactive)
REMARK    1  A    between atoms: C1_1  and  C2_2
REMARK    2  A    between atoms: C5_6  and  C30_37
REMARK    3  A    between atoms: C8_9  and  C29_36
REMARK    4  A    between atoms: C13_15  and  C25_30
REMARK    5  A    between atoms: C17_20  and  C24_29
REMARK    6  A    between atoms: C20_23  and  O1_28
REMARK    7  A    between atoms: C21_25  and  C22_26
REMARK    8  A    between atoms: C21_25  and  C23_27
REMARK    9  A    between atoms: C27_33  and  C28_35
REMARK   10  A    between atoms: C30_37  and  O2_38
REMARK                            x       y       z     vdW  Elec       q    Type
REMARK                         _______ _______ _______ _____ _____    ______ ____
ROOT
ATOM      1  C   UNL     1      45.850  10.780  16.123  0.00  0.00    +0.007 C 
ATOM      2  C   UNL     1      47.268  11.463  15.870  0.00  0.00    +0.005 C 
ATOM      3  C   UNL     1      48.286  10.782  16.627  0.00  0.00    +0.000 C 
ATOM      4  C   UNL     1      48.175  10.942  18.194  0.00  0.00    +0.025 C 
ATOM      5  C   UNL     1      48.116  12.459  18.546  0.00  0.00    -0.062 C 
ATOM      9  C   UNL     1      47.635  12.602  20.022  0.00  0.00    +0.022 C 
ATOM     10  C   UNL     1      47.653  14.089  20.389  0.00  0.00    +0.019 C 
ATOM     11  C   UNL     1      46.740  14.919  19.568  0.00  0.00    +0.011 C 
ATOM     12  C   UNL     1      45.289  14.467  19.955  0.00  0.00    +0.010 C 
ATOM     13  C   UNL     1      46.816  14.545  18.065  0.00  0.00    -0.074 C 
ATOM     14  C   UNL     1      46.644  15.484  17.221  0.00  0.00    -0.071 C 
ATOM     15  C   UNL     1      46.518  16.931  17.437  0.00  0.00    +0.073 C 
ATOM     16  C   UNL     1      46.052  17.180  18.890  0.00  0.00    -0.026 C 
ATOM     17  C   UNL     1      45.891  18.692  19.258  0.00  0.00    -0.037 C 
ATOM     18  C   UNL     1      47.221  19.446  18.911  0.00  0.00    +0.022 C 
ATOM     19  C   UNL     1      44.723  19.249  18.312  0.00  0.00    +0.036 C 
ATOM     20  C   UNL     1      44.586  20.699  18.731  0.00  0.00    -0.052 C 
ATOM     21  C   UNL     1      44.070  20.886  20.189  0.00  0.00    +0.177 C 
ATOM     24  C   UNL     1      45.110  20.166  21.173  0.00  0.00    -0.034 C 
ATOM     25  C   UNL     1      46.287  21.107  21.357  0.00  0.00    +0.032 C 
ATOM     26  C   UNL     1      44.325  20.111  22.505  0.00  0.00    +0.019 C 
ATOM     27  C   UNL     1      45.508  18.846  20.717  0.00  0.00    +0.005 C 
ATOM     28  C   UNL     1      46.549  18.235  21.618  0.00  0.00    +0.035 C 
ATOM     29  C   UNL     1      46.520  16.707  21.333  0.00  0.00    +0.007 C 
ATOM     30  C   UNL     1      46.847  16.351  19.851  0.00  0.00    -0.025 C 
ATOM     31  C   UNL     1      48.346  16.710  19.649  0.00  0.00    +0.005 C 
ATOM     32  C   UNL     1      46.927  13.141  17.645  0.00  0.00    +0.050 C 
ATOM     33  C   UNL     1      47.121  12.878  16.163  0.00  0.00    -0.002 C 
ATOM     34  C   UNL     1      48.361  13.669  15.545  0.00  0.00    +0.008 C 
ENDROOT
BRANCH  21  22
ATOM     22  O   UNL     1      44.056  22.269  20.478  0.00  0.00    -0.550 OA
ATOM     23  H   UNL     1      43.886  22.475  21.408  0.00  0.00    +0.375 HD
ENDBRANCH  21  22
BRANCH   5   6
ATOM      6  C   UNL     1      49.390  13.077  18.390  0.00  0.00    +0.191 C 
BRANCH   6   7
ATOM      7  O   UNL     1      50.387  12.279  19.031  0.00  0.00    -0.571 OA
ATOM      8  H   UNL     1      50.657  12.610  19.900  0.00  0.00    +0.375 HD
ENDBRANCH   6   7
ENDBRANCH   5   6
TORSDOF 3
ENDMDL
