MODEL 1
REMARK VINA RESULT:      -6.1      0.000      0.000
REMARK  Name = ZINC87493012
REMARK  8 active torsions:
REMARK  status: ('A' for Active; 'I' for Inactive)
REMARK    1  A    between atoms: C1_1  and  C2_2
REMARK    2  A    between atoms: C2_2  and  C3_3
REMARK    3  A    between atoms: C2_2  and  C4_4
REMARK    4  A    between atoms: C5_5  and  C6_6
REMARK    5  A    between atoms: C7_7  and  O4_23
REMARK    6  A    between atoms: C9_9  and  C12_13
REMARK    7  A    between atoms: C11_11  and  O1_12
REMARK    8  A    between atoms: C17_18  and  O3_22
REMARK                            x       y       z     vdW  Elec       q    Type
REMARK                         _______ _______ _______ _____ _____    ______ ____
ROOT
ATOM      5  C   UNL     1      46.291  14.246  18.013  0.00  0.00    -0.093 A 
ATOM      6  C   UNL     1      46.697  15.291  17.171  0.00  0.00    +0.132 A 
ATOM      9  C   UNL     1      46.466  16.602  17.539  0.00  0.00    +0.013 A 
ATOM     10  C   UNL     1      45.828  16.888  18.749  0.00  0.00    +0.004 A 
ATOM     22  C   UNL     1      45.422  15.849  19.589  0.00  0.00    +0.015 A 
ATOM     23  C   UNL     1      45.646  14.535  19.223  0.00  0.00    +0.135 A 
ENDROOT
BRANCH  10  11
ATOM     11  C   UNL     1      45.582  18.290  19.140  0.00  0.00    +0.073 A 
ATOM     12  C   UNL     1      45.776  19.367  18.342  0.00  0.00    -0.012 A 
ATOM     13  C   UNL     1      45.406  20.537  19.140  0.00  0.00    -0.139 A 
ATOM     14  C   UNL     1      45.383  21.912  18.899  0.00  0.00    +0.086 A 
ATOM     15  C   UNL     1      44.972  22.768  19.881  0.00  0.00    -0.018 A 
ATOM     16  C   UNL     1      44.578  22.276  21.123  0.00  0.00    +0.138 A 
ATOM     19  C   UNL     1      44.595  20.916  21.380  0.00  0.00    +0.003 A 
ATOM     20  C   UNL     1      45.008  20.032  20.392  0.00  0.00    +0.076 A 
ATOM     21  O   UNL     1      45.125  18.690  20.344  0.00  0.00    -0.186 OA
BRANCH  16  17
ATOM     17  O   UNL     1      44.173  23.139  22.092  0.00  0.00    -0.492 OA
ATOM     18  H   UNL     1      44.755  23.168  22.863  0.00  0.00    +0.396 HD
ENDBRANCH  16  17
ENDBRANCH  10  11
BRANCH   5   4
ATOM      3  C   UNL     1      45.712  12.237  16.778  0.00  0.00    -0.012 C 
ATOM      4  C   UNL     1      46.537  12.846  17.622  0.00  0.00    +0.006 C 
BRANCH   3   2
ATOM      1  C   UNL     1      45.011  10.416  15.247  0.00  0.00    +0.025 C 
ATOM      2  C   UNL     1      45.963  10.805  16.380  0.00  0.00    +0.007 C 
ATOM     26  C   UNL     1      47.410  10.655  15.905  0.00  0.00    +0.027 C 
ENDBRANCH   3   2
ENDBRANCH   5   4
BRANCH   6   7
ATOM      7  O   UNL     1      47.318  15.014  15.995  0.00  0.00    -0.485 OA
ATOM      8  H   UNL     1      47.432  15.784  15.420  0.00  0.00    +0.392 HD
ENDBRANCH   6   7
BRANCH  23  24
ATOM     24  O   UNL     1      45.246  13.524  20.038  0.00  0.00    -0.486 OA
ATOM     25  H   UNL     1      45.974  13.043  20.453  0.00  0.00    +0.394 HD
ENDBRANCH  23  24
TORSDOF 6
ENDMDL
MODEL 2
REMARK VINA RESULT:      -6.0      0.058      1.735
REMARK  Name = ZINC87493012
REMARK  8 active torsions:
REMARK  status: ('A' for Active; 'I' for Inactive)
REMARK    1  A    between atoms: C1_1  and  C2_2
REMARK    2  A    between atoms: C2_2  and  C3_3
REMARK    3  A    between atoms: C2_2  and  C4_4
REMARK    4  A    between atoms: C5_5  and  C6_6
REMARK    5  A    between atoms: C7_7  and  O4_23
REMARK    6  A    between atoms: C9_9  and  C12_13
REMARK    7  A    between atoms: C11_11  and  O1_12
REMARK    8  A    between atoms: C17_18  and  O3_22
REMARK                            x       y       z     vdW  Elec       q    Type
REMARK                         _______ _______ _______ _____ _____    ______ ____
ROOT
ATOM      5  C   UNL     1      46.278  14.218  18.066  0.00  0.00    -0.093 A 
ATOM      6  C   UNL     1      45.593  14.513  19.254  0.00  0.00    +0.132 A 
ATOM      9  C   UNL     1      45.367  15.829  19.610  0.00  0.00    +0.013 A 
ATOM     10  C   UNL     1      45.822  16.864  18.789  0.00  0.00    +0.004 A 
ATOM     22  C   UNL     1      46.505  16.572  17.606  0.00  0.00    +0.015 A 
ATOM     23  C   UNL     1      46.737  15.258  17.248  0.00  0.00    +0.135 A 
ENDROOT
BRANCH  10  11
ATOM     11  C   UNL     1      45.580  18.269  19.173  0.00  0.00    +0.073 A 
ATOM     12  C   UNL     1      45.780  19.341  18.370  0.00  0.00    -0.012 A 
ATOM     13  C   UNL     1      45.412  20.517  19.161  0.00  0.00    -0.139 A 
ATOM     14  C   UNL     1      45.394  21.891  18.913  0.00  0.00    +0.086 A 
ATOM     15  C   UNL     1      44.984  22.752  19.890  0.00  0.00    -0.018 A 
ATOM     16  C   UNL     1      44.585  22.269  21.133  0.00  0.00    +0.138 A 
ATOM     19  C   UNL     1      44.597  20.910  21.397  0.00  0.00    +0.003 A 
ATOM     20  C   UNL     1      45.009  20.020  20.415  0.00  0.00    +0.076 A 
ATOM     21  O   UNL     1      45.121  18.677  20.374  0.00  0.00    -0.186 OA
BRANCH  16  17
ATOM     17  O   UNL     1      44.181  23.138  22.096  0.00  0.00    -0.492 OA
ATOM     18  H   UNL     1      43.355  22.887  22.533  0.00  0.00    +0.396 HD
ENDBRANCH  16  17
ENDBRANCH  10  11
BRANCH   5   4
ATOM      3  C   UNL     1      45.732  12.225  16.791  0.00  0.00    -0.012 C 
ATOM      4  C   UNL     1      46.519  12.814  17.683  0.00  0.00    +0.006 C 
BRANCH   3   2
ATOM      1  C   UNL     1      45.036  10.404  15.257  0.00  0.00    +0.025 C 
ATOM      2  C   UNL     1      45.977  10.790  16.400  0.00  0.00    +0.007 C 
ATOM     26  C   UNL     1      47.429  10.628  15.943  0.00  0.00    +0.027 C 
ENDBRANCH   3   2
ENDBRANCH   5   4
BRANCH   6   7
ATOM      7  O   UNL     1      45.150  13.507  20.052  0.00  0.00    -0.485 OA
ATOM      8  H   UNL     1      44.443  13.769  20.657  0.00  0.00    +0.392 HD
ENDBRANCH   6   7
BRANCH  23  24
ATOM     24  O   UNL     1      47.407  14.974  16.100  0.00  0.00    -0.486 OA
ATOM     25  H   UNL     1      47.843  14.112  16.103  0.00  0.00    +0.394 HD
ENDBRANCH  23  24
TORSDOF 6
ENDMDL
MODEL 3
REMARK VINA RESULT:      -5.8      4.536      7.747
REMARK  Name = ZINC87493012
REMARK  8 active torsions:
REMARK  status: ('A' for Active; 'I' for Inactive)
REMARK    1  A    between atoms: C1_1  and  C2_2
REMARK    2  A    between atoms: C2_2  and  C3_3
REMARK    3  A    between atoms: C2_2  and  C4_4
REMARK    4  A    between atoms: C5_5  and  C6_6
REMARK    5  A    between atoms: C7_7  and  O4_23
REMARK    6  A    between atoms: C9_9  and  C12_13
REMARK    7  A    between atoms: C11_11  and  O1_12
REMARK    8  A    between atoms: C17_18  and  O3_22
REMARK                            x       y       z     vdW  Elec       q    Type
REMARK                         _______ _______ _______ _____ _____    ______ ____
ROOT
ATOM      5  C   UNL     1      44.346  20.222  19.397  0.00  0.00    -0.093 A 
ATOM      6  C   UNL     1      45.215  21.261  19.033  0.00  0.00    +0.132 A 
ATOM      9  C   UNL     1      46.568  21.015  18.907  0.00  0.00    +0.013 A 
ATOM     10  C   UNL     1      47.072  19.733  19.144  0.00  0.00    +0.004 A 
ATOM     22  C   UNL     1      46.208  18.697  19.508  0.00  0.00    +0.015 A 
ATOM     23  C   UNL     1      44.854  18.939  19.639  0.00  0.00    +0.135 A 
ENDROOT
BRANCH  10  11
ATOM     11  C   UNL     1      48.519  19.473  19.011  0.00  0.00    +0.073 A 
ATOM     12  C   UNL     1      49.463  20.418  18.785  0.00  0.00    -0.012 A 
ATOM     13  C   UNL     1      50.743  19.708  18.726  0.00  0.00    -0.139 A 
ATOM     14  C   UNL     1      52.066  20.104  18.525  0.00  0.00    +0.086 A 
ATOM     15  C   UNL     1      53.063  19.170  18.528  0.00  0.00    -0.018 A 
ATOM     16  C   UNL     1      52.766  17.825  18.729  0.00  0.00    +0.138 A 
ATOM     19  C   UNL     1      51.459  17.414  18.930  0.00  0.00    +0.003 A 
ATOM     20  C   UNL     1      50.434  18.351  18.931  0.00  0.00    +0.076 A 
ATOM     21  O   UNL     1      49.100  18.259  19.101  0.00  0.00    -0.186 OA
BRANCH  16  17
ATOM     17  O   UNL     1      53.767  16.906  18.729  0.00  0.00    -0.492 OA
ATOM     18  H   UNL     1      54.468  17.088  18.087  0.00  0.00    +0.396 HD
ENDBRANCH  16  17
ENDBRANCH  10  11
BRANCH   5   4
ATOM      3  C   UNL     1      42.087  20.251  18.506  0.00  0.00    -0.012 C 
ATOM      4  C   UNL     1      42.900  20.482  19.530  0.00  0.00    +0.006 C 
BRANCH   3   2
ATOM      1  C   UNL     1      40.173  20.246  20.083  0.00  0.00    +0.025 C 
ATOM      2  C   UNL     1      40.610  20.518  18.642  0.00  0.00    +0.007 C 
ATOM     26  C   UNL     1      40.321  21.979  18.288  0.00  0.00    +0.027 C 
ENDBRANCH   3   2
ENDBRANCH   5   4
BRANCH   6   7
ATOM      7  O   UNL     1      44.726  22.507  18.801  0.00  0.00    -0.485 OA
ATOM      8  H   UNL     1      44.345  22.930  19.583  0.00  0.00    +0.392 HD
ENDBRANCH   6   7
BRANCH  23  24
ATOM     24  O   UNL     1      44.015  17.932  19.999  0.00  0.00    -0.486 OA
ATOM     25  H   UNL     1      43.347  17.722  19.333  0.00  0.00    +0.394 HD
ENDBRANCH  23  24
TORSDOF 6
ENDMDL
MODEL 4
REMARK VINA RESULT:      -5.4      2.630      3.213
REMARK  Name = ZINC87493012
REMARK  8 active torsions:
REMARK  status: ('A' for Active; 'I' for Inactive)
REMARK    1  A    between atoms: C1_1  and  C2_2
REMARK    2  A    between atoms: C2_2  and  C3_3
REMARK    3  A    between atoms: C2_2  and  C4_4
REMARK    4  A    between atoms: C5_5  and  C6_6
REMARK    5  A    between atoms: C7_7  and  O4_23
REMARK    6  A    between atoms: C9_9  and  C12_13
REMARK    7  A    between atoms: C11_11  and  O1_12
REMARK    8  A    between atoms: C17_18  and  O3_22
REMARK                            x       y       z     vdW  Elec       q    Type
REMARK                         _______ _______ _______ _____ _____    ______ ____
ROOT
ATOM      5  C   UNL     1      48.615  15.113  17.247  0.00  0.00    -0.093 A 
ATOM      6  C   UNL     1      47.358  15.311  16.659  0.00  0.00    +0.132 A 
ATOM      9  C   UNL     1      46.595  16.406  17.014  0.00  0.00    +0.013 A 
ATOM     10  C   UNL     1      47.075  17.317  17.959  0.00  0.00    +0.004 A 
ATOM     22  C   UNL     1      48.327  17.122  18.547  0.00  0.00    +0.015 A 
ATOM     23  C   UNL     1      49.091  16.025  18.199  0.00  0.00    +0.135 A 
ENDROOT
BRANCH  10  11
ATOM     11  C   UNL     1      46.257  18.487  18.337  0.00  0.00    +0.073 A 
ATOM     12  C   UNL     1      46.748  19.678  18.753  0.00  0.00    -0.012 A 
ATOM     13  C   UNL     1      45.585  20.529  19.014  0.00  0.00    -0.139 A 
ATOM     14  C   UNL     1      45.420  21.842  19.457  0.00  0.00    +0.086 A 
ATOM     15  C   UNL     1      44.164  22.358  19.601  0.00  0.00    -0.018 A 
ATOM     16  C   UNL     1      43.046  21.580  19.311  0.00  0.00    +0.138 A 
ATOM     19  C   UNL     1      43.191  20.275  18.871  0.00  0.00    +0.003 A 
ATOM     20  C   UNL     1      44.461  19.736  18.718  0.00  0.00    +0.076 A 
ATOM     21  O   UNL     1      44.910  18.530  18.314  0.00  0.00    -0.186 OA
BRANCH  16  17
ATOM     17  O   UNL     1      41.802  22.105  19.460  0.00  0.00    -0.492 OA
ATOM     18  H   UNL     1      41.260  22.070  18.660  0.00  0.00    +0.396 HD
ENDBRANCH  16  17
ENDBRANCH  10  11
BRANCH   5   4
ATOM      3  C   UNL     1      50.420  14.081  15.993  0.00  0.00    -0.012 C 
ATOM      4  C   UNL     1      49.432  13.945  16.869  0.00  0.00    +0.006 C 
BRANCH   3   2
ATOM      1  C   UNL     1      50.364  11.644  15.537  0.00  0.00    +0.025 C 
ATOM      2  C   UNL     1      51.254  12.887  15.605  0.00  0.00    +0.007 C 
ATOM     26  C   UNL     1      51.892  13.133  14.237  0.00  0.00    +0.027 C 
ENDBRANCH   3   2
ENDBRANCH   5   4
BRANCH   6   7
ATOM      7  O   UNL     1      46.892  14.427  15.739  0.00  0.00    -0.485 OA
ATOM      8  H   UNL     1      47.143  14.637  14.830  0.00  0.00    +0.392 HD
ENDBRANCH   6   7
BRANCH  23  24
ATOM     24  O   UNL     1      50.307  15.832  18.776  0.00  0.00    -0.486 OA
ATOM     25  H   UNL     1      50.614  16.582  19.303  0.00  0.00    +0.394 HD
ENDBRANCH  23  24
TORSDOF 6
ENDMDL
MODEL 5
REMARK VINA RESULT:      -5.3      2.699      4.243
REMARK  Name = ZINC87493012
REMARK  8 active torsions:
REMARK  status: ('A' for Active; 'I' for Inactive)
REMARK    1  A    between atoms: C1_1  and  C2_2
REMARK    2  A    between atoms: C2_2  and  C3_3
REMARK    3  A    between atoms: C2_2  and  C4_4
REMARK    4  A    between atoms: C5_5  and  C6_6
REMARK    5  A    between atoms: C7_7  and  O4_23
REMARK    6  A    between atoms: C9_9  and  C12_13
REMARK    7  A    between atoms: C11_11  and  O1_12
REMARK    8  A    between atoms: C17_18  and  O3_22
REMARK                            x       y       z     vdW  Elec       q    Type
REMARK                         _______ _______ _______ _____ _____    ______ ____
ROOT
ATOM      5  C   UNL     1      48.412  13.626  16.257  0.00  0.00    -0.093 A 
ATOM      6  C   UNL     1      47.087  13.207  16.445  0.00  0.00    +0.132 A 
ATOM      9  C   UNL     1      46.281  13.861  17.357  0.00  0.00    +0.013 A 
ATOM     10  C   UNL     1      46.785  14.937  18.092  0.00  0.00    +0.004 A 
ATOM     22  C   UNL     1      48.105  15.355  17.907  0.00  0.00    +0.015 A 
ATOM     23  C   UNL     1      48.916  14.702  16.999  0.00  0.00    +0.135 A 
ENDROOT
BRANCH  10  11
ATOM     11  C   UNL     1      45.922  15.633  19.067  0.00  0.00    +0.073 A 
ATOM     12  C   UNL     1      45.516  15.122  20.254  0.00  0.00    -0.012 A 
ATOM     13  C   UNL     1      44.686  16.153  20.879  0.00  0.00    -0.139 A 
ATOM     14  C   UNL     1      43.986  16.241  22.084  0.00  0.00    +0.086 A 
ATOM     15  C   UNL     1      43.285  17.375  22.381  0.00  0.00    -0.018 A 
ATOM     16  C   UNL     1      43.264  18.443  21.489  0.00  0.00    +0.138 A 
ATOM     19  C   UNL     1      43.952  18.374  20.290  0.00  0.00    +0.003 A 
ATOM     20  C   UNL     1      44.670  17.229  19.972  0.00  0.00    +0.076 A 
ATOM     21  O   UNL     1      45.424  16.877  18.911  0.00  0.00    -0.186 OA
BRANCH  16  17
ATOM     17  O   UNL     1      42.562  19.565  21.798  0.00  0.00    -0.492 OA
ATOM     18  H   UNL     1      43.104  20.285  22.149  0.00  0.00    +0.396 HD
ENDBRANCH  16  17
ENDBRANCH  10  11
BRANCH   5   4
ATOM      3  C   UNL     1      50.067  11.944  15.684  0.00  0.00    -0.012 C 
ATOM      4  C   UNL     1      49.274  12.930  15.283  0.00  0.00    +0.006 C 
BRANCH   3   2
ATOM      1  C   UNL     1      51.040  12.064  13.406  0.00  0.00    +0.025 C 
ATOM      2  C   UNL     1      50.949  11.234  14.689  0.00  0.00    +0.007 C 
ATOM     26  C   UNL     1      52.348  11.057  15.283  0.00  0.00    +0.027 C 
ENDBRANCH   3   2
ENDBRANCH   5   4
BRANCH   6   7
ATOM      7  O   UNL     1      46.596  12.162  15.731  0.00  0.00    -0.485 OA
ATOM      8  H   UNL     1      46.859  11.296  16.071  0.00  0.00    +0.392 HD
ENDBRANCH   6   7
BRANCH  23  24
ATOM     24  O   UNL     1      50.202  15.105  16.823  0.00  0.00    -0.486 OA
ATOM     25  H   UNL     1      50.465  15.184  15.897  0.00  0.00    +0.394 HD
ENDBRANCH  23  24
TORSDOF 6
ENDMDL
MODEL 6
REMARK VINA RESULT:      -5.3      2.353      3.136
REMARK  Name = ZINC87493012
REMARK  8 active torsions:
REMARK  status: ('A' for Active; 'I' for Inactive)
REMARK    1  A    between atoms: C1_1  and  C2_2
REMARK    2  A    between atoms: C2_2  and  C3_3
REMARK    3  A    between atoms: C2_2  and  C4_4
REMARK    4  A    between atoms: C5_5  and  C6_6
REMARK    5  A    between atoms: C7_7  and  O4_23
REMARK    6  A    between atoms: C9_9  and  C12_13
REMARK    7  A    between atoms: C11_11  and  O1_12
REMARK    8  A    between atoms: C17_18  and  O3_22
REMARK                            x       y       z     vdW  Elec       q    Type
REMARK                         _______ _______ _______ _____ _____    ______ ____
ROOT
ATOM      5  C   UNL     1      48.688  14.261  16.505  0.00  0.00    -0.093 A 
ATOM      6  C   UNL     1      49.464  15.349  16.930  0.00  0.00    +0.132 A 
ATOM      9  C   UNL     1      48.848  16.495  17.394  0.00  0.00    +0.013 A 
ATOM     10  C   UNL     1      47.453  16.571  17.439  0.00  0.00    +0.004 A 
ATOM     22  C   UNL     1      46.678  15.488  17.016  0.00  0.00    +0.015 A 
ATOM     23  C   UNL     1      47.290  14.342  16.546  0.00  0.00    +0.135 A 
ENDROOT
BRANCH  10  11
ATOM     11  C   UNL     1      46.797  17.797  17.935  0.00  0.00    +0.073 A 
ATOM     12  C   UNL     1      47.442  18.900  18.380  0.00  0.00    -0.012 A 
ATOM     13  C   UNL     1      46.400  19.854  18.766  0.00  0.00    -0.139 A 
ATOM     14  C   UNL     1      46.411  21.149  19.289  0.00  0.00    +0.086 A 
ATOM     15  C   UNL     1      45.231  21.787  19.546  0.00  0.00    -0.018 A 
ATOM     16  C   UNL     1      44.018  21.153  19.291  0.00  0.00    +0.138 A 
ATOM     19  C   UNL     1      43.988  19.870  18.773  0.00  0.00    +0.003 A 
ATOM     20  C   UNL     1      45.178  19.207  18.504  0.00  0.00    +0.076 A 
ATOM     21  O   UNL     1      45.463  17.987  18.006  0.00  0.00    -0.186 OA
BRANCH  16  17
ATOM     17  O   UNL     1      42.852  21.801  19.553  0.00  0.00    -0.492 OA
ATOM     18  H   UNL     1      42.946  22.560  20.144  0.00  0.00    +0.396 HD
ENDBRANCH  16  17
ENDBRANCH  10  11
BRANCH   5   4
ATOM      3  C   UNL     1      49.610  12.902  14.717  0.00  0.00    -0.012 C 
ATOM      4  C   UNL     1      49.344  13.036  16.011  0.00  0.00    +0.006 C 
BRANCH   3   2
ATOM      1  C   UNL     1      51.751  11.652  14.632  0.00  0.00    +0.025 C 
ATOM      2  C   UNL     1      50.280  11.649  14.211  0.00  0.00    +0.007 C 
ATOM     26  C   UNL     1      49.581  10.423  14.804  0.00  0.00    +0.027 C 
ENDBRANCH   3   2
ENDBRANCH   5   4
BRANCH   6   7
ATOM      7  O   UNL     1      50.820  15.276  16.887  0.00  0.00    -0.485 OA
ATOM      8  H   UNL     1      51.265  16.080  17.188  0.00  0.00    +0.392 HD
ENDBRANCH   6   7
BRANCH  23  24
ATOM     24  O   UNL     1      46.536  13.291  16.129  0.00  0.00    -0.486 OA
ATOM     25  H   UNL     1      46.656  12.489  16.655  0.00  0.00    +0.394 HD
ENDBRANCH  23  24
TORSDOF 6
ENDMDL
MODEL 7
REMARK VINA RESULT:      -5.3      2.624      3.585
REMARK  Name = ZINC87493012
REMARK  8 active torsions:
REMARK  status: ('A' for Active; 'I' for Inactive)
REMARK    1  A    between atoms: C1_1  and  C2_2
REMARK    2  A    between atoms: C2_2  and  C3_3
REMARK    3  A    between atoms: C2_2  and  C4_4
REMARK    4  A    between atoms: C5_5  and  C6_6
REMARK    5  A    between atoms: C7_7  and  O4_23
REMARK    6  A    between atoms: C9_9  and  C12_13
REMARK    7  A    between atoms: C11_11  and  O1_12
REMARK    8  A    between atoms: C17_18  and  O3_22
REMARK                            x       y       z     vdW  Elec       q    Type
REMARK                         _______ _______ _______ _____ _____    ______ ____
ROOT
ATOM      5  C   UNL     1      48.697  13.902  16.372  0.00  0.00    -0.093 A 
ATOM      6  C   UNL     1      47.300  13.784  16.352  0.00  0.00    +0.132 A 
ATOM      9  C   UNL     1      46.516  14.770  16.919  0.00  0.00    +0.013 A 
ATOM     10  C   UNL     1      47.115  15.884  17.514  0.00  0.00    +0.004 A 
ATOM     22  C   UNL     1      48.506  16.004  17.535  0.00  0.00    +0.015 A 
ATOM     23  C   UNL     1      49.294  15.018  16.974  0.00  0.00    +0.135 A 
ENDROOT
BRANCH  10  11
ATOM     11  C   UNL     1      46.275  16.937  18.120  0.00  0.00    +0.073 A 
ATOM     12  C   UNL     1      46.267  18.238  17.746  0.00  0.00    -0.012 A 
ATOM     13  C   UNL     1      45.293  18.905  18.613  0.00  0.00    -0.139 A 
ATOM     14  C   UNL     1      44.832  20.217  18.730  0.00  0.00    +0.086 A 
ATOM     15  C   UNL     1      43.888  20.525  19.667  0.00  0.00    -0.018 A 
ATOM     16  C   UNL     1      43.384  19.537  20.509  0.00  0.00    +0.138 A 
ATOM     19  C   UNL     1      43.829  18.230  20.407  0.00  0.00    +0.003 A 
ATOM     20  C   UNL     1      44.787  17.900  19.458  0.00  0.00    +0.076 A 
ATOM     21  O   UNL     1      45.397  16.744  19.125  0.00  0.00    -0.186 OA
BRANCH  16  17
ATOM     17  O   UNL     1      42.445  19.858  21.438  0.00  0.00    -0.492 OA
ATOM     18  H   UNL     1      42.748  19.766  22.352  0.00  0.00    +0.396 HD
ENDBRANCH  16  17
ENDBRANCH  10  11
BRANCH   5   4
ATOM      3  C   UNL     1      49.837  12.905  14.474  0.00  0.00    -0.012 C 
ATOM      4  C   UNL     1      49.535  12.851  15.766  0.00  0.00    +0.006 C 
BRANCH   3   2
ATOM      1  C   UNL     1      51.021  12.209  12.409  0.00  0.00    +0.025 C 
ATOM      2  C   UNL     1      50.693  11.830  13.855  0.00  0.00    +0.007 C 
ATOM     26  C   UNL     1      51.992  11.690  14.653  0.00  0.00    +0.027 C 
ENDBRANCH   3   2
ENDBRANCH   5   4
BRANCH   6   7
ATOM      7  O   UNL     1      46.717  12.702  15.774  0.00  0.00    -0.485 OA
ATOM      8  H   UNL     1      47.241  11.892  15.840  0.00  0.00    +0.392 HD
ENDBRANCH   6   7
BRANCH  23  24
ATOM     24  O   UNL     1      50.648  15.132  17.000  0.00  0.00    -0.486 OA
ATOM     25  H   UNL     1      51.114  14.286  16.954  0.00  0.00    +0.394 HD
ENDBRANCH  23  24
TORSDOF 6
ENDMDL
MODEL 8
REMARK VINA RESULT:      -5.3      1.856      2.115
REMARK  Name = ZINC87493012
REMARK  8 active torsions:
REMARK  status: ('A' for Active; 'I' for Inactive)
REMARK    1  A    between atoms: C1_1  and  C2_2
REMARK    2  A    between atoms: C2_2  and  C3_3
REMARK    3  A    between atoms: C2_2  and  C4_4
REMARK    4  A    between atoms: C5_5  and  C6_6
REMARK    5  A    between atoms: C7_7  and  O4_23
REMARK    6  A    between atoms: C9_9  and  C12_13
REMARK    7  A    between atoms: C11_11  and  O1_12
REMARK    8  A    between atoms: C17_18  and  O3_22
REMARK                            x       y       z     vdW  Elec       q    Type
REMARK                         _______ _______ _______ _____ _____    ______ ____
ROOT
ATOM      5  C   UNL     1      47.278  15.094  17.397  0.00  0.00    -0.093 A 
ATOM      6  C   UNL     1      46.599  16.144  16.762  0.00  0.00    +0.132 A 
ATOM      9  C   UNL     1      46.385  17.332  17.432  0.00  0.00    +0.013 A 
ATOM     10  C   UNL     1      46.841  17.489  18.743  0.00  0.00    +0.004 A 
ATOM     22  C   UNL     1      47.517  16.444  19.379  0.00  0.00    +0.015 A 
ATOM     23  C   UNL     1      47.730  15.252  18.714  0.00  0.00    +0.135 A 
ENDROOT
BRANCH  10  11
ATOM     11  C   UNL     1      46.610  18.759  19.458  0.00  0.00    +0.073 A 
ATOM     12  C   UNL     1      47.581  19.608  19.872  0.00  0.00    -0.012 A 
ATOM     13  C   UNL     1      46.894  20.724  20.527  0.00  0.00    -0.139 A 
ATOM     14  C   UNL     1      47.321  21.897  21.151  0.00  0.00    +0.086 A 
ATOM     15  C   UNL     1      46.402  22.759  21.678  0.00  0.00    -0.018 A 
ATOM     16  C   UNL     1      45.041  22.473  21.597  0.00  0.00    +0.138 A 
ATOM     19  C   UNL     1      44.600  21.314  20.982  0.00  0.00    +0.003 A 
ATOM     20  C   UNL     1      45.521  20.428  20.440  0.00  0.00    +0.076 A 
ATOM     21  O   UNL     1      45.400  19.252  19.791  0.00  0.00    -0.186 OA
BRANCH  16  17
ATOM     17  O   UNL     1      44.138  23.340  22.126  0.00  0.00    -0.492 OA
ATOM     18  H   UNL     1      43.423  23.583  21.522  0.00  0.00    +0.396 HD
ENDBRANCH  16  17
ENDBRANCH  10  11
BRANCH   5   4
ATOM      3  C   UNL     1      48.655  13.622  16.044  0.00  0.00    -0.012 C 
ATOM      4  C   UNL     1      47.509  13.825  16.683  0.00  0.00    +0.006 C 
BRANCH   3   2
ATOM      1  C   UNL     1      47.567  11.812  14.744  0.00  0.00    +0.025 C 
ATOM      2  C   UNL     1      48.891  12.325  15.313  0.00  0.00    +0.007 C 
ATOM     26  C   UNL     1      49.882  12.558  14.169  0.00  0.00    +0.027 C 
ENDBRANCH   3   2
ENDBRANCH   5   4
BRANCH   6   7
ATOM      7  O   UNL     1      46.155  15.993  15.487  0.00  0.00    -0.485 OA
ATOM      8  H   UNL     1      46.800  16.249  14.814  0.00  0.00    +0.392 HD
ENDBRANCH   6   7
BRANCH  23  24
ATOM     24  O   UNL     1      48.382  14.234  19.335  0.00  0.00    -0.486 OA
ATOM     25  H   UNL     1      49.160  13.916  18.857  0.00  0.00    +0.394 HD
ENDBRANCH  23  24
TORSDOF 6
ENDMDL
MODEL 9
REMARK VINA RESULT:      -5.3      2.546      8.660
REMARK  Name = ZINC87493012
REMARK  8 active torsions:
REMARK  status: ('A' for Active; 'I' for Inactive)
REMARK    1  A    between atoms: C1_1  and  C2_2
REMARK    2  A    between atoms: C2_2  and  C3_3
REMARK    3  A    between atoms: C2_2  and  C4_4
REMARK    4  A    between atoms: C5_5  and  C6_6
REMARK    5  A    between atoms: C7_7  and  O4_23
REMARK    6  A    between atoms: C9_9  and  C12_13
REMARK    7  A    between atoms: C11_11  and  O1_12
REMARK    8  A    between atoms: C17_18  and  O3_22
REMARK                            x       y       z     vdW  Elec       q    Type
REMARK                         _______ _______ _______ _____ _____    ______ ____
ROOT
ATOM      5  C   UNL     1      45.293  16.991  19.445  0.00  0.00    -0.093 A 
ATOM      6  C   UNL     1      45.855  17.285  18.194  0.00  0.00    +0.132 A 
ATOM      9  C   UNL     1      46.464  16.285  17.461  0.00  0.00    +0.013 A 
ATOM     10  C   UNL     1      46.522  14.983  17.964  0.00  0.00    +0.004 A 
ATOM     22  C   UNL     1      45.963  14.688  19.210  0.00  0.00    +0.015 A 
ATOM     23  C   UNL     1      45.356  15.686  19.950  0.00  0.00    +0.135 A 
ENDROOT
BRANCH  10  11
ATOM     11  C   UNL     1      47.174  13.917  17.179  0.00  0.00    +0.073 A 
ATOM     12  C   UNL     1      46.969  12.589  17.347  0.00  0.00    -0.012 A 
ATOM     13  C   UNL     1      47.817  11.918  16.359  0.00  0.00    -0.139 A 
ATOM     14  C   UNL     1      48.055  10.583  16.028  0.00  0.00    +0.086 A 
ATOM     15  C   UNL     1      48.930  10.277  15.026  0.00  0.00    -0.018 A 
ATOM     16  C   UNL     1      49.588  11.290  14.333  0.00  0.00    +0.138 A 
ATOM     19  C   UNL     1      49.364  12.619  14.648  0.00  0.00    +0.003 A 
ATOM     20  C   UNL     1      48.477  12.948  15.663  0.00  0.00    +0.076 A 
ATOM     21  O   UNL     1      48.059  14.120  16.181  0.00  0.00    -0.186 OA
BRANCH  16  17
ATOM     17  O   UNL     1      50.457  10.971  13.338  0.00  0.00    -0.492 OA
ATOM     18  H   UNL     1      51.044  10.233  13.549  0.00  0.00    +0.396 HD
ENDBRANCH  16  17
ENDBRANCH  10  11
BRANCH   5   4
ATOM      3  C   UNL     1      43.324  18.219  20.162  0.00  0.00    -0.012 C 
ATOM      4  C   UNL     1      44.640  18.057  20.229  0.00  0.00    +0.006 C 
BRANCH   3   2
ATOM      1  C   UNL     1      41.162  19.333  20.644  0.00  0.00    +0.025 C 
ATOM      2  C   UNL     1      42.658  19.309  20.963  0.00  0.00    +0.007 C 
ATOM     26  C   UNL     1      42.858  19.038  22.456  0.00  0.00    +0.027 C 
ENDBRANCH   3   2
ENDBRANCH   5   4
BRANCH   6   7
ATOM      7  O   UNL     1      45.799  18.550  17.704  0.00  0.00    -0.485 OA
ATOM      8  H   UNL     1      46.650  18.891  17.398  0.00  0.00    +0.392 HD
ENDBRANCH   6   7
BRANCH  23  24
ATOM     24  O   UNL     1      44.818  15.400  21.164  0.00  0.00    -0.486 OA
ATOM     25  H   UNL     1      43.873  15.198  21.137  0.00  0.00    +0.394 HD
ENDBRANCH  23  24
TORSDOF 6
ENDMDL
