MODEL 1
REMARK VINA RESULT:      -6.5      0.000      0.000
REMARK  Name = ZINC19366648
REMARK  6 active torsions:
REMARK  status: ('A' for Active; 'I' for Inactive)
REMARK    1  A    between atoms: C1_1  and  C2_2
REMARK    2  A    between atoms: C2_2  and  C3_4
REMARK    3  A    between atoms: C2_2  and  N1_10
REMARK    4  A    between atoms: N2_13  and  C13_16
REMARK    5  A    between atoms: C13_16  and  C14_18
REMARK    6  A    between atoms: C13_16  and  C15_19
REMARK                            x       y       z     vdW  Elec       q    Type
REMARK                         _______ _______ _______ _____ _____    ______ ____
ROOT
ATOM      3  N   UNL     1      48.733  20.668  19.577  0.00  0.00    -0.531 NA
ATOM      4  C   UNL     1      48.293  21.039  20.929  0.00  0.00    +0.182 C 
ATOM      5  C   UNL     1      47.035  21.906  20.834  0.00  0.00    +0.182 C 
ATOM      6  N   UNL     1      45.984  21.161  20.127  0.00  0.00    -0.532 NA
ATOM     15  C   UNL     1      46.423  20.791  18.774  0.00  0.00    +0.181 C 
ATOM     16  C   UNL     1      47.681  19.925  18.870  0.00  0.00    +0.181 C 
ENDROOT
BRANCH   3   2
ATOM      1  C   UNL     1      50.924  20.515  20.658  0.00  0.00    +0.045 C 
ATOM      2  C   UNL     1      49.983  19.898  19.622  0.00  0.00    +0.171 C 
BRANCH   2  17
ATOM     17  C   UNL     1      50.640  19.926  18.266  0.00  0.00    -0.080 A 
ATOM     18  C   UNL     1      50.892  18.744  17.595  0.00  0.00    +0.035 A 
ATOM     19  C   UNL     1      51.495  18.770  16.351  0.00  0.00    -0.004 A 
ATOM     20  C   UNL     1      51.845  19.977  15.778  0.00  0.00    -0.001 A 
ATOM     21  C   UNL     1      51.592  21.159  16.448  0.00  0.00    -0.000 A 
ATOM     22  C   UNL     1      50.985  21.134  17.690  0.00  0.00    +0.002 A 
ENDBRANCH   2  17
ENDBRANCH   3   2
BRANCH   6   7
ATOM      7  C   UNL     1      44.734  21.932  20.082  0.00  0.00    +0.171 C 
ATOM     14  C   UNL     1      44.645  22.834  21.314  0.00  0.00    +0.046 C 
BRANCH   7   8
ATOM      8  C   UNL     1      43.561  20.986  20.067  0.00  0.00    -0.081 A 
ATOM      9  C   UNL     1      42.498  21.218  19.214  0.00  0.00    +0.035 A 
ATOM     10  C   UNL     1      41.421  20.349  19.200  0.00  0.00    -0.004 A 
ATOM     11  C   UNL     1      41.408  19.250  20.036  0.00  0.00    -0.001 A 
ATOM     12  C   UNL     1      42.472  19.017  20.889  0.00  0.00    -0.000 A 
ATOM     13  C   UNL     1      43.550  19.883  20.900  0.00  0.00    +0.002 A 
ENDBRANCH   7   8
ENDBRANCH   6   7
TORSDOF 4
ENDMDL
MODEL 2
REMARK VINA RESULT:      -6.5      0.068      7.585
REMARK  Name = ZINC19366648
REMARK  6 active torsions:
REMARK  status: ('A' for Active; 'I' for Inactive)
REMARK    1  A    between atoms: C1_1  and  C2_2
REMARK    2  A    between atoms: C2_2  and  C3_4
REMARK    3  A    between atoms: C2_2  and  N1_10
REMARK    4  A    between atoms: N2_13  and  C13_16
REMARK    5  A    between atoms: C13_16  and  C14_18
REMARK    6  A    between atoms: C13_16  and  C15_19
REMARK                            x       y       z     vdW  Elec       q    Type
REMARK                         _______ _______ _______ _____ _____    ______ ____
ROOT
ATOM      3  N   UNL     1      45.950  21.164  20.095  0.00  0.00    -0.531 NA
ATOM      4  C   UNL     1      47.008  21.901  20.801  0.00  0.00    +0.182 C 
ATOM      5  C   UNL     1      48.258  21.023  20.900  0.00  0.00    +0.182 C 
ATOM      6  N   UNL     1      48.694  20.644  19.550  0.00  0.00    -0.532 NA
ATOM     15  C   UNL     1      47.637  19.907  18.844  0.00  0.00    +0.181 C 
ATOM     16  C   UNL     1      46.387  20.785  18.745  0.00  0.00    +0.181 C 
ENDROOT
BRANCH   3   2
ATOM      1  C   UNL     1      44.614  22.835  21.288  0.00  0.00    +0.045 C 
ATOM      2  C   UNL     1      44.707  21.946  20.046  0.00  0.00    +0.171 C 
BRANCH   2  17
ATOM     17  C   UNL     1      43.526  21.010  20.008  0.00  0.00    -0.080 A 
ATOM     18  C   UNL     1      43.506  19.889  20.816  0.00  0.00    +0.035 A 
ATOM     19  C   UNL     1      42.423  19.030  20.781  0.00  0.00    -0.004 A 
ATOM     20  C   UNL     1      41.360  19.294  19.939  0.00  0.00    -0.001 A 
ATOM     21  C   UNL     1      41.379  20.415  19.132  0.00  0.00    -0.000 A 
ATOM     22  C   UNL     1      42.460  21.276  19.170  0.00  0.00    +0.002 A 
ENDBRANCH   2  17
ENDBRANCH   3   2
BRANCH   6   7
ATOM      7  C   UNL     1      49.937  19.862  19.599  0.00  0.00    +0.171 C 
ATOM     14  C   UNL     1      50.867  20.448  20.663  0.00  0.00    +0.046 C 
BRANCH   7   8
ATOM      8  C   UNL     1      50.617  19.914  18.255  0.00  0.00    -0.081 A 
ATOM      9  C   UNL     1      50.926  18.740  17.592  0.00  0.00    +0.035 A 
ATOM     10  C   UNL     1      51.550  18.788  16.359  0.00  0.00    -0.004 A 
ATOM     11  C   UNL     1      51.864  20.006  15.789  0.00  0.00    -0.001 A 
ATOM     12  C   UNL     1      51.554  21.180  16.451  0.00  0.00    -0.000 A 
ATOM     13  C   UNL     1      50.926  21.133  17.683  0.00  0.00    +0.002 A 
ENDBRANCH   7   8
ENDBRANCH   6   7
TORSDOF 4
ENDMDL
MODEL 3
REMARK VINA RESULT:      -5.7      2.306      3.582
REMARK  Name = ZINC19366648
REMARK  6 active torsions:
REMARK  status: ('A' for Active; 'I' for Inactive)
REMARK    1  A    between atoms: C1_1  and  C2_2
REMARK    2  A    between atoms: C2_2  and  C3_4
REMARK    3  A    between atoms: C2_2  and  N1_10
REMARK    4  A    between atoms: N2_13  and  C13_16
REMARK    5  A    between atoms: C13_16  and  C14_18
REMARK    6  A    between atoms: C13_16  and  C15_19
REMARK                            x       y       z     vdW  Elec       q    Type
REMARK                         _______ _______ _______ _____ _____    ______ ____
ROOT
ATOM      3  N   UNL     1      49.684  18.423  19.550  0.00  0.00    -0.531 NA
ATOM      4  C   UNL     1      48.491  18.907  18.841  0.00  0.00    +0.182 C 
ATOM      5  C   UNL     1      47.434  17.800  18.809  0.00  0.00    +0.182 C 
ATOM      6  N   UNL     1      47.102  17.405  20.185  0.00  0.00    -0.532 NA
ATOM     15  C   UNL     1      48.295  16.921  20.895  0.00  0.00    +0.181 C 
ATOM     16  C   UNL     1      49.350  18.028  20.925  0.00  0.00    +0.181 C 
ENDROOT
BRANCH   3   2
ATOM      1  C   UNL     1      50.241  20.723  20.179  0.00  0.00    +0.045 C 
ATOM      2  C   UNL     1      50.751  19.433  19.536  0.00  0.00    +0.171 C 
BRANCH   2  17
ATOM     17  C   UNL     1      51.162  19.709  18.112  0.00  0.00    -0.080 A 
ATOM     18  C   UNL     1      51.154  21.004  17.629  0.00  0.00    +0.035 A 
ATOM     19  C   UNL     1      51.531  21.257  16.323  0.00  0.00    -0.004 A 
ATOM     20  C   UNL     1      51.916  20.216  15.501  0.00  0.00    -0.001 A 
ATOM     21  C   UNL     1      51.924  18.921  15.984  0.00  0.00    -0.000 A 
ATOM     22  C   UNL     1      51.552  18.668  17.291  0.00  0.00    +0.002 A 
ENDBRANCH   2  17
ENDBRANCH   3   2
BRANCH   6   7
ATOM      7  C   UNL     1      46.035  16.396  20.199  0.00  0.00    +0.171 C 
ATOM     14  C   UNL     1      45.784  15.898  18.775  0.00  0.00    +0.046 C 
BRANCH   7   8
ATOM      8  C   UNL     1      44.772  17.008  20.748  0.00  0.00    -0.081 A 
ATOM      9  C   UNL     1      44.184  16.478  21.882  0.00  0.00    +0.035 A 
ATOM     10  C   UNL     1      43.024  17.040  22.385  0.00  0.00    -0.004 A 
ATOM     11  C   UNL     1      42.454  18.130  21.756  0.00  0.00    -0.001 A 
ATOM     12  C   UNL     1      43.042  18.660  20.622  0.00  0.00    -0.000 A 
ATOM     13  C   UNL     1      44.204  18.101  20.122  0.00  0.00    +0.002 A 
ENDBRANCH   7   8
ENDBRANCH   6   7
TORSDOF 4
ENDMDL
MODEL 4
REMARK VINA RESULT:      -5.6      1.590      7.807
REMARK  Name = ZINC19366648
REMARK  6 active torsions:
REMARK  status: ('A' for Active; 'I' for Inactive)
REMARK    1  A    between atoms: C1_1  and  C2_2
REMARK    2  A    between atoms: C2_2  and  C3_4
REMARK    3  A    between atoms: C2_2  and  N1_10
REMARK    4  A    between atoms: N2_13  and  C13_16
REMARK    5  A    between atoms: C13_16  and  C14_18
REMARK    6  A    between atoms: C13_16  and  C15_19
REMARK                            x       y       z     vdW  Elec       q    Type
REMARK                         _______ _______ _______ _____ _____    ______ ____
ROOT
ATOM      3  N   UNL     1      45.136  19.796  20.067  0.00  0.00    -0.531 NA
ATOM      4  C   UNL     1      46.241  19.471  20.981  0.00  0.00    +0.182 C 
ATOM      5  C   UNL     1      47.223  18.532  20.277  0.00  0.00    +0.182 C 
ATOM      6  N   UNL     1      47.725  19.179  19.057  0.00  0.00    -0.532 NA
ATOM     15  C   UNL     1      46.621  19.504  18.142  0.00  0.00    +0.181 C 
ATOM     16  C   UNL     1      45.639  20.443  18.848  0.00  0.00    +0.181 C 
ENDROOT
BRANCH   3   2
ATOM      1  C   UNL     1      43.836  20.072  22.124  0.00  0.00    +0.045 C 
ATOM      2  C   UNL     1      44.132  20.636  20.733  0.00  0.00    +0.171 C 
BRANCH   2  17
ATOM     17  C   UNL     1      42.866  20.648  19.916  0.00  0.00    -0.080 A 
ATOM     18  C   UNL     1      42.390  21.837  19.395  0.00  0.00    +0.035 A 
ATOM     19  C   UNL     1      41.228  21.848  18.645  0.00  0.00    -0.004 A 
ATOM     20  C   UNL     1      40.542  20.671  18.417  0.00  0.00    -0.001 A 
ATOM     21  C   UNL     1      41.017  19.482  18.937  0.00  0.00    -0.000 A 
ATOM     22  C   UNL     1      42.182  19.470  19.683  0.00  0.00    +0.002 A 
ENDBRANCH   2  17
ENDBRANCH   3   2
BRANCH   6   7
ATOM      7  C   UNL     1      48.729  18.340  18.391  0.00  0.00    +0.171 C 
ATOM     14  C   UNL     1      48.938  17.056  19.198  0.00  0.00    +0.046 C 
BRANCH   7   8
ATOM      8  C   UNL     1      50.032  19.091  18.299  0.00  0.00    -0.081 A 
ATOM      9  C   UNL     1      50.068  20.446  18.572  0.00  0.00    +0.035 A 
ATOM     10  C   UNL     1      51.264  21.136  18.487  0.00  0.00    -0.004 A 
ATOM     11  C   UNL     1      52.422  20.472  18.131  0.00  0.00    -0.001 A 
ATOM     12  C   UNL     1      52.386  19.117  17.859  0.00  0.00    -0.000 A 
ATOM     13  C   UNL     1      51.192  18.426  17.948  0.00  0.00    +0.002 A 
ENDBRANCH   7   8
ENDBRANCH   6   7
TORSDOF 4
ENDMDL
MODEL 5
REMARK VINA RESULT:      -5.4      5.098      6.682
REMARK  Name = ZINC19366648
REMARK  6 active torsions:
REMARK  status: ('A' for Active; 'I' for Inactive)
REMARK    1  A    between atoms: C1_1  and  C2_2
REMARK    2  A    between atoms: C2_2  and  C3_4
REMARK    3  A    between atoms: C2_2  and  N1_10
REMARK    4  A    between atoms: N2_13  and  C13_16
REMARK    5  A    between atoms: C13_16  and  C14_18
REMARK    6  A    between atoms: C13_16  and  C15_19
REMARK                            x       y       z     vdW  Elec       q    Type
REMARK                         _______ _______ _______ _____ _____    ______ ____
ROOT
ATOM      3  N   UNL     1      50.066  16.941  18.443  0.00  0.00    -0.531 NA
ATOM      4  C   UNL     1      50.058  15.550  18.917  0.00  0.00    +0.182 C 
ATOM      5  C   UNL     1      48.618  15.033  18.951  0.00  0.00    +0.182 C 
ATOM      6  N   UNL     1      48.033  15.133  17.607  0.00  0.00    -0.532 NA
ATOM     15  C   UNL     1      48.041  16.524  17.132  0.00  0.00    +0.181 C 
ATOM     16  C   UNL     1      49.481  17.040  17.099  0.00  0.00    +0.181 C 
ENDROOT
BRANCH   3   2
ATOM      1  C   UNL     1      51.870  17.690  19.920  0.00  0.00    +0.045 C 
ATOM      2  C   UNL     1      51.424  17.499  18.469  0.00  0.00    +0.171 C 
BRANCH   2  17
ATOM     17  C   UNL     1      51.435  18.829  17.761  0.00  0.00    -0.080 A 
ATOM     18  C   UNL     1      50.895  19.944  18.374  0.00  0.00    +0.035 A 
ATOM     19  C   UNL     1      50.904  21.164  17.724  0.00  0.00    -0.004 A 
ATOM     20  C   UNL     1      51.455  21.269  16.461  0.00  0.00    -0.001 A 
ATOM     21  C   UNL     1      51.996  20.156  15.848  0.00  0.00    -0.000 A 
ATOM     22  C   UNL     1      51.990  18.936  16.500  0.00  0.00    +0.002 A 
ENDBRANCH   2  17
ENDBRANCH   3   2
BRANCH   6   7
ATOM      7  C   UNL     1      46.674  14.575  17.581  0.00  0.00    +0.171 C 
ATOM     14  C   UNL     1      46.229  14.250  19.008  0.00  0.00    +0.046 C 
BRANCH   7   8
ATOM      8  C   UNL     1      46.663  13.316  16.752  0.00  0.00    -0.081 A 
ATOM      9  C   UNL     1      45.740  12.322  17.020  0.00  0.00    +0.035 A 
ATOM     10  C   UNL     1      45.729  11.167  16.259  0.00  0.00    -0.004 A 
ATOM     11  C   UNL     1      46.639  11.007  15.232  0.00  0.00    -0.001 A 
ATOM     12  C   UNL     1      47.562  12.002  14.964  0.00  0.00    -0.000 A 
ATOM     13  C   UNL     1      47.569  13.159  15.721  0.00  0.00    +0.002 A 
ENDBRANCH   7   8
ENDBRANCH   6   7
TORSDOF 4
ENDMDL
MODEL 6
REMARK VINA RESULT:      -5.3      1.342      2.522
REMARK  Name = ZINC19366648
REMARK  6 active torsions:
REMARK  status: ('A' for Active; 'I' for Inactive)
REMARK    1  A    between atoms: C1_1  and  C2_2
REMARK    2  A    between atoms: C2_2  and  C3_4
REMARK    3  A    between atoms: C2_2  and  N1_10
REMARK    4  A    between atoms: N2_13  and  C13_16
REMARK    5  A    between atoms: C13_16  and  C14_18
REMARK    6  A    between atoms: C13_16  and  C15_19
REMARK                            x       y       z     vdW  Elec       q    Type
REMARK                         _______ _______ _______ _____ _____    ______ ____
ROOT
ATOM      3  N   UNL     1      49.286  19.104  19.764  0.00  0.00    -0.531 NA
ATOM      4  C   UNL     1      48.410  20.024  19.027  0.00  0.00    +0.182 C 
ATOM      5  C   UNL     1      46.975  19.491  19.055  0.00  0.00    +0.182 C 
ATOM      6  N   UNL     1      46.535  19.353  20.450  0.00  0.00    -0.532 NA
ATOM     15  C   UNL     1      47.411  18.432  21.188  0.00  0.00    +0.181 C 
ATOM     16  C   UNL     1      48.845  18.965  21.159  0.00  0.00    +0.181 C 
ENDROOT
BRANCH   3   2
ATOM      1  C   UNL     1      50.834  20.891  20.401  0.00  0.00    +0.045 C 
ATOM      2  C   UNL     1      50.687  19.542  19.695  0.00  0.00    +0.171 C 
BRANCH   2  17
ATOM     17  C   UNL     1      51.100  19.681  18.253  0.00  0.00    -0.080 A 
ATOM     18  C   UNL     1      51.314  20.935  17.713  0.00  0.00    +0.035 A 
ATOM     19  C   UNL     1      51.693  21.063  16.389  0.00  0.00    -0.004 A 
ATOM     20  C   UNL     1      51.857  19.937  15.606  0.00  0.00    -0.001 A 
ATOM     21  C   UNL     1      51.643  18.683  16.145  0.00  0.00    -0.000 A 
ATOM     22  C   UNL     1      51.268  18.555  17.470  0.00  0.00    +0.002 A 
ENDBRANCH   2  17
ENDBRANCH   3   2
BRANCH   6   7
ATOM      7  C   UNL     1      45.134  18.915  20.518  0.00  0.00    +0.171 C 
ATOM     14  C   UNL     1      44.933  17.703  19.607  0.00  0.00    +0.046 C 
BRANCH   7   8
ATOM      8  C   UNL     1      44.234  20.036  20.069  0.00  0.00    -0.081 A 
ATOM      9  C   UNL     1      44.556  21.345  20.376  0.00  0.00    +0.035 A 
ATOM     10  C   UNL     1      43.730  22.375  19.963  0.00  0.00    -0.004 A 
ATOM     11  C   UNL     1      42.584  22.096  19.243  0.00  0.00    -0.001 A 
ATOM     12  C   UNL     1      42.263  20.787  18.935  0.00  0.00    -0.000 A 
ATOM     13  C   UNL     1      43.091  19.758  19.344  0.00  0.00    +0.002 A 
ENDBRANCH   7   8
ENDBRANCH   6   7
TORSDOF 4
ENDMDL
MODEL 7
REMARK VINA RESULT:      -5.3      4.112      8.584
REMARK  Name = ZINC19366648
REMARK  6 active torsions:
REMARK  status: ('A' for Active; 'I' for Inactive)
REMARK    1  A    between atoms: C1_1  and  C2_2
REMARK    2  A    between atoms: C2_2  and  C3_4
REMARK    3  A    between atoms: C2_2  and  N1_10
REMARK    4  A    between atoms: N2_13  and  C13_16
REMARK    5  A    between atoms: C13_16  and  C14_18
REMARK    6  A    between atoms: C13_16  and  C15_19
REMARK                            x       y       z     vdW  Elec       q    Type
REMARK                         _______ _______ _______ _____ _____    ______ ____
ROOT
ATOM      3  N   UNL     1      45.273  17.546  18.980  0.00  0.00    -0.531 NA
ATOM      4  C   UNL     1      45.725  16.350  19.705  0.00  0.00    +0.182 C 
ATOM      5  C   UNL     1      45.858  15.182  18.725  0.00  0.00    +0.182 C 
ATOM      6  N   UNL     1      46.809  15.543  17.664  0.00  0.00    -0.532 NA
ATOM     15  C   UNL     1      46.357  16.739  16.939  0.00  0.00    +0.181 C 
ATOM     16  C   UNL     1      46.224  17.906  17.920  0.00  0.00    +0.181 C 
ENDROOT
BRANCH   3   2
ATOM      1  C   UNL     1      45.324  18.211  21.336  0.00  0.00    +0.045 C 
ATOM      2  C   UNL     1      45.060  18.670  19.901  0.00  0.00    +0.171 C 
BRANCH   2  17
ATOM     17  C   UNL     1      43.638  19.155  19.782  0.00  0.00    -0.080 A 
ATOM     18  C   UNL     1      42.683  18.727  20.684  0.00  0.00    +0.035 A 
ATOM     19  C   UNL     1      41.379  19.171  20.575  0.00  0.00    -0.004 A 
ATOM     20  C   UNL     1      41.029  20.045  19.563  0.00  0.00    -0.001 A 
ATOM     21  C   UNL     1      41.984  20.474  18.660  0.00  0.00    -0.000 A 
ATOM     22  C   UNL     1      43.290  20.032  18.772  0.00  0.00    +0.002 A 
ENDBRANCH   2  17
ENDBRANCH   3   2
BRANCH   6   7
ATOM      7  C   UNL     1      47.022  14.418  16.743  0.00  0.00    +0.171 C 
ATOM     14  C   UNL     1      46.400  13.151  17.333  0.00  0.00    +0.046 C 
BRANCH   7   8
ATOM      8  C   UNL     1      48.500  14.205  16.543  0.00  0.00    -0.081 A 
ATOM      9  C   UNL     1      49.409  14.935  17.285  0.00  0.00    +0.035 A 
ATOM     10  C   UNL     1      50.766  14.740  17.101  0.00  0.00    -0.004 A 
ATOM     11  C   UNL     1      51.213  13.816  16.177  0.00  0.00    -0.001 A 
ATOM     12  C   UNL     1      50.303  13.085  15.435  0.00  0.00    -0.000 A 
ATOM     13  C   UNL     1      48.947  13.277  15.622  0.00  0.00    +0.002 A 
ENDBRANCH   7   8
ENDBRANCH   6   7
TORSDOF 4
ENDMDL
MODEL 8
REMARK VINA RESULT:      -5.3      2.219      3.387
REMARK  Name = ZINC19366648
REMARK  6 active torsions:
REMARK  status: ('A' for Active; 'I' for Inactive)
REMARK    1  A    between atoms: C1_1  and  C2_2
REMARK    2  A    between atoms: C2_2  and  C3_4
REMARK    3  A    between atoms: C2_2  and  N1_10
REMARK    4  A    between atoms: N2_13  and  C13_16
REMARK    5  A    between atoms: C13_16  and  C14_18
REMARK    6  A    between atoms: C13_16  and  C15_19
REMARK                            x       y       z     vdW  Elec       q    Type
REMARK                         _______ _______ _______ _____ _____    ______ ____
ROOT
ATOM      3  N   UNL     1      47.630  17.457  18.467  0.00  0.00    -0.531 NA
ATOM      4  C   UNL     1      46.374  16.714  18.298  0.00  0.00    +0.182 C 
ATOM      5  C   UNL     1      45.479  16.945  19.519  0.00  0.00    +0.182 C 
ATOM      6  N   UNL     1      45.222  18.384  19.667  0.00  0.00    -0.532 NA
ATOM     15  C   UNL     1      46.479  19.128  19.836  0.00  0.00    +0.181 C 
ATOM     16  C   UNL     1      47.372  18.895  18.615  0.00  0.00    +0.181 C 
ENDROOT
BRANCH   3   2
ATOM      1  C   UNL     1      48.595  15.697  17.064  0.00  0.00    +0.045 C 
ATOM      2  C   UNL     1      48.548  17.199  17.349  0.00  0.00    +0.171 C 
BRANCH   2  17
ATOM     17  C   UNL     1      49.928  17.686  17.709  0.00  0.00    -0.080 A 
ATOM     18  C   UNL     1      50.482  17.352  18.931  0.00  0.00    +0.035 A 
ATOM     19  C   UNL     1      51.748  17.799  19.262  0.00  0.00    -0.004 A 
ATOM     20  C   UNL     1      52.460  18.579  18.371  0.00  0.00    -0.001 A 
ATOM     21  C   UNL     1      51.906  18.913  17.149  0.00  0.00    -0.000 A 
ATOM     22  C   UNL     1      50.642  18.462  16.817  0.00  0.00    +0.002 A 
ENDBRANCH   2  17
ENDBRANCH   3   2
BRANCH   6   7
ATOM      7  C   UNL     1      44.304  18.642  20.785  0.00  0.00    +0.171 C 
ATOM     14  C   UNL     1      43.972  17.324  21.487  0.00  0.00    +0.046 C 
BRANCH   7   8
ATOM      8  C   UNL     1      43.036  19.264  20.261  0.00  0.00    -0.081 A 
ATOM      9  C   UNL     1      41.833  19.022  20.898  0.00  0.00    +0.035 A 
ATOM     10  C   UNL     1      40.669  19.593  20.417  0.00  0.00    -0.004 A 
ATOM     11  C   UNL     1      40.708  20.406  19.301  0.00  0.00    -0.001 A 
ATOM     12  C   UNL     1      41.911  20.650  18.664  0.00  0.00    -0.000 A 
ATOM     13  C   UNL     1      43.075  20.082  19.147  0.00  0.00    +0.002 A 
ENDBRANCH   7   8
ENDBRANCH   6   7
TORSDOF 4
ENDMDL
MODEL 9
REMARK VINA RESULT:      -5.1      4.015      5.053
REMARK  Name = ZINC19366648
REMARK  6 active torsions:
REMARK  status: ('A' for Active; 'I' for Inactive)
REMARK    1  A    between atoms: C1_1  and  C2_2
REMARK    2  A    between atoms: C2_2  and  C3_4
REMARK    3  A    between atoms: C2_2  and  N1_10
REMARK    4  A    between atoms: N2_13  and  C13_16
REMARK    5  A    between atoms: C13_16  and  C14_18
REMARK    6  A    between atoms: C13_16  and  C15_19
REMARK                            x       y       z     vdW  Elec       q    Type
REMARK                         _______ _______ _______ _____ _____    ______ ____
ROOT
ATOM      3  N   UNL     1      46.781  15.644  17.913  0.00  0.00    -0.531 NA
ATOM      4  C   UNL     1      45.750  15.301  18.903  0.00  0.00    +0.182 C 
ATOM      5  C   UNL     1      45.563  16.473  19.868  0.00  0.00    +0.182 C 
ATOM      6  N   UNL     1      45.183  17.673  19.109  0.00  0.00    -0.532 NA
ATOM     15  C   UNL     1      46.213  18.016  18.119  0.00  0.00    +0.181 C 
ATOM     16  C   UNL     1      46.400  16.843  17.154  0.00  0.00    +0.181 C 
ENDROOT
BRANCH   3   2
ATOM      1  C   UNL     1      46.338  13.264  17.544  0.00  0.00    +0.045 C 
ATOM      2  C   UNL     1      47.044  14.513  17.013  0.00  0.00    +0.171 C 
BRANCH   2  17
ATOM     17  C   UNL     1      48.528  14.261  16.943  0.00  0.00    -0.080 A 
ATOM     18  C   UNL     1      49.049  13.474  15.933  0.00  0.00    +0.035 A 
ATOM     19  C   UNL     1      50.410  13.242  15.869  0.00  0.00    -0.004 A 
ATOM     20  C   UNL     1      51.251  13.797  16.815  0.00  0.00    -0.001 A 
ATOM     21  C   UNL     1      50.730  14.585  17.825  0.00  0.00    -0.000 A 
ATOM     22  C   UNL     1      49.369  14.820  17.886  0.00  0.00    +0.002 A 
ENDBRANCH   2  17
ENDBRANCH   3   2
BRANCH   6   7
ATOM      7  C   UNL     1      44.920  18.803  20.009  0.00  0.00    +0.171 C 
ATOM     14  C   UNL     1      45.138  18.364  21.458  0.00  0.00    +0.046 C 
BRANCH   7   8
ATOM      8  C   UNL     1      43.496  19.265  19.834  0.00  0.00    -0.081 A 
ATOM      9  C   UNL     1      42.508  18.790  20.676  0.00  0.00    +0.035 A 
ATOM     10  C   UNL     1      41.201  19.214  20.515  0.00  0.00    -0.004 A 
ATOM     11  C   UNL     1      40.883  20.112  19.514  0.00  0.00    -0.001 A 
ATOM     12  C   UNL     1      41.872  20.587  18.673  0.00  0.00    -0.000 A 
ATOM     13  C   UNL     1      43.179  20.167  18.837  0.00  0.00    +0.002 A 
ENDBRANCH   7   8
ENDBRANCH   6   7
TORSDOF 4
ENDMDL
