MODEL 1
REMARK VINA RESULT:      -4.3      0.000      0.000
REMARK  Name = ZINC95485926
REMARK  34 active torsions:
REMARK  status: ('A' for Active; 'I' for Inactive)
REMARK    1  A    between atoms: C1_1  and  C2_2
REMARK    2  A    between atoms: C2_2  and  C3_3
REMARK    3  A    between atoms: C3_3  and  C4_4
REMARK    4  A    between atoms: C4_4  and  C5_5
REMARK    5  A    between atoms: C5_5  and  C6_6
REMARK    6  A    between atoms: C6_6  and  C7_7
REMARK    7  A    between atoms: C7_7  and  C8_8
REMARK    8  A    between atoms: C8_8  and  C9_9
REMARK    9  A    between atoms: C9_9  and  C10_10
REMARK   10  A    between atoms: C10_10  and  C11_11
REMARK   11  A    between atoms: C11_11  and  C12_12
REMARK   12  A    between atoms: C12_12  and  C13_13
REMARK   13  A    between atoms: C13_13  and  C14_14
REMARK   14  A    between atoms: C14_14  and  C15_15
REMARK   15  A    between atoms: C15_15  and  C16_16
REMARK   16  A    between atoms: C16_16  and  C17_17
REMARK   17  A    between atoms: C17_17  and  C18_18
REMARK   18  A    between atoms: C18_18  and  C19_19
REMARK   19  A    between atoms: C19_19  and  C20_20
REMARK   20  A    between atoms: C20_20  and  C21_21
REMARK   21  A    between atoms: C21_21  and  C22_22
REMARK   22  A    between atoms: C22_22  and  C23_23
REMARK   23  A    between atoms: C23_23  and  C24_24
REMARK   24  A    between atoms: C24_24  and  C25_25
REMARK   25  A    between atoms: C25_25  and  C26_26
REMARK   26  A    between atoms: C26_26  and  C27_27
REMARK   27  A    between atoms: C27_27  and  C28_28
REMARK   28  A    between atoms: C28_28  and  O1_29
REMARK   29  A    between atoms: O1_29  and  C29_30
REMARK   30  A    between atoms: C29_30  and  C30_32
REMARK   31  A    between atoms: C31_33  and  C32_34
REMARK   32  A    between atoms: C35_37  and  O4_42
REMARK   33  A    between atoms: C36_38  and  O3_40
REMARK   34  A    between atoms: O3_40  and  C38_41
REMARK                            x       y       z     vdW  Elec       q    Type
REMARK                         _______ _______ _______ _____ _____    ______ ____
ROOT
ATOM     22  C   UNL     1      45.805  21.087  18.928  0.00  0.00    +0.000 C 
ENDROOT
BRANCH  22  23
ATOM     23  C   UNL     1      47.285  20.784  19.179  0.00  0.00    +0.001 C 
BRANCH  23  24
ATOM     24  C   UNL     1      47.616  21.048  20.648  0.00  0.00    +0.002 C 
BRANCH  24  25
ATOM     25  C   UNL     1      49.064  20.637  20.925  0.00  0.00    +0.008 C 
BRANCH  25  26
ATOM     26  C   UNL     1      49.094  19.201  21.454  0.00  0.00    +0.014 C 
BRANCH  26  27
ATOM     27  C   UNL     1      50.467  18.584  21.175  0.00  0.00    +0.030 C 
BRANCH  27  28
ATOM     28  C   UNL     1      50.645  17.329  22.033  0.00  0.00    +0.202 C 
BRANCH  28  29
ATOM     29  O   UNL     1      49.534  16.454  21.832  0.00  0.00    -0.350 OA
BRANCH  29  30
ATOM     30  C   UNL     1      49.754  15.343  21.099  0.00  0.00    +0.501 C 
ATOM     43  O   UNL     1      50.866  14.852  21.058  0.00  0.00    -0.514 OA
BRANCH  30  31
ATOM     31  C   UNL     1      48.689  14.746  20.378  0.00  0.00    -0.060 C 
ATOM     32  C   UNL     1      48.915  14.214  19.157  0.00  0.00    +0.150 C 
BRANCH  32  33
ATOM     33  C   UNL     1      47.811  13.595  18.410  0.00  0.00    -0.057 A 
ATOM     34  C   UNL     1      46.543  13.485  18.993  0.00  0.00    +0.025 A 
ATOM     35  C   UNL     1      45.510  12.905  18.291  0.00  0.00    +0.033 A 
ATOM     36  C   UNL     1      45.723  12.428  17.004  0.00  0.00    +0.095 A 
ATOM     39  C   UNL     1      46.982  12.534  16.415  0.00  0.00    +0.100 A 
ATOM     42  C   UNL     1      48.023  13.119  17.110  0.00  0.00    -0.026 A 
BRANCH  36  37
ATOM     37  O   UNL     1      44.701  11.857  16.316  0.00  0.00    -0.485 OA
ATOM     38  H   UNL     1      44.802  10.905  16.176  0.00  0.00    +0.392 HD
ENDBRANCH  36  37
BRANCH  39  40
ATOM     40  O   UNL     1      47.186  12.065  15.155  0.00  0.00    -0.306 OA
ATOM     41  C   UNL     1      48.348  12.534  14.468  0.00  0.00    +0.242 C 
ENDBRANCH  39  40
ENDBRANCH  32  33
ENDBRANCH  30  31
ENDBRANCH  29  30
ENDBRANCH  28  29
ENDBRANCH  27  28
ENDBRANCH  26  27
ENDBRANCH  25  26
ENDBRANCH  24  25
ENDBRANCH  23  24
ENDBRANCH  22  23
BRANCH  22  21
ATOM     21  C   UNL     1      45.242  21.884  20.107  0.00  0.00    +0.000 C 
BRANCH  21  20
ATOM     20  C   UNL     1      43.855  22.419  19.744  0.00  0.00    +0.000 C 
BRANCH  20  19
ATOM     19  C   UNL     1      43.007  21.285  19.164  0.00  0.00    +0.000 C 
BRANCH  19  18
ATOM     18  C   UNL     1      41.580  21.786  18.925  0.00  0.00    +0.000 C 
BRANCH  18  17
ATOM     17  C   UNL     1      40.586  20.674  19.261  0.00  0.00    +0.000 C 
BRANCH  17  16
ATOM     16  C   UNL     1      41.350  19.411  19.664  0.00  0.00    +0.000 C 
BRANCH  16  15
ATOM     15  C   UNL     1      40.944  18.999  21.080  0.00  0.00    +0.000 C 
BRANCH  15  14
ATOM     14  C   UNL     1      42.196  18.858  21.949  0.00  0.00    +0.000 C 
BRANCH  14  13
ATOM     13  C   UNL     1      43.373  18.413  21.079  0.00  0.00    +0.000 C 
BRANCH  13  12
ATOM     12  C   UNL     1      44.685  18.685  21.818  0.00  0.00    +0.000 C 
BRANCH  12  11
ATOM     11  C   UNL     1      45.768  17.739  21.300  0.00  0.00    +0.000 C 
BRANCH  11  10
ATOM     10  C   UNL     1      45.526  17.449  19.817  0.00  0.00    +0.000 C 
BRANCH  10   9
ATOM      9  C   UNL     1      46.870  17.265  19.108  0.00  0.00    +0.000 C 
BRANCH   9   8
ATOM      8  C   UNL     1      46.630  17.021  17.616  0.00  0.00    +0.000 C 
BRANCH   8   7
ATOM      7  C   UNL     1      47.941  17.217  16.851  0.00  0.00    +0.000 C 
BRANCH   7   6
ATOM      6  C   UNL     1      49.014  17.743  17.806  0.00  0.00    +0.000 C 
BRANCH   6   5
ATOM      5  C   UNL     1      50.395  17.323  17.301  0.00  0.00    +0.000 C 
BRANCH   5   4
ATOM      4  C   UNL     1      51.281  18.562  17.149  0.00  0.00    -0.000 C 
BRANCH   4   3
ATOM      3  C   UNL     1      50.641  19.740  17.886  0.00  0.00    -0.000 C 
BRANCH   3   2
ATOM      1  C   UNL     1      52.107  20.750  16.132  0.00  0.00    +0.006 C 
ATOM      2  C   UNL     1      51.126  21.053  17.267  0.00  0.00    -0.006 C 
ENDBRANCH   3   2
ENDBRANCH   4   3
ENDBRANCH   5   4
ENDBRANCH   6   5
ENDBRANCH   7   6
ENDBRANCH   8   7
ENDBRANCH   9   8
ENDBRANCH  10   9
ENDBRANCH  11  10
ENDBRANCH  12  11
ENDBRANCH  13  12
ENDBRANCH  14  13
ENDBRANCH  15  14
ENDBRANCH  16  15
ENDBRANCH  17  16
ENDBRANCH  18  17
ENDBRANCH  19  18
ENDBRANCH  20  19
ENDBRANCH  21  20
ENDBRANCH  22  21
TORSDOF 32
ENDMDL
MODEL 2
REMARK VINA RESULT:      -4.3      2.653      6.901
REMARK  Name = ZINC95485926
REMARK  34 active torsions:
REMARK  status: ('A' for Active; 'I' for Inactive)
REMARK    1  A    between atoms: C1_1  and  C2_2
REMARK    2  A    between atoms: C2_2  and  C3_3
REMARK    3  A    between atoms: C3_3  and  C4_4
REMARK    4  A    between atoms: C4_4  and  C5_5
REMARK    5  A    between atoms: C5_5  and  C6_6
REMARK    6  A    between atoms: C6_6  and  C7_7
REMARK    7  A    between atoms: C7_7  and  C8_8
REMARK    8  A    between atoms: C8_8  and  C9_9
REMARK    9  A    between atoms: C9_9  and  C10_10
REMARK   10  A    between atoms: C10_10  and  C11_11
REMARK   11  A    between atoms: C11_11  and  C12_12
REMARK   12  A    between atoms: C12_12  and  C13_13
REMARK   13  A    between atoms: C13_13  and  C14_14
REMARK   14  A    between atoms: C14_14  and  C15_15
REMARK   15  A    between atoms: C15_15  and  C16_16
REMARK   16  A    between atoms: C16_16  and  C17_17
REMARK   17  A    between atoms: C17_17  and  C18_18
REMARK   18  A    between atoms: C18_18  and  C19_19
REMARK   19  A    between atoms: C19_19  and  C20_20
REMARK   20  A    between atoms: C20_20  and  C21_21
REMARK   21  A    between atoms: C21_21  and  C22_22
REMARK   22  A    between atoms: C22_22  and  C23_23
REMARK   23  A    between atoms: C23_23  and  C24_24
REMARK   24  A    between atoms: C24_24  and  C25_25
REMARK   25  A    between atoms: C25_25  and  C26_26
REMARK   26  A    between atoms: C26_26  and  C27_27
REMARK   27  A    between atoms: C27_27  and  C28_28
REMARK   28  A    between atoms: C28_28  and  O1_29
REMARK   29  A    between atoms: O1_29  and  C29_30
REMARK   30  A    between atoms: C29_30  and  C30_32
REMARK   31  A    between atoms: C31_33  and  C32_34
REMARK   32  A    between atoms: C35_37  and  O4_42
REMARK   33  A    between atoms: C36_38  and  O3_40
REMARK   34  A    between atoms: O3_40  and  C38_41
REMARK                            x       y       z     vdW  Elec       q    Type
REMARK                         _______ _______ _______ _____ _____    ______ ____
ROOT
ATOM     22  C   UNL     1      51.768  17.534  16.962  0.00  0.00    +0.000 C 
ENDROOT
BRANCH  22  23
ATOM     23  C   UNL     1      51.219  18.684  16.114  0.00  0.00    +0.001 C 
BRANCH  23  24
ATOM     24  C   UNL     1      52.205  19.853  16.143  0.00  0.00    +0.002 C 
BRANCH  24  25
ATOM     25  C   UNL     1      51.445  21.153  16.416  0.00  0.00    +0.008 C 
BRANCH  25  26
ATOM     26  C   UNL     1      50.893  21.130  17.843  0.00  0.00    +0.014 C 
BRANCH  26  27
ATOM     27  C   UNL     1      52.050  21.007  18.836  0.00  0.00    +0.030 C 
BRANCH  27  28
ATOM     28  C   UNL     1      51.493  20.802  20.246  0.00  0.00    +0.202 C 
BRANCH  28  29
ATOM     29  O   UNL     1      50.634  19.660  20.257  0.00  0.00    -0.350 OA
BRANCH  29  30
ATOM     30  C   UNL     1      49.511  19.746  21.000  0.00  0.00    +0.501 C 
ATOM     43  O   UNL     1      49.479  19.258  22.114  0.00  0.00    -0.514 OA
BRANCH  30  31
ATOM     31  C   UNL     1      48.367  20.404  20.482  0.00  0.00    -0.060 C 
ATOM     32  C   UNL     1      47.441  20.912  21.324  0.00  0.00    +0.150 C 
BRANCH  32  33
ATOM     33  C   UNL     1      46.255  21.594  20.787  0.00  0.00    -0.057 A 
ATOM     34  C   UNL     1      46.114  22.979  20.937  0.00  0.00    +0.025 A 
ATOM     35  C   UNL     1      45.002  23.616  20.433  0.00  0.00    +0.033 A 
ATOM     36  C   UNL     1      44.018  22.888  19.776  0.00  0.00    +0.095 A 
ATOM     39  C   UNL     1      44.151  21.509  19.622  0.00  0.00    +0.100 A 
ATOM     42  C   UNL     1      45.266  20.862  20.119  0.00  0.00    -0.026 A 
BRANCH  36  37
ATOM     37  O   UNL     1      42.924  23.522  19.281  0.00  0.00    -0.485 OA
ATOM     38  H   UNL     1      42.498  23.058  18.548  0.00  0.00    +0.392 HD
ENDBRANCH  36  37
BRANCH  39  40
ATOM     40  O   UNL     1      43.186  20.801  18.978  0.00  0.00    -0.306 OA
ATOM     41  C   UNL     1      42.472  19.830  19.746  0.00  0.00    +0.242 C 
ENDBRANCH  39  40
ENDBRANCH  32  33
ENDBRANCH  30  31
ENDBRANCH  29  30
ENDBRANCH  28  29
ENDBRANCH  27  28
ENDBRANCH  26  27
ENDBRANCH  25  26
ENDBRANCH  24  25
ENDBRANCH  23  24
ENDBRANCH  22  23
BRANCH  22  21
ATOM     21  C   UNL     1      50.762  17.186  18.061  0.00  0.00    +0.000 C 
BRANCH  21  20
ATOM     20  C   UNL     1      49.369  17.666  17.647  0.00  0.00    +0.000 C 
BRANCH  20  19
ATOM     19  C   UNL     1      48.311  16.949  18.489  0.00  0.00    +0.000 C 
BRANCH  19  18
ATOM     18  C   UNL     1      47.190  16.445  17.577  0.00  0.00    +0.000 C 
BRANCH  18  17
ATOM     17  C   UNL     1      45.855  17.030  18.039  0.00  0.00    +0.000 C 
BRANCH  17  16
ATOM     16  C   UNL     1      45.976  17.492  19.492  0.00  0.00    +0.000 C 
BRANCH  16  15
ATOM     15  C   UNL     1      44.781  16.972  20.294  0.00  0.00    +0.000 C 
BRANCH  15  14
ATOM     14  C   UNL     1      45.280  16.087  21.438  0.00  0.00    +0.000 C 
BRANCH  14  13
ATOM     13  C   UNL     1      45.297  14.626  20.984  0.00  0.00    +0.000 C 
BRANCH  13  12
ATOM     12  C   UNL     1      46.743  14.174  20.773  0.00  0.00    +0.000 C 
BRANCH  12  11
ATOM     11  C   UNL     1      46.816  13.249  19.557  0.00  0.00    +0.000 C 
BRANCH  11  10
ATOM     10  C   UNL     1      45.499  13.320  18.781  0.00  0.00    +0.000 C 
BRANCH  10   9
ATOM      9  C   UNL     1      45.729  12.849  17.344  0.00  0.00    +0.000 C 
BRANCH   9   8
ATOM      8  C   UNL     1      47.227  12.642  17.108  0.00  0.00    +0.000 C 
BRANCH   8   7
ATOM      7  C   UNL     1      47.486  12.460  15.611  0.00  0.00    +0.000 C 
BRANCH   7   6
ATOM      6  C   UNL     1      48.914  12.901  15.284  0.00  0.00    +0.000 C 
BRANCH   6   5
ATOM      5  C   UNL     1      49.385  13.916  16.326  0.00  0.00    +0.000 C 
BRANCH   5   4
ATOM      4  C   UNL     1      50.915  13.932  16.367  0.00  0.00    -0.000 C 
BRANCH   4   3
ATOM      3  C   UNL     1      51.395  13.362  17.704  0.00  0.00    -0.000 C 
BRANCH   3   2
ATOM      1  C   UNL     1      51.018  14.079  20.068  0.00  0.00    +0.006 C 
ATOM      2  C   UNL     1      50.336  13.620  18.778  0.00  0.00    -0.006 C 
ENDBRANCH   3   2
ENDBRANCH   4   3
ENDBRANCH   5   4
ENDBRANCH   6   5
ENDBRANCH   7   6
ENDBRANCH   8   7
ENDBRANCH   9   8
ENDBRANCH  10   9
ENDBRANCH  11  10
ENDBRANCH  12  11
ENDBRANCH  13  12
ENDBRANCH  14  13
ENDBRANCH  15  14
ENDBRANCH  16  15
ENDBRANCH  17  16
ENDBRANCH  18  17
ENDBRANCH  19  18
ENDBRANCH  20  19
ENDBRANCH  21  20
ENDBRANCH  22  21
TORSDOF 32
ENDMDL
MODEL 3
REMARK VINA RESULT:      -4.2      1.607      5.671
REMARK  Name = ZINC95485926
REMARK  34 active torsions:
REMARK  status: ('A' for Active; 'I' for Inactive)
REMARK    1  A    between atoms: C1_1  and  C2_2
REMARK    2  A    between atoms: C2_2  and  C3_3
REMARK    3  A    between atoms: C3_3  and  C4_4
REMARK    4  A    between atoms: C4_4  and  C5_5
REMARK    5  A    between atoms: C5_5  and  C6_6
REMARK    6  A    between atoms: C6_6  and  C7_7
REMARK    7  A    between atoms: C7_7  and  C8_8
REMARK    8  A    between atoms: C8_8  and  C9_9
REMARK    9  A    between atoms: C9_9  and  C10_10
REMARK   10  A    between atoms: C10_10  and  C11_11
REMARK   11  A    between atoms: C11_11  and  C12_12
REMARK   12  A    between atoms: C12_12  and  C13_13
REMARK   13  A    between atoms: C13_13  and  C14_14
REMARK   14  A    between atoms: C14_14  and  C15_15
REMARK   15  A    between atoms: C15_15  and  C16_16
REMARK   16  A    between atoms: C16_16  and  C17_17
REMARK   17  A    between atoms: C17_17  and  C18_18
REMARK   18  A    between atoms: C18_18  and  C19_19
REMARK   19  A    between atoms: C19_19  and  C20_20
REMARK   20  A    between atoms: C20_20  and  C21_21
REMARK   21  A    between atoms: C21_21  and  C22_22
REMARK   22  A    between atoms: C22_22  and  C23_23
REMARK   23  A    between atoms: C23_23  and  C24_24
REMARK   24  A    between atoms: C24_24  and  C25_25
REMARK   25  A    between atoms: C25_25  and  C26_26
REMARK   26  A    between atoms: C26_26  and  C27_27
REMARK   27  A    between atoms: C27_27  and  C28_28
REMARK   28  A    between atoms: C28_28  and  O1_29
REMARK   29  A    between atoms: O1_29  and  C29_30
REMARK   30  A    between atoms: C29_30  and  C30_32
REMARK   31  A    between atoms: C31_33  and  C32_34
REMARK   32  A    between atoms: C35_37  and  O4_42
REMARK   33  A    between atoms: C36_38  and  O3_40
REMARK   34  A    between atoms: O3_40  and  C38_41
REMARK                            x       y       z     vdW  Elec       q    Type
REMARK                         _______ _______ _______ _____ _____    ______ ____
ROOT
ATOM     22  C   UNL     1      51.232  18.703  15.782  0.00  0.00    +0.000 C 
ENDROOT
BRANCH  22  23
ATOM     23  C   UNL     1      51.255  17.678  16.919  0.00  0.00    +0.001 C 
BRANCH  23  24
ATOM     24  C   UNL     1      49.825  17.400  17.382  0.00  0.00    +0.002 C 
BRANCH  24  25
ATOM     25  C   UNL     1      49.793  17.310  18.910  0.00  0.00    +0.008 C 
BRANCH  25  26
ATOM     26  C   UNL     1      51.212  17.466  19.459  0.00  0.00    +0.014 C 
BRANCH  26  27
ATOM     27  C   UNL     1      51.181  17.371  20.987  0.00  0.00    +0.030 C 
BRANCH  27  28
ATOM     28  C   UNL     1      51.189  15.899  21.406  0.00  0.00    +0.202 C 
BRANCH  28  29
ATOM     29  O   UNL     1      52.294  15.235  20.790  0.00  0.00    -0.350 OA
BRANCH  29  30
ATOM     30  C   UNL     1      52.060  14.014  20.265  0.00  0.00    +0.501 C 
ATOM     43  O   UNL     1      52.722  13.060  20.627  0.00  0.00    -0.514 OA
BRANCH  30  31
ATOM     31  C   UNL     1      51.042  13.844  19.293  0.00  0.00    -0.060 C 
ATOM     32  C   UNL     1      51.366  13.752  17.985  0.00  0.00    +0.150 C 
BRANCH  32  33
ATOM     33  C   UNL     1      50.310  13.575  16.977  0.00  0.00    -0.057 A 
ATOM     34  C   UNL     1      50.629  13.086  15.705  0.00  0.00    +0.025 A 
ATOM     35  C   UNL     1      49.639  12.922  14.762  0.00  0.00    +0.033 A 
ATOM     36  C   UNL     1      48.322  13.239  15.071  0.00  0.00    +0.095 A 
ATOM     39  C   UNL     1      47.995  13.725  16.336  0.00  0.00    +0.100 A 
ATOM     42  C   UNL     1      48.982  13.888  17.289  0.00  0.00    -0.026 A 
BRANCH  36  37
ATOM     37  O   UNL     1      47.350  13.075  14.138  0.00  0.00    -0.485 OA
ATOM     38  H   UNL     1      47.681  12.992  13.233  0.00  0.00    +0.392 HD
ENDBRANCH  36  37
BRANCH  39  40
ATOM     40  O   UNL     1      46.706  14.034  16.634  0.00  0.00    -0.306 OA
ATOM     41  C   UNL     1      46.006  13.137  17.499  0.00  0.00    +0.242 C 
ENDBRANCH  39  40
ENDBRANCH  32  33
ENDBRANCH  30  31
ENDBRANCH  29  30
ENDBRANCH  28  29
ENDBRANCH  27  28
ENDBRANCH  26  27
ENDBRANCH  25  26
ENDBRANCH  24  25
ENDBRANCH  23  24
ENDBRANCH  22  23
BRANCH  22  21
ATOM     21  C   UNL     1      52.223  19.827  16.089  0.00  0.00    +0.000 C 
BRANCH  21  20
ATOM     20  C   UNL     1      51.620  20.765  17.138  0.00  0.00    +0.000 C 
BRANCH  20  19
ATOM     19  C   UNL     1      52.524  20.798  18.372  0.00  0.00    +0.000 C 
BRANCH  19  18
ATOM     18  C   UNL     1      51.723  21.296  19.577  0.00  0.00    +0.000 C 
BRANCH  18  17
ATOM     17  C   UNL     1      50.251  20.922  19.401  0.00  0.00    +0.000 C 
BRANCH  17  16
ATOM     16  C   UNL     1      49.603  20.740  20.775  0.00  0.00    +0.000 C 
BRANCH  16  15
ATOM     15  C   UNL     1      48.154  20.282  20.599  0.00  0.00    +0.000 C 
BRANCH  15  14
ATOM     14  C   UNL     1      47.888  19.071  21.495  0.00  0.00    +0.000 C 
BRANCH  14  13
ATOM     13  C   UNL     1      46.419  19.064  21.922  0.00  0.00    +0.000 C 
BRANCH  13  12
ATOM     12  C   UNL     1      45.800  17.704  21.598  0.00  0.00    +0.000 C 
BRANCH  12  11
ATOM     11  C   UNL     1      46.905  16.716  21.222  0.00  0.00    +0.000 C 
BRANCH  11  10
ATOM     10  C   UNL     1      46.477  15.915  19.991  0.00  0.00    +0.000 C 
BRANCH  10   9
ATOM      9  C   UNL     1      45.478  16.734  19.171  0.00  0.00    +0.000 C 
BRANCH   9   8
ATOM      8  C   UNL     1      46.180  17.306  17.936  0.00  0.00    +0.000 C 
BRANCH   8   7
ATOM      7  C   UNL     1      46.073  18.832  17.951  0.00  0.00    +0.000 C 
BRANCH   7   6
ATOM      6  C   UNL     1      44.665  19.240  18.389  0.00  0.00    +0.000 C 
BRANCH   6   5
ATOM      5  C   UNL     1      44.727  20.583  19.119  0.00  0.00    +0.000 C 
BRANCH   5   4
ATOM      4  C   UNL     1      43.317  20.997  19.546  0.00  0.00    -0.000 C 
BRANCH   4   3
ATOM      3  C   UNL     1      42.310  19.954  19.058  0.00  0.00    -0.000 C 
BRANCH   3   2
ATOM      1  C   UNL     1      42.246  18.720  21.231  0.00  0.00    +0.006 C 
ATOM      2  C   UNL     1      41.418  19.523  20.225  0.00  0.00    -0.006 C 
ENDBRANCH   3   2
ENDBRANCH   4   3
ENDBRANCH   5   4
ENDBRANCH   6   5
ENDBRANCH   7   6
ENDBRANCH   8   7
ENDBRANCH   9   8
ENDBRANCH  10   9
ENDBRANCH  11  10
ENDBRANCH  12  11
ENDBRANCH  13  12
ENDBRANCH  14  13
ENDBRANCH  15  14
ENDBRANCH  16  15
ENDBRANCH  17  16
ENDBRANCH  18  17
ENDBRANCH  19  18
ENDBRANCH  20  19
ENDBRANCH  21  20
ENDBRANCH  22  21
TORSDOF 32
ENDMDL
MODEL 4
REMARK VINA RESULT:      -4.2      2.984      7.185
REMARK  Name = ZINC95485926
REMARK  34 active torsions:
REMARK  status: ('A' for Active; 'I' for Inactive)
REMARK    1  A    between atoms: C1_1  and  C2_2
REMARK    2  A    between atoms: C2_2  and  C3_3
REMARK    3  A    between atoms: C3_3  and  C4_4
REMARK    4  A    between atoms: C4_4  and  C5_5
REMARK    5  A    between atoms: C5_5  and  C6_6
REMARK    6  A    between atoms: C6_6  and  C7_7
REMARK    7  A    between atoms: C7_7  and  C8_8
REMARK    8  A    between atoms: C8_8  and  C9_9
REMARK    9  A    between atoms: C9_9  and  C10_10
REMARK   10  A    between atoms: C10_10  and  C11_11
REMARK   11  A    between atoms: C11_11  and  C12_12
REMARK   12  A    between atoms: C12_12  and  C13_13
REMARK   13  A    between atoms: C13_13  and  C14_14
REMARK   14  A    between atoms: C14_14  and  C15_15
REMARK   15  A    between atoms: C15_15  and  C16_16
REMARK   16  A    between atoms: C16_16  and  C17_17
REMARK   17  A    between atoms: C17_17  and  C18_18
REMARK   18  A    between atoms: C18_18  and  C19_19
REMARK   19  A    between atoms: C19_19  and  C20_20
REMARK   20  A    between atoms: C20_20  and  C21_21
REMARK   21  A    between atoms: C21_21  and  C22_22
REMARK   22  A    between atoms: C22_22  and  C23_23
REMARK   23  A    between atoms: C23_23  and  C24_24
REMARK   24  A    between atoms: C24_24  and  C25_25
REMARK   25  A    between atoms: C25_25  and  C26_26
REMARK   26  A    between atoms: C26_26  and  C27_27
REMARK   27  A    between atoms: C27_27  and  C28_28
REMARK   28  A    between atoms: C28_28  and  O1_29
REMARK   29  A    between atoms: O1_29  and  C29_30
REMARK   30  A    between atoms: C29_30  and  C30_32
REMARK   31  A    between atoms: C31_33  and  C32_34
REMARK   32  A    between atoms: C35_37  and  O4_42
REMARK   33  A    between atoms: C36_38  and  O3_40
REMARK   34  A    between atoms: O3_40  and  C38_41
REMARK                            x       y       z     vdW  Elec       q    Type
REMARK                         _______ _______ _______ _____ _____    ______ ____
ROOT
ATOM     22  C   UNL     1      46.817  17.494  17.510  0.00  0.00    +0.000 C 
ENDROOT
BRANCH  22  23
ATOM     23  C   UNL     1      48.165  17.161  18.156  0.00  0.00    +0.001 C 
BRANCH  23  24
ATOM     24  C   UNL     1      49.292  17.475  17.172  0.00  0.00    +0.002 C 
BRANCH  24  25
ATOM     25  C   UNL     1      50.619  16.964  17.737  0.00  0.00    +0.008 C 
BRANCH  25  26
ATOM     26  C   UNL     1      50.650  17.190  19.250  0.00  0.00    +0.014 C 
BRANCH  26  27
ATOM     27  C   UNL     1      52.007  17.771  19.651  0.00  0.00    +0.030 C 
BRANCH  27  28
ATOM     28  C   UNL     1      52.458  18.787  18.599  0.00  0.00    +0.202 C 
BRANCH  28  29
ATOM     29  O   UNL     1      52.199  20.110  19.074  0.00  0.00    -0.350 OA
BRANCH  29  30
ATOM     30  C   UNL     1      51.111  20.736  18.580  0.00  0.00    +0.501 C 
ATOM     43  O   UNL     1      51.125  21.177  17.447  0.00  0.00    -0.514 OA
BRANCH  30  31
ATOM     31  C   UNL     1      49.951  20.879  19.382  0.00  0.00    -0.060 C 
ATOM     32  C   UNL     1      48.727  20.711  18.835  0.00  0.00    +0.150 C 
BRANCH  32  33
ATOM     33  C   UNL     1      47.523  20.860  19.666  0.00  0.00    -0.057 A 
ATOM     34  C   UNL     1      47.628  20.842  21.062  0.00  0.00    +0.025 A 
ATOM     35  C   UNL     1      46.500  20.981  21.839  0.00  0.00    +0.033 A 
ATOM     36  C   UNL     1      45.256  21.139  21.241  0.00  0.00    +0.095 A 
ATOM     39  C   UNL     1      45.143  21.158  19.851  0.00  0.00    +0.100 A 
ATOM     42  C   UNL     1      46.271  21.025  19.064  0.00  0.00    -0.026 A 
BRANCH  36  37
ATOM     37  O   UNL     1      44.147  21.276  22.012  0.00  0.00    -0.485 OA
ATOM     38  H   UNL     1      43.315  21.178  21.527  0.00  0.00    +0.392 HD
ENDBRANCH  36  37
BRANCH  39  40
ATOM     40  O   UNL     1      43.924  21.313  19.271  0.00  0.00    -0.306 OA
ATOM     41  C   UNL     1      43.275  20.130  18.798  0.00  0.00    +0.242 C 
ENDBRANCH  39  40
ENDBRANCH  32  33
ENDBRANCH  30  31
ENDBRANCH  29  30
ENDBRANCH  28  29
ENDBRANCH  27  28
ENDBRANCH  26  27
ENDBRANCH  25  26
ENDBRANCH  24  25
ENDBRANCH  23  24
ENDBRANCH  22  23
BRANCH  22  21
ATOM     21  C   UNL     1      45.705  17.355  18.552  0.00  0.00    +0.000 C 
BRANCH  21  20
ATOM     20  C   UNL     1      46.311  17.423  19.956  0.00  0.00    +0.000 C 
BRANCH  20  19
ATOM     19  C   UNL     1      45.188  17.477  20.994  0.00  0.00    +0.000 C 
BRANCH  19  18
ATOM     18  C   UNL     1      44.688  16.058  21.278  0.00  0.00    +0.000 C 
BRANCH  18  17
ATOM     17  C   UNL     1      45.797  15.253  21.957  0.00  0.00    +0.000 C 
BRANCH  17  16
ATOM     16  C   UNL     1      45.646  13.774  21.599  0.00  0.00    +0.000 C 
BRANCH  16  15
ATOM     15  C   UNL     1      47.003  13.211  21.170  0.00  0.00    +0.000 C 
BRANCH  15  14
ATOM     14  C   UNL     1      47.981  14.363  20.931  0.00  0.00    +0.000 C 
BRANCH  14  13
ATOM     13  C   UNL     1      49.168  13.861  20.106  0.00  0.00    +0.000 C 
BRANCH  13  12
ATOM     12  C   UNL     1      48.996  12.368  19.820  0.00  0.00    +0.000 C 
BRANCH  12  11
ATOM     11  C   UNL     1      50.208  11.854  19.043  0.00  0.00    +0.000 C 
BRANCH  11  10
ATOM     10  C   UNL     1      51.274  12.951  18.976  0.00  0.00    +0.000 C 
BRANCH  10   9
ATOM      9  C   UNL     1      51.972  12.901  17.615  0.00  0.00    +0.000 C 
BRANCH   9   8
ATOM      8  C   UNL     1      51.168  13.717  16.600  0.00  0.00    +0.000 C 
BRANCH   8   7
ATOM      7  C   UNL     1      50.707  12.803  15.462  0.00  0.00    +0.000 C 
BRANCH   7   6
ATOM      6  C   UNL     1      49.200  12.970  15.253  0.00  0.00    +0.000 C 
BRANCH   6   5
ATOM      5  C   UNL     1      48.630  13.867  16.352  0.00  0.00    +0.000 C 
BRANCH   5   4
ATOM      4  C   UNL     1      47.106  13.926  16.223  0.00  0.00    -0.000 C 
BRANCH   4   3
ATOM      3  C   UNL     1      46.476  13.914  17.617  0.00  0.00    -0.000 C 
BRANCH   3   2
ATOM      1  C   UNL     1      46.020  11.599  16.791  0.00  0.00    +0.006 C 
ATOM      2  C   UNL     1      45.557  12.697  17.751  0.00  0.00    -0.006 C 
ENDBRANCH   3   2
ENDBRANCH   4   3
ENDBRANCH   5   4
ENDBRANCH   6   5
ENDBRANCH   7   6
ENDBRANCH   8   7
ENDBRANCH   9   8
ENDBRANCH  10   9
ENDBRANCH  11  10
ENDBRANCH  12  11
ENDBRANCH  13  12
ENDBRANCH  14  13
ENDBRANCH  15  14
ENDBRANCH  16  15
ENDBRANCH  17  16
ENDBRANCH  18  17
ENDBRANCH  19  18
ENDBRANCH  20  19
ENDBRANCH  21  20
ENDBRANCH  22  21
TORSDOF 32
ENDMDL
MODEL 5
REMARK VINA RESULT:      -4.1      3.569      7.364
REMARK  Name = ZINC95485926
REMARK  34 active torsions:
REMARK  status: ('A' for Active; 'I' for Inactive)
REMARK    1  A    between atoms: C1_1  and  C2_2
REMARK    2  A    between atoms: C2_2  and  C3_3
REMARK    3  A    between atoms: C3_3  and  C4_4
REMARK    4  A    between atoms: C4_4  and  C5_5
REMARK    5  A    between atoms: C5_5  and  C6_6
REMARK    6  A    between atoms: C6_6  and  C7_7
REMARK    7  A    between atoms: C7_7  and  C8_8
REMARK    8  A    between atoms: C8_8  and  C9_9
REMARK    9  A    between atoms: C9_9  and  C10_10
REMARK   10  A    between atoms: C10_10  and  C11_11
REMARK   11  A    between atoms: C11_11  and  C12_12
REMARK   12  A    between atoms: C12_12  and  C13_13
REMARK   13  A    between atoms: C13_13  and  C14_14
REMARK   14  A    between atoms: C14_14  and  C15_15
REMARK   15  A    between atoms: C15_15  and  C16_16
REMARK   16  A    between atoms: C16_16  and  C17_17
REMARK   17  A    between atoms: C17_17  and  C18_18
REMARK   18  A    between atoms: C18_18  and  C19_19
REMARK   19  A    between atoms: C19_19  and  C20_20
REMARK   20  A    between atoms: C20_20  and  C21_21
REMARK   21  A    between atoms: C21_21  and  C22_22
REMARK   22  A    between atoms: C22_22  and  C23_23
REMARK   23  A    between atoms: C23_23  and  C24_24
REMARK   24  A    between atoms: C24_24  and  C25_25
REMARK   25  A    between atoms: C25_25  and  C26_26
REMARK   26  A    between atoms: C26_26  and  C27_27
REMARK   27  A    between atoms: C27_27  and  C28_28
REMARK   28  A    between atoms: C28_28  and  O1_29
REMARK   29  A    between atoms: O1_29  and  C29_30
REMARK   30  A    between atoms: C29_30  and  C30_32
REMARK   31  A    between atoms: C31_33  and  C32_34
REMARK   32  A    between atoms: C35_37  and  O4_42
REMARK   33  A    between atoms: C36_38  and  O3_40
REMARK   34  A    between atoms: O3_40  and  C38_41
REMARK                            x       y       z     vdW  Elec       q    Type
REMARK                         _______ _______ _______ _____ _____    ______ ____
ROOT
ATOM     22  C   UNL     1      50.948  12.030  18.113  0.00  0.00    +0.000 C 
ENDROOT
BRANCH  22  23
ATOM     23  C   UNL     1      52.430  12.343  18.335  0.00  0.00    +0.001 C 
BRANCH  23  24
ATOM     24  C   UNL     1      53.272  11.130  17.936  0.00  0.00    +0.002 C 
BRANCH  24  25
ATOM     25  C   UNL     1      52.501  10.289  16.916  0.00  0.00    +0.008 C 
BRANCH  25  26
ATOM     26  C   UNL     1      53.123  10.472  15.530  0.00  0.00    +0.014 C 
BRANCH  26  27
ATOM     27  C   UNL     1      52.424  11.625  14.806  0.00  0.00    +0.030 C 
BRANCH  27  28
ATOM     28  C   UNL     1      51.248  11.079  13.994  0.00  0.00    +0.202 C 
BRANCH  28  29
ATOM     29  O   UNL     1      50.030  11.314  14.704  0.00  0.00    -0.350 OA
BRANCH  29  30
ATOM     30  C   UNL     1      49.356  12.444  14.407  0.00  0.00    +0.501 C 
ATOM     43  O   UNL     1      49.347  12.864  13.265  0.00  0.00    -0.514 OA
BRANCH  30  31
ATOM     31  C   UNL     1      48.656  13.140  15.424  0.00  0.00    -0.060 C 
ATOM     32  C   UNL     1      47.582  12.573  16.015  0.00  0.00    +0.150 C 
BRANCH  32  33
ATOM     33  C   UNL     1      46.856  13.296  17.069  0.00  0.00    -0.057 A 
ATOM     34  C   UNL     1      46.144  12.588  18.044  0.00  0.00    +0.025 A 
ATOM     35  C   UNL     1      45.465  13.267  19.031  0.00  0.00    +0.033 A 
ATOM     36  C   UNL     1      45.485  14.655  19.062  0.00  0.00    +0.095 A 
ATOM     39  C   UNL     1      46.192  15.369  18.096  0.00  0.00    +0.100 A 
ATOM     42  C   UNL     1      46.881  14.696  17.105  0.00  0.00    -0.026 A 
BRANCH  36  37
ATOM     37  O   UNL     1      44.814  15.320  20.038  0.00  0.00    -0.485 OA
ATOM     38  H   UNL     1      45.188  15.204  20.922  0.00  0.00    +0.392 HD
ENDBRANCH  36  37
BRANCH  39  40
ATOM     40  O   UNL     1      46.209  16.728  18.130  0.00  0.00    -0.306 OA
ATOM     41  C   UNL     1      46.859  17.397  17.047  0.00  0.00    +0.242 C 
ENDBRANCH  39  40
ENDBRANCH  32  33
ENDBRANCH  30  31
ENDBRANCH  29  30
ENDBRANCH  28  29
ENDBRANCH  27  28
ENDBRANCH  26  27
ENDBRANCH  25  26
ENDBRANCH  24  25
ENDBRANCH  23  24
ENDBRANCH  22  23
BRANCH  22  21
ATOM     21  C   UNL     1      50.094  13.092  18.809  0.00  0.00    +0.000 C 
BRANCH  21  20
ATOM     20  C   UNL     1      49.325  12.450  19.966  0.00  0.00    +0.000 C 
BRANCH  20  19
ATOM     19  C   UNL     1      48.664  13.543  20.808  0.00  0.00    +0.000 C 
BRANCH  19  18
ATOM     18  C   UNL     1      49.005  14.915  20.221  0.00  0.00    +0.000 C 
BRANCH  18  17
ATOM     17  C   UNL     1      48.347  16.008  21.064  0.00  0.00    +0.000 C 
BRANCH  17  16
ATOM     16  C   UNL     1      48.691  17.379  20.479  0.00  0.00    +0.000 C 
BRANCH  16  15
ATOM     15  C   UNL     1      49.599  18.135  21.452  0.00  0.00    +0.000 C 
BRANCH  15  14
ATOM     14  C   UNL     1      50.047  19.451  20.813  0.00  0.00    +0.000 C 
BRANCH  14  13
ATOM     13  C   UNL     1      49.357  19.622  19.458  0.00  0.00    +0.000 C 
BRANCH  13  12
ATOM     12  C   UNL     1      49.903  20.870  18.762  0.00  0.00    +0.000 C 
BRANCH  12  11
ATOM     11  C   UNL     1      51.369  21.069  19.146  0.00  0.00    +0.000 C 
BRANCH  11  10
ATOM     10  C   UNL     1      52.262  20.719  17.954  0.00  0.00    +0.000 C 
BRANCH  10   9
ATOM      9  C   UNL     1      51.539  21.076  16.653  0.00  0.00    +0.000 C 
BRANCH   9   8
ATOM      8  C   UNL     1      51.760  19.964  15.625  0.00  0.00    +0.000 C 
BRANCH   8   7
ATOM      7  C   UNL     1      51.877  18.620  16.347  0.00  0.00    +0.000 C 
BRANCH   7   6
ATOM      6  C   UNL     1      50.485  18.000  16.497  0.00  0.00    +0.000 C 
BRANCH   6   5
ATOM      5  C   UNL     1      50.581  16.732  17.346  0.00  0.00    +0.000 C 
BRANCH   5   4
ATOM      4  C   UNL     1      52.037  16.504  17.759  0.00  0.00    -0.000 C 
BRANCH   4   3
ATOM      3  C   UNL     1      52.213  16.873  19.233  0.00  0.00    -0.000 C 
BRANCH   3   2
ATOM      1  C   UNL     1      52.711  15.981  21.514  0.00  0.00    +0.006 C 
ATOM      2  C   UNL     1      52.537  15.613  20.039  0.00  0.00    -0.006 C 
ENDBRANCH   3   2
ENDBRANCH   4   3
ENDBRANCH   5   4
ENDBRANCH   6   5
ENDBRANCH   7   6
ENDBRANCH   8   7
ENDBRANCH   9   8
ENDBRANCH  10   9
ENDBRANCH  11  10
ENDBRANCH  12  11
ENDBRANCH  13  12
ENDBRANCH  14  13
ENDBRANCH  15  14
ENDBRANCH  16  15
ENDBRANCH  17  16
ENDBRANCH  18  17
ENDBRANCH  19  18
ENDBRANCH  20  19
ENDBRANCH  21  20
ENDBRANCH  22  21
TORSDOF 32
ENDMDL
MODEL 6
REMARK VINA RESULT:      -4.1      2.786      7.264
REMARK  Name = ZINC95485926
REMARK  34 active torsions:
REMARK  status: ('A' for Active; 'I' for Inactive)
REMARK    1  A    between atoms: C1_1  and  C2_2
REMARK    2  A    between atoms: C2_2  and  C3_3
REMARK    3  A    between atoms: C3_3  and  C4_4
REMARK    4  A    between atoms: C4_4  and  C5_5
REMARK    5  A    between atoms: C5_5  and  C6_6
REMARK    6  A    between atoms: C6_6  and  C7_7
REMARK    7  A    between atoms: C7_7  and  C8_8
REMARK    8  A    between atoms: C8_8  and  C9_9
REMARK    9  A    between atoms: C9_9  and  C10_10
REMARK   10  A    between atoms: C10_10  and  C11_11
REMARK   11  A    between atoms: C11_11  and  C12_12
REMARK   12  A    between atoms: C12_12  and  C13_13
REMARK   13  A    between atoms: C13_13  and  C14_14
REMARK   14  A    between atoms: C14_14  and  C15_15
REMARK   15  A    between atoms: C15_15  and  C16_16
REMARK   16  A    between atoms: C16_16  and  C17_17
REMARK   17  A    between atoms: C17_17  and  C18_18
REMARK   18  A    between atoms: C18_18  and  C19_19
REMARK   19  A    between atoms: C19_19  and  C20_20
REMARK   20  A    between atoms: C20_20  and  C21_21
REMARK   21  A    between atoms: C21_21  and  C22_22
REMARK   22  A    between atoms: C22_22  and  C23_23
REMARK   23  A    between atoms: C23_23  and  C24_24
REMARK   24  A    between atoms: C24_24  and  C25_25
REMARK   25  A    between atoms: C25_25  and  C26_26
REMARK   26  A    between atoms: C26_26  and  C27_27
REMARK   27  A    between atoms: C27_27  and  C28_28
REMARK   28  A    between atoms: C28_28  and  O1_29
REMARK   29  A    between atoms: O1_29  and  C29_30
REMARK   30  A    between atoms: C29_30  and  C30_32
REMARK   31  A    between atoms: C31_33  and  C32_34
REMARK   32  A    between atoms: C35_37  and  O4_42
REMARK   33  A    between atoms: C36_38  and  O3_40
REMARK   34  A    between atoms: O3_40  and  C38_41
REMARK                            x       y       z     vdW  Elec       q    Type
REMARK                         _______ _______ _______ _____ _____    ______ ____
ROOT
ATOM     22  C   UNL     1      48.983  17.457  17.529  0.00  0.00    +0.000 C 
ENDROOT
BRANCH  22  23
ATOM     23  C   UNL     1      50.390  17.176  18.062  0.00  0.00    +0.001 C 
BRANCH  23  24
ATOM     24  C   UNL     1      51.381  17.157  16.898  0.00  0.00    +0.002 C 
BRANCH  24  25
ATOM     25  C   UNL     1      51.273  18.468  16.116  0.00  0.00    +0.008 C 
BRANCH  25  26
ATOM     26  C   UNL     1      52.254  19.489  16.696  0.00  0.00    +0.014 C 
BRANCH  26  27
ATOM     27  C   UNL     1      51.712  20.902  16.469  0.00  0.00    +0.030 C 
BRANCH  27  28
ATOM     28  C   UNL     1      50.981  21.376  17.727  0.00  0.00    +0.202 C 
BRANCH  28  29
ATOM     29  O   UNL     1      51.427  20.615  18.851  0.00  0.00    -0.350 OA
BRANCH  29  30
ATOM     30  C   UNL     1      50.541  20.420  19.849  0.00  0.00    +0.501 C 
ATOM     43  O   UNL     1      50.887  19.853  20.868  0.00  0.00    -0.514 OA
BRANCH  30  31
ATOM     31  C   UNL     1      49.205  20.875  19.711  0.00  0.00    -0.060 C 
ATOM     32  C   UNL     1      48.464  21.138  20.809  0.00  0.00    +0.150 C 
BRANCH  32  33
ATOM     33  C   UNL     1      47.079  21.609  20.665  0.00  0.00    -0.057 A 
ATOM     34  C   UNL     1      46.648  22.744  21.362  0.00  0.00    +0.025 A 
ATOM     35  C   UNL     1      45.350  23.184  21.226  0.00  0.00    +0.033 A 
ATOM     36  C   UNL     1      44.466  22.504  20.398  0.00  0.00    +0.095 A 
ATOM     39  C   UNL     1      44.887  21.373  19.699  0.00  0.00    +0.100 A 
ATOM     42  C   UNL     1      46.189  20.928  19.826  0.00  0.00    -0.026 A 
BRANCH  36  37
ATOM     37  O   UNL     1      43.188  22.942  20.267  0.00  0.00    -0.485 OA
ATOM     38  H   UNL     1      42.643  22.400  19.679  0.00  0.00    +0.392 HD
ENDBRANCH  36  37
BRANCH  39  40
ATOM     40  O   UNL     1      44.019  20.711  18.890  0.00  0.00    -0.306 OA
ATOM     41  C   UNL     1      43.351  19.576  19.446  0.00  0.00    +0.242 C 
ENDBRANCH  39  40
ENDBRANCH  32  33
ENDBRANCH  30  31
ENDBRANCH  29  30
ENDBRANCH  28  29
ENDBRANCH  27  28
ENDBRANCH  26  27
ENDBRANCH  25  26
ENDBRANCH  24  25
ENDBRANCH  23  24
ENDBRANCH  22  23
BRANCH  22  21
ATOM     21  C   UNL     1      47.983  17.421  18.687  0.00  0.00    +0.000 C 
BRANCH  21  20
ATOM     20  C   UNL     1      48.736  17.225  20.004  0.00  0.00    +0.000 C 
BRANCH  20  19
ATOM     19  C   UNL     1      47.810  17.560  21.176  0.00  0.00    +0.000 C 
BRANCH  19  18
ATOM     18  C   UNL     1      46.354  17.494  20.709  0.00  0.00    +0.000 C 
BRANCH  18  17
ATOM     17  C   UNL     1      45.450  17.179  21.902  0.00  0.00    +0.000 C 
BRANCH  17  16
ATOM     16  C   UNL     1      44.531  16.008  21.550  0.00  0.00    +0.000 C 
BRANCH  16  15
ATOM     15  C   UNL     1      45.143  15.206  20.399  0.00  0.00    +0.000 C 
BRANCH  15  14
ATOM     14  C   UNL     1      45.448  13.784  20.873  0.00  0.00    +0.000 C 
BRANCH  14  13
ATOM     13  C   UNL     1      46.947  13.649  21.148  0.00  0.00    +0.000 C 
BRANCH  13  12
ATOM     12  C   UNL     1      47.719  13.755  19.832  0.00  0.00    +0.000 C 
BRANCH  12  11
ATOM     11  C   UNL     1      49.221  13.718  20.117  0.00  0.00    +0.000 C 
BRANCH  11  10
ATOM     10  C   UNL     1      49.722  12.275  20.030  0.00  0.00    +0.000 C 
BRANCH  10   9
ATOM      9  C   UNL     1      50.667  12.135  18.834  0.00  0.00    +0.000 C 
BRANCH   9   8
ATOM      8  C   UNL     1      50.855  13.501  18.170  0.00  0.00    +0.000 C 
BRANCH   8   7
ATOM      7  C   UNL     1      51.391  13.308  16.750  0.00  0.00    +0.000 C 
BRANCH   7   6
ATOM      6  C   UNL     1      50.227  13.337  15.757  0.00  0.00    +0.000 C 
BRANCH   6   5
ATOM      5  C   UNL     1      49.031  14.043  16.396  0.00  0.00    +0.000 C 
BRANCH   5   4
ATOM      4  C   UNL     1      47.754  13.254  16.097  0.00  0.00    -0.000 C 
BRANCH   4   3
ATOM      3  C   UNL     1      47.904  11.824  16.620  0.00  0.00    -0.000 C 
BRANCH   3   2
ATOM      1  C   UNL     1      45.570  12.502  17.202  0.00  0.00    +0.006 C 
ATOM      2  C   UNL     1      46.559  11.334  17.160  0.00  0.00    -0.006 C 
ENDBRANCH   3   2
ENDBRANCH   4   3
ENDBRANCH   5   4
ENDBRANCH   6   5
ENDBRANCH   7   6
ENDBRANCH   8   7
ENDBRANCH   9   8
ENDBRANCH  10   9
ENDBRANCH  11  10
ENDBRANCH  12  11
ENDBRANCH  13  12
ENDBRANCH  14  13
ENDBRANCH  15  14
ENDBRANCH  16  15
ENDBRANCH  17  16
ENDBRANCH  18  17
ENDBRANCH  19  18
ENDBRANCH  20  19
ENDBRANCH  21  20
ENDBRANCH  22  21
TORSDOF 32
ENDMDL
MODEL 7
REMARK VINA RESULT:      -4.1      3.035      7.718
REMARK  Name = ZINC95485926
REMARK  34 active torsions:
REMARK  status: ('A' for Active; 'I' for Inactive)
REMARK    1  A    between atoms: C1_1  and  C2_2
REMARK    2  A    between atoms: C2_2  and  C3_3
REMARK    3  A    between atoms: C3_3  and  C4_4
REMARK    4  A    between atoms: C4_4  and  C5_5
REMARK    5  A    between atoms: C5_5  and  C6_6
REMARK    6  A    between atoms: C6_6  and  C7_7
REMARK    7  A    between atoms: C7_7  and  C8_8
REMARK    8  A    between atoms: C8_8  and  C9_9
REMARK    9  A    between atoms: C9_9  and  C10_10
REMARK   10  A    between atoms: C10_10  and  C11_11
REMARK   11  A    between atoms: C11_11  and  C12_12
REMARK   12  A    between atoms: C12_12  and  C13_13
REMARK   13  A    between atoms: C13_13  and  C14_14
REMARK   14  A    between atoms: C14_14  and  C15_15
REMARK   15  A    between atoms: C15_15  and  C16_16
REMARK   16  A    between atoms: C16_16  and  C17_17
REMARK   17  A    between atoms: C17_17  and  C18_18
REMARK   18  A    between atoms: C18_18  and  C19_19
REMARK   19  A    between atoms: C19_19  and  C20_20
REMARK   20  A    between atoms: C20_20  and  C21_21
REMARK   21  A    between atoms: C21_21  and  C22_22
REMARK   22  A    between atoms: C22_22  and  C23_23
REMARK   23  A    between atoms: C23_23  and  C24_24
REMARK   24  A    between atoms: C24_24  and  C25_25
REMARK   25  A    between atoms: C25_25  and  C26_26
REMARK   26  A    between atoms: C26_26  and  C27_27
REMARK   27  A    between atoms: C27_27  and  C28_28
REMARK   28  A    between atoms: C28_28  and  O1_29
REMARK   29  A    between atoms: O1_29  and  C29_30
REMARK   30  A    between atoms: C29_30  and  C30_32
REMARK   31  A    between atoms: C31_33  and  C32_34
REMARK   32  A    between atoms: C35_37  and  O4_42
REMARK   33  A    between atoms: C36_38  and  O3_40
REMARK   34  A    between atoms: O3_40  and  C38_41
REMARK                            x       y       z     vdW  Elec       q    Type
REMARK                         _______ _______ _______ _____ _____    ______ ____
ROOT
ATOM     22  C   UNL     1      47.562  16.019  16.965  0.00  0.00    +0.000 C 
ENDROOT
BRANCH  22  23
ATOM     23  C   UNL     1      47.073  17.379  17.471  0.00  0.00    +0.001 C 
BRANCH  23  24
ATOM     24  C   UNL     1      45.848  17.179  18.363  0.00  0.00    +0.002 C 
BRANCH  24  25
ATOM     25  C   UNL     1      46.280  17.183  19.831  0.00  0.00    +0.008 C 
BRANCH  25  26
ATOM     26  C   UNL     1      45.054  17.389  20.723  0.00  0.00    +0.014 C 
BRANCH  26  27
ATOM     27  C   UNL     1      44.052  18.300  20.010  0.00  0.00    +0.030 C 
BRANCH  27  28
ATOM     28  C   UNL     1      43.864  19.585  20.820  0.00  0.00    +0.202 C 
BRANCH  28  29
ATOM     29  O   UNL     1      45.143  20.152  21.115  0.00  0.00    -0.350 OA
BRANCH  29  30
ATOM     30  C   UNL     1      45.608  21.089  20.264  0.00  0.00    +0.501 C 
ATOM     43  O   UNL     1      44.832  21.728  19.579  0.00  0.00    -0.514 OA
BRANCH  30  31
ATOM     31  C   UNL     1      47.002  21.329  20.167  0.00  0.00    -0.060 C 
ATOM     32  C   UNL     1      47.797  20.445  19.526  0.00  0.00    +0.150 C 
BRANCH  32  33
ATOM     33  C   UNL     1      49.242  20.694  19.426  0.00  0.00    -0.057 A 
ATOM     34  C   UNL     1      50.013  20.828  20.586  0.00  0.00    +0.025 A 
ATOM     35  C   UNL     1      51.367  21.062  20.490  0.00  0.00    +0.033 A 
ATOM     36  C   UNL     1      51.970  21.166  19.243  0.00  0.00    +0.095 A 
ATOM     39  C   UNL     1      51.210  21.033  18.082  0.00  0.00    +0.100 A 
ATOM     42  C   UNL     1      49.852  20.793  18.169  0.00  0.00    -0.026 A 
BRANCH  36  37
ATOM     37  O   UNL     1      53.305  21.396  19.154  0.00  0.00    -0.485 OA
ATOM     38  H   UNL     1      53.663  21.929  19.878  0.00  0.00    +0.392 HD
ENDBRANCH  36  37
BRANCH  39  40
ATOM     40  O   UNL     1      51.804  21.135  16.864  0.00  0.00    -0.306 OA
ATOM     41  C   UNL     1      51.702  20.005  15.995  0.00  0.00    +0.242 C 
ENDBRANCH  39  40
ENDBRANCH  32  33
ENDBRANCH  30  31
ENDBRANCH  29  30
ENDBRANCH  28  29
ENDBRANCH  27  28
ENDBRANCH  26  27
ENDBRANCH  25  26
ENDBRANCH  24  25
ENDBRANCH  23  24
ENDBRANCH  22  23
BRANCH  22  21
ATOM     21  C   UNL     1      49.061  15.881  17.243  0.00  0.00    +0.000 C 
BRANCH  21  20
ATOM     20  C   UNL     1      49.570  17.150  17.930  0.00  0.00    +0.000 C 
BRANCH  20  19
ATOM     19  C   UNL     1      51.023  16.946  18.365  0.00  0.00    +0.000 C 
BRANCH  19  18
ATOM     18  C   UNL     1      51.170  17.325  19.841  0.00  0.00    +0.000 C 
BRANCH  18  17
ATOM     17  C   UNL     1      49.807  17.240  20.528  0.00  0.00    +0.000 C 
BRANCH  17  16
ATOM     16  C   UNL     1      49.887  16.260  21.700  0.00  0.00    +0.000 C 
BRANCH  16  15
ATOM     15  C   UNL     1      48.863  15.140  21.500  0.00  0.00    +0.000 C 
BRANCH  15  14
ATOM     14  C   UNL     1      49.500  14.001  20.702  0.00  0.00    +0.000 C 
BRANCH  14  13
ATOM     13  C   UNL     1      48.451  13.373  19.783  0.00  0.00    +0.000 C 
BRANCH  13  12
ATOM     12  C   UNL     1      47.057  13.840  20.204  0.00  0.00    +0.000 C 
BRANCH  12  11
ATOM     11  C   UNL     1      46.040  13.441  19.135  0.00  0.00    +0.000 C 
BRANCH  11  10
ATOM     10  C   UNL     1      46.622  12.323  18.268  0.00  0.00    +0.000 C 
BRANCH  10   9
ATOM      9  C   UNL     1      46.188  12.526  16.815  0.00  0.00    +0.000 C 
BRANCH   9   8
ATOM      8  C   UNL     1      46.410  11.231  16.030  0.00  0.00    +0.000 C 
BRANCH   8   7
ATOM      7  C   UNL     1      47.359  11.500  14.861  0.00  0.00    +0.000 C 
BRANCH   7   6
ATOM      6  C   UNL     1      47.875  12.939  14.944  0.00  0.00    +0.000 C 
BRANCH   6   5
ATOM      5  C   UNL     1      49.399  12.941  14.825  0.00  0.00    +0.000 C 
BRANCH   5   4
ATOM      4  C   UNL     1      50.013  12.433  16.132  0.00  0.00    -0.000 C 
BRANCH   4   3
ATOM      3  C   UNL     1      51.475  12.878  16.214  0.00  0.00    -0.000 C 
BRANCH   3   2
ATOM      1  C   UNL     1      52.188  13.466  18.537  0.00  0.00    +0.006 C 
ATOM      2  C   UNL     1      52.099  12.340  17.504  0.00  0.00    -0.006 C 
ENDBRANCH   3   2
ENDBRANCH   4   3
ENDBRANCH   5   4
ENDBRANCH   6   5
ENDBRANCH   7   6
ENDBRANCH   8   7
ENDBRANCH   9   8
ENDBRANCH  10   9
ENDBRANCH  11  10
ENDBRANCH  12  11
ENDBRANCH  13  12
ENDBRANCH  14  13
ENDBRANCH  15  14
ENDBRANCH  16  15
ENDBRANCH  17  16
ENDBRANCH  18  17
ENDBRANCH  19  18
ENDBRANCH  20  19
ENDBRANCH  21  20
ENDBRANCH  22  21
TORSDOF 32
ENDMDL
MODEL 8
REMARK VINA RESULT:      -4.1      2.325      5.560
REMARK  Name = ZINC95485926
REMARK  34 active torsions:
REMARK  status: ('A' for Active; 'I' for Inactive)
REMARK    1  A    between atoms: C1_1  and  C2_2
REMARK    2  A    between atoms: C2_2  and  C3_3
REMARK    3  A    between atoms: C3_3  and  C4_4
REMARK    4  A    between atoms: C4_4  and  C5_5
REMARK    5  A    between atoms: C5_5  and  C6_6
REMARK    6  A    between atoms: C6_6  and  C7_7
REMARK    7  A    between atoms: C7_7  and  C8_8
REMARK    8  A    between atoms: C8_8  and  C9_9
REMARK    9  A    between atoms: C9_9  and  C10_10
REMARK   10  A    between atoms: C10_10  and  C11_11
REMARK   11  A    between atoms: C11_11  and  C12_12
REMARK   12  A    between atoms: C12_12  and  C13_13
REMARK   13  A    between atoms: C13_13  and  C14_14
REMARK   14  A    between atoms: C14_14  and  C15_15
REMARK   15  A    between atoms: C15_15  and  C16_16
REMARK   16  A    between atoms: C16_16  and  C17_17
REMARK   17  A    between atoms: C17_17  and  C18_18
REMARK   18  A    between atoms: C18_18  and  C19_19
REMARK   19  A    between atoms: C19_19  and  C20_20
REMARK   20  A    between atoms: C20_20  and  C21_21
REMARK   21  A    between atoms: C21_21  and  C22_22
REMARK   22  A    between atoms: C22_22  and  C23_23
REMARK   23  A    between atoms: C23_23  and  C24_24
REMARK   24  A    between atoms: C24_24  and  C25_25
REMARK   25  A    between atoms: C25_25  and  C26_26
REMARK   26  A    between atoms: C26_26  and  C27_27
REMARK   27  A    between atoms: C27_27  and  C28_28
REMARK   28  A    between atoms: C28_28  and  O1_29
REMARK   29  A    between atoms: O1_29  and  C29_30
REMARK   30  A    between atoms: C29_30  and  C30_32
REMARK   31  A    between atoms: C31_33  and  C32_34
REMARK   32  A    between atoms: C35_37  and  O4_42
REMARK   33  A    between atoms: C36_38  and  O3_40
REMARK   34  A    between atoms: O3_40  and  C38_41
REMARK                            x       y       z     vdW  Elec       q    Type
REMARK                         _______ _______ _______ _____ _____    ______ ____
ROOT
ATOM     22  C   UNL     1      48.606  20.448  18.989  0.00  0.00    +0.000 C 
ENDROOT
BRANCH  22  23
ATOM     23  C   UNL     1      48.741  18.948  18.715  0.00  0.00    +0.001 C 
BRANCH  23  24
ATOM     24  C   UNL     1      49.001  18.211  20.029  0.00  0.00    +0.002 C 
BRANCH  24  25
ATOM     25  C   UNL     1      48.938  16.701  19.788  0.00  0.00    +0.008 C 
BRANCH  25  26
ATOM     26  C   UNL     1      49.039  15.967  21.127  0.00  0.00    +0.014 C 
BRANCH  26  27
ATOM     27  C   UNL     1      49.310  14.482  20.874  0.00  0.00    +0.030 C 
BRANCH  27  28
ATOM     28  C   UNL     1      50.747  14.149  21.283  0.00  0.00    +0.202 C 
BRANCH  28  29
ATOM     29  O   UNL     1      51.500  13.789  20.123  0.00  0.00    -0.350 OA
BRANCH  29  30
ATOM     30  C   UNL     1      52.613  14.507  19.868  0.00  0.00    +0.501 C 
ATOM     43  O   UNL     1      53.710  14.000  20.008  0.00  0.00    -0.514 OA
BRANCH  30  31
ATOM     31  C   UNL     1      52.504  15.854  19.438  0.00  0.00    -0.060 C 
ATOM     32  C   UNL     1      52.212  16.129  18.148  0.00  0.00    +0.150 C 
BRANCH  32  33
ATOM     33  C   UNL     1      52.099  17.526  17.702  0.00  0.00    -0.057 A 
ATOM     34  C   UNL     1      51.514  17.823  16.466  0.00  0.00    +0.025 A 
ATOM     35  C   UNL     1      51.411  19.131  16.050  0.00  0.00    +0.033 A 
ATOM     36  C   UNL     1      51.885  20.159  16.855  0.00  0.00    +0.095 A 
ATOM     39  C   UNL     1      52.468  19.872  18.089  0.00  0.00    +0.100 A 
ATOM     42  C   UNL     1      52.571  18.562  18.516  0.00  0.00    -0.026 A 
BRANCH  36  37
ATOM     37  O   UNL     1      51.780  21.447  16.440  0.00  0.00    -0.485 OA
ATOM     38  H   UNL     1      51.951  22.100  17.133  0.00  0.00    +0.392 HD
ENDBRANCH  36  37
BRANCH  39  40
ATOM     40  O   UNL     1      52.931  20.881  18.873  0.00  0.00    -0.306 OA
ATOM     41  C   UNL     1      52.074  21.330  19.926  0.00  0.00    +0.242 C 
ENDBRANCH  39  40
ENDBRANCH  32  33
ENDBRANCH  30  31
ENDBRANCH  29  30
ENDBRANCH  28  29
ENDBRANCH  27  28
ENDBRANCH  26  27
ENDBRANCH  25  26
ENDBRANCH  24  25
ENDBRANCH  23  24
ENDBRANCH  22  23
BRANCH  22  21
ATOM     21  C   UNL     1      47.363  20.698  19.846  0.00  0.00    +0.000 C 
BRANCH  21  20
ATOM     20  C   UNL     1      46.118  20.681  18.956  0.00  0.00    +0.000 C 
BRANCH  20  19
ATOM     19  C   UNL     1      45.231  21.880  19.297  0.00  0.00    +0.000 C 
BRANCH  19  18
ATOM     18  C   UNL     1      43.780  21.417  19.438  0.00  0.00    +0.000 C 
BRANCH  18  17
ATOM     17  C   UNL     1      43.731  19.889  19.458  0.00  0.00    +0.000 C 
BRANCH  17  16
ATOM     16  C   UNL     1      42.711  19.424  20.498  0.00  0.00    +0.000 C 
BRANCH  16  15
ATOM     15  C   UNL     1      43.296  18.260  21.302  0.00  0.00    +0.000 C 
BRANCH  15  14
ATOM     14  C   UNL     1      44.755  18.561  21.648  0.00  0.00    +0.000 C 
BRANCH  14  13
ATOM     13  C   UNL     1      45.618  17.337  21.334  0.00  0.00    +0.000 C 
BRANCH  13  12
ATOM     12  C   UNL     1      44.726  16.200  20.832  0.00  0.00    +0.000 C 
BRANCH  12  11
ATOM     11  C   UNL     1      45.433  15.460  19.697  0.00  0.00    +0.000 C 
BRANCH  11  10
ATOM     10  C   UNL     1      45.365  13.952  19.950  0.00  0.00    +0.000 C 
BRANCH  10   9
ATOM      9  C   UNL     1      46.432  13.246  19.111  0.00  0.00    +0.000 C 
BRANCH   9   8
ATOM      8  C   UNL     1      45.971  13.178  17.653  0.00  0.00    +0.000 C 
BRANCH   8   7
ATOM      7  C   UNL     1      47.193  13.115  16.734  0.00  0.00    +0.000 C 
BRANCH   7   6
ATOM      6  C   UNL     1      47.797  14.514  16.592  0.00  0.00    +0.000 C 
BRANCH   6   5
ATOM      5  C   UNL     1      49.256  14.488  17.050  0.00  0.00    +0.000 C 
BRANCH   5   4
ATOM      4  C   UNL     1      49.703  13.038  17.246  0.00  0.00    -0.000 C 
BRANCH   4   3
ATOM      3  C   UNL     1      51.122  12.863  16.700  0.00  0.00    -0.000 C 
BRANCH   3   2
ATOM      1  C   UNL     1      50.862  12.832  14.215  0.00  0.00    +0.006 C 
ATOM      2  C   UNL     1      51.278  13.682  15.417  0.00  0.00    -0.006 C 
ENDBRANCH   3   2
ENDBRANCH   4   3
ENDBRANCH   5   4
ENDBRANCH   6   5
ENDBRANCH   7   6
ENDBRANCH   8   7
ENDBRANCH   9   8
ENDBRANCH  10   9
ENDBRANCH  11  10
ENDBRANCH  12  11
ENDBRANCH  13  12
ENDBRANCH  14  13
ENDBRANCH  15  14
ENDBRANCH  16  15
ENDBRANCH  17  16
ENDBRANCH  18  17
ENDBRANCH  19  18
ENDBRANCH  20  19
ENDBRANCH  21  20
ENDBRANCH  22  21
TORSDOF 32
ENDMDL
MODEL 9
REMARK VINA RESULT:      -4.1      2.232      5.635
REMARK  Name = ZINC95485926
REMARK  34 active torsions:
REMARK  status: ('A' for Active; 'I' for Inactive)
REMARK    1  A    between atoms: C1_1  and  C2_2
REMARK    2  A    between atoms: C2_2  and  C3_3
REMARK    3  A    between atoms: C3_3  and  C4_4
REMARK    4  A    between atoms: C4_4  and  C5_5
REMARK    5  A    between atoms: C5_5  and  C6_6
REMARK    6  A    between atoms: C6_6  and  C7_7
REMARK    7  A    between atoms: C7_7  and  C8_8
REMARK    8  A    between atoms: C8_8  and  C9_9
REMARK    9  A    between atoms: C9_9  and  C10_10
REMARK   10  A    between atoms: C10_10  and  C11_11
REMARK   11  A    between atoms: C11_11  and  C12_12
REMARK   12  A    between atoms: C12_12  and  C13_13
REMARK   13  A    between atoms: C13_13  and  C14_14
REMARK   14  A    between atoms: C14_14  and  C15_15
REMARK   15  A    between atoms: C15_15  and  C16_16
REMARK   16  A    between atoms: C16_16  and  C17_17
REMARK   17  A    between atoms: C17_17  and  C18_18
REMARK   18  A    between atoms: C18_18  and  C19_19
REMARK   19  A    between atoms: C19_19  and  C20_20
REMARK   20  A    between atoms: C20_20  and  C21_21
REMARK   21  A    between atoms: C21_21  and  C22_22
REMARK   22  A    between atoms: C22_22  and  C23_23
REMARK   23  A    between atoms: C23_23  and  C24_24
REMARK   24  A    between atoms: C24_24  and  C25_25
REMARK   25  A    between atoms: C25_25  and  C26_26
REMARK   26  A    between atoms: C26_26  and  C27_27
REMARK   27  A    between atoms: C27_27  and  C28_28
REMARK   28  A    between atoms: C28_28  and  O1_29
REMARK   29  A    between atoms: O1_29  and  C29_30
REMARK   30  A    between atoms: C29_30  and  C30_32
REMARK   31  A    between atoms: C31_33  and  C32_34
REMARK   32  A    between atoms: C35_37  and  O4_42
REMARK   33  A    between atoms: C36_38  and  O3_40
REMARK   34  A    between atoms: O3_40  and  C38_41
REMARK                            x       y       z     vdW  Elec       q    Type
REMARK                         _______ _______ _______ _____ _____    ______ ____
ROOT
ATOM     22  C   UNL     1      48.826  20.634  19.433  0.00  0.00    +0.000 C 
ENDROOT
BRANCH  22  23
ATOM     23  C   UNL     1      49.242  19.163  19.359  0.00  0.00    +0.001 C 
BRANCH  23  24
ATOM     24  C   UNL     1      49.725  18.701  20.735  0.00  0.00    +0.002 C 
BRANCH  24  25
ATOM     25  C   UNL     1      49.565  17.183  20.848  0.00  0.00    +0.008 C 
BRANCH  25  26
ATOM     26  C   UNL     1      50.690  16.615  21.715  0.00  0.00    +0.014 C 
BRANCH  26  27
ATOM     27  C   UNL     1      50.448  15.123  21.951  0.00  0.00    +0.030 C 
BRANCH  27  28
ATOM     28  C   UNL     1      51.546  14.312  21.259  0.00  0.00    +0.202 C 
BRANCH  28  29
ATOM     29  O   UNL     1      51.060  13.826  20.006  0.00  0.00    -0.350 OA
BRANCH  29  30
ATOM     30  C   UNL     1      51.759  14.168  18.904  0.00  0.00    +0.501 C 
ATOM     43  O   UNL     1      52.553  13.384  18.419  0.00  0.00    -0.514 OA
BRANCH  30  31
ATOM     31  C   UNL     1      51.568  15.441  18.311  0.00  0.00    -0.060 C 
ATOM     32  C   UNL     1      52.485  16.416  18.494  0.00  0.00    +0.150 C 
BRANCH  32  33
ATOM     33  C   UNL     1      52.287  17.737  17.879  0.00  0.00    -0.057 A 
ATOM     34  C   UNL     1      51.692  17.841  16.616  0.00  0.00    +0.025 A 
ATOM     35  C   UNL     1      51.508  19.079  16.041  0.00  0.00    +0.033 A 
ATOM     36  C   UNL     1      51.912  20.226  16.712  0.00  0.00    +0.095 A 
ATOM     39  C   UNL     1      52.505  20.132  17.970  0.00  0.00    +0.100 A 
ATOM     42  C   UNL     1      52.689  18.894  18.556  0.00  0.00    -0.026 A 
BRANCH  36  37
ATOM     37  O   UNL     1      51.727  21.444  16.141  0.00  0.00    -0.485 OA
ATOM     38  H   UNL     1      50.897  21.874  16.388  0.00  0.00    +0.392 HD
ENDBRANCH  36  37
BRANCH  39  40
ATOM     40  O   UNL     1      52.899  21.257  18.623  0.00  0.00    -0.306 OA
ATOM     41  C   UNL     1      52.583  21.345  20.014  0.00  0.00    +0.242 C 
ENDBRANCH  39  40
ENDBRANCH  32  33
ENDBRANCH  30  31
ENDBRANCH  29  30
ENDBRANCH  28  29
ENDBRANCH  27  28
ENDBRANCH  26  27
ENDBRANCH  25  26
ENDBRANCH  24  25
ENDBRANCH  23  24
ENDBRANCH  22  23
BRANCH  22  21
ATOM     21  C   UNL     1      47.548  20.761  20.265  0.00  0.00    +0.000 C 
BRANCH  21  20
ATOM     20  C   UNL     1      46.371  21.089  19.343  0.00  0.00    +0.000 C 
BRANCH  20  19
ATOM     19  C   UNL     1      45.481  22.141  20.008  0.00  0.00    +0.000 C 
BRANCH  19  18
ATOM     18  C   UNL     1      44.030  21.932  19.568  0.00  0.00    +0.000 C 
BRANCH  18  17
ATOM     17  C   UNL     1      43.800  20.453  19.254  0.00  0.00    +0.000 C 
BRANCH  17  16
ATOM     16  C   UNL     1      42.619  19.935  20.077  0.00  0.00    +0.000 C 
BRANCH  16  15
ATOM     15  C   UNL     1      43.035  18.667  20.826  0.00  0.00    +0.000 C 
BRANCH  15  14
ATOM     14  C   UNL     1      44.227  18.978  21.732  0.00  0.00    +0.000 C 
BRANCH  14  13
ATOM     13  C   UNL     1      45.359  17.989  21.444  0.00  0.00    +0.000 C 
BRANCH  13  12
ATOM     12  C   UNL     1      44.766  16.626  21.083  0.00  0.00    +0.000 C 
BRANCH  12  11
ATOM     11  C   UNL     1      45.214  16.231  19.676  0.00  0.00    +0.000 C 
BRANCH  11  10
ATOM     10  C   UNL     1      46.364  17.138  19.232  0.00  0.00    +0.000 C 
BRANCH  10   9
ATOM      9  C   UNL     1      46.037  17.745  17.866  0.00  0.00    +0.000 C 
BRANCH   9   8
ATOM      8  C   UNL     1      46.973  17.156  16.809  0.00  0.00    +0.000 C 
BRANCH   8   7
ATOM      7  C   UNL     1      48.096  16.379  17.500  0.00  0.00    +0.000 C 
BRANCH   7   6
ATOM      6  C   UNL     1      48.214  14.988  16.873  0.00  0.00    +0.000 C 
BRANCH   6   5
ATOM      5  C   UNL     1      46.825  14.358  16.768  0.00  0.00    +0.000 C 
BRANCH   5   4
ATOM      4  C   UNL     1      46.671  13.280  17.844  0.00  0.00    -0.000 C 
BRANCH   4   3
ATOM      3  C   UNL     1      47.916  13.268  18.734  0.00  0.00    -0.000 C 
BRANCH   3   2
ATOM      1  C   UNL     1      47.950  12.570  21.134  0.00  0.00    +0.006 C 
ATOM      2  C   UNL     1      47.529  13.672  20.158  0.00  0.00    -0.006 C 
ENDBRANCH   3   2
ENDBRANCH   4   3
ENDBRANCH   5   4
ENDBRANCH   6   5
ENDBRANCH   7   6
ENDBRANCH   8   7
ENDBRANCH   9   8
ENDBRANCH  10   9
ENDBRANCH  11  10
ENDBRANCH  12  11
ENDBRANCH  13  12
ENDBRANCH  14  13
ENDBRANCH  15  14
ENDBRANCH  16  15
ENDBRANCH  17  16
ENDBRANCH  18  17
ENDBRANCH  19  18
ENDBRANCH  20  19
ENDBRANCH  21  20
ENDBRANCH  22  21
TORSDOF 32
ENDMDL
