MODEL 1
REMARK VINA RESULT:      -7.3      0.000      0.000
REMARK  Name = ZINC95486244
REMARK  15 active torsions:
REMARK  status: ('A' for Active; 'I' for Inactive)
REMARK    1  A    between atoms: C1_1  and  C2_2
REMARK    2  A    between atoms: C6_7  and  C36_56
REMARK    3  A    between atoms: C11_13  and  C29_45
REMARK    4  A    between atoms: C13_15  and  C23_29
REMARK    5  A    between atoms: C14_17  and  C22_26
REMARK    6  A    between atoms: C17_21  and  C20_24
REMARK    7  A    between atoms: C17_21  and  C21_25
REMARK    8  A    between atoms: C24_31  and  O7_44
REMARK    9  A    between atoms: C25_33  and  O6_43
REMARK   10  A    between atoms: C26_35  and  O5_42
REMARK   11  A    between atoms: C27_37  and  C28_40
REMARK   12  A    between atoms: C28_40  and  O4_41
REMARK   13  A    between atoms: C31_47  and  O10_55
REMARK   14  A    between atoms: C33_50  and  C34_51
REMARK   15  A    between atoms: C33_50  and  C35_52
REMARK                            x       y       z     vdW  Elec       q    Type
REMARK                         _______ _______ _______ _____ _____    ______ ____
ROOT
ATOM      1  C   UNL     1      47.719  14.458  16.633  0.00  0.00    +0.001 C 
ATOM      2  C   UNL     1      47.650  15.640  17.652  0.00  0.00    -0.021 C 
ATOM      3  C   UNL     1      47.014  16.785  16.865  0.00  0.00    -0.001 C 
ATOM      4  C   UNL     1      46.361  17.865  17.701  0.00  0.00    +0.011 C 
ATOM      5  C   UNL     1      45.469  17.373  18.829  0.00  0.00    +0.023 C 
ATOM      6  C   UNL     1      46.014  16.196  19.605  0.00  0.00    -0.015 C 
ATOM      7  C   UNL     1      44.777  15.431  20.182  0.00  0.00    -0.002 C 
ATOM      8  C   UNL     1      46.906  16.524  20.787  0.00  0.00    +0.049 C 
ATOM      9  C   UNL     1      46.480  17.730  21.600  0.00  0.00    +0.141 C 
ATOM     12  C   UNL     1      46.118  18.910  20.717  0.00  0.00    +0.007 C 
ATOM     13  C   UNL     1      45.047  18.563  19.691  0.00  0.00    -0.111 C 
ATOM     17  C   UNL     1      43.700  18.315  20.378  0.00  0.00    +0.013 C 
ATOM     18  C   UNL     1      49.064  15.958  18.098  0.00  0.00    +0.022 C 
ATOM     19  C   UNL     1      49.113  17.444  18.481  0.00  0.00    +0.046 C 
ATOM     20  C   UNL     1      50.088  15.756  16.980  0.00  0.00    +0.042 C 
ATOM     21  C   UNL     1      51.537  15.956  17.416  0.00  0.00    +0.036 C 
ATOM     37  C   UNL     1      51.918  15.160  18.650  0.00  0.00    -0.093 C 
ATOM     41  C   UNL     1      50.932  15.281  19.796  0.00  0.00    +0.036 C 
ATOM     42  C   UNL     1      51.134  16.505  20.663  0.00  0.00    +0.049 C 
ATOM     43  C   UNL     1      52.560  16.542  21.218  0.00  0.00    -0.053 C 
ATOM     44  C   UNL     1      52.818  15.336  22.115  0.00  0.00    +0.005 C 
ATOM     45  C   UNL     1      52.731  17.821  22.049  0.00  0.00    +0.011 C 
ATOM     46  C   UNL     1      53.547  16.571  20.060  0.00  0.00    -0.010 C 
ATOM     47  C   UNL     1      53.352  15.431  19.085  0.00  0.00    +0.010 C 
ATOM     48  C   UNL     1      49.507  15.164  19.290  0.00  0.00    -0.048 C 
ATOM     49  C   UNL     1      48.732  14.339  19.932  0.00  0.00    -0.105 C 
ATOM     50  C   UNL     1      47.316  14.044  19.564  0.00  0.00    +0.045 C 
ATOM     51  C   UNL     1      46.700  15.157  18.725  0.00  0.00    -0.007 C 
ENDROOT
BRANCH  21  22
ATOM     22  C   UNL     1      51.982  17.419  17.445  0.00  0.00    +0.154 C 
ATOM     23  C   UNL     1      51.703  18.066  16.086  0.00  0.00    +0.166 C 
ATOM     26  C   UNL     1      52.095  19.546  16.142  0.00  0.00    +0.150 C 
ATOM     29  C   UNL     1      51.324  20.224  17.278  0.00  0.00    +0.131 C 
ATOM     32  C   UNL     1      51.618  19.494  18.592  0.00  0.00    +0.104 C 
ATOM     36  O   UNL     1      51.259  18.117  18.461  0.00  0.00    -0.293 OA
BRANCH  23  24
ATOM     24  O   UNL     1      52.469  17.406  15.077  0.00  0.00    -0.547 OA
ATOM     25  H   UNL     1      52.057  16.600  14.735  0.00  0.00    +0.378 HD
ENDBRANCH  23  24
BRANCH  26  27
ATOM     27  O   UNL     1      51.772  20.173  14.901  0.00  0.00    -0.562 OA
ATOM     28  H   UNL     1      51.573  21.117  14.977  0.00  0.00    +0.383 HD
ENDBRANCH  26  27
BRANCH  29  30
ATOM     30  O   UNL     1      51.734  21.588  17.386  0.00  0.00    -0.567 OA
ATOM     31  H   UNL     1      51.191  22.117  17.988  0.00  0.00    +0.382 HD
ENDBRANCH  29  30
BRANCH  32  33
ATOM     33  C   UNL     1      50.804  20.129  19.721  0.00  0.00    +0.194 C 
BRANCH  33  34
ATOM     34  O   UNL     1      49.644  20.761  19.175  0.00  0.00    -0.548 OA
ATOM     35  H   UNL     1      49.151  21.296  19.811  0.00  0.00    +0.375 HD
ENDBRANCH  33  34
ENDBRANCH  32  33
ENDBRANCH  21  22
BRANCH  13  14
ATOM     14  C   UNL     1      44.848  19.792  18.813  0.00  0.00    +0.507 C 
ATOM     15  O   UNL     1      43.795  19.954  18.221  0.00  0.00    -0.705 OA
ATOM     16  O   UNL     1      45.743  20.612  18.700  0.00  0.00    -0.703 OA
ENDBRANCH  13  14
BRANCH  37  38
ATOM     38  C   UNL     1      51.902  13.686  18.228  0.00  0.00    +0.501 C 
ATOM     39  O   UNL     1      51.884  13.391  17.046  0.00  0.00    -0.680 OA
ATOM     40  O   UNL     1      51.907  12.810  19.076  0.00  0.00    -0.703 OA
ENDBRANCH  37  38
BRANCH   9  10
ATOM     10  O   UNL     1      45.433  17.399  22.505  0.00  0.00    -0.564 OA
ATOM     11  H   UNL     1      45.221  18.100  23.136  0.00  0.00    +0.364 HD
ENDBRANCH   9  10
TORSDOF 9
ENDMDL
MODEL 2
REMARK VINA RESULT:      -5.8      2.501      6.088
REMARK  Name = ZINC95486244
REMARK  15 active torsions:
REMARK  status: ('A' for Active; 'I' for Inactive)
REMARK    1  A    between atoms: C1_1  and  C2_2
REMARK    2  A    between atoms: C6_7  and  C36_56
REMARK    3  A    between atoms: C11_13  and  C29_45
REMARK    4  A    between atoms: C13_15  and  C23_29
REMARK    5  A    between atoms: C14_17  and  C22_26
REMARK    6  A    between atoms: C17_21  and  C20_24
REMARK    7  A    between atoms: C17_21  and  C21_25
REMARK    8  A    between atoms: C24_31  and  O7_44
REMARK    9  A    between atoms: C25_33  and  O6_43
REMARK   10  A    between atoms: C26_35  and  O5_42
REMARK   11  A    between atoms: C27_37  and  C28_40
REMARK   12  A    between atoms: C28_40  and  O4_41
REMARK   13  A    between atoms: C31_47  and  O10_55
REMARK   14  A    between atoms: C33_50  and  C34_51
REMARK   15  A    between atoms: C33_50  and  C35_52
REMARK                            x       y       z     vdW  Elec       q    Type
REMARK                         _______ _______ _______ _____ _____    ______ ____
ROOT
ATOM      1  C   UNL     1      46.176  17.249  17.610  0.00  0.00    +0.001 C 
ATOM      2  C   UNL     1      47.718  17.051  17.772  0.00  0.00    -0.021 C 
ATOM      3  C   UNL     1      48.315  17.661  16.505  0.00  0.00    -0.001 C 
ATOM      4  C   UNL     1      49.768  18.074  16.605  0.00  0.00    +0.011 C 
ATOM      5  C   UNL     1      50.145  18.852  17.855  0.00  0.00    +0.023 C 
ATOM      6  C   UNL     1      49.529  18.337  19.136  0.00  0.00    -0.015 C 
ATOM      7  C   UNL     1      49.434  19.559  20.108  0.00  0.00    -0.002 C 
ATOM      8  C   UNL     1      50.307  17.262  19.872  0.00  0.00    +0.049 C 
ATOM      9  C   UNL     1      51.812  17.441  19.869  0.00  0.00    +0.141 C 
ATOM     12  C   UNL     1      52.340  17.791  18.490  0.00  0.00    +0.007 C 
ATOM     13  C   UNL     1      51.664  19.023  17.903  0.00  0.00    -0.111 C 
ATOM     17  C   UNL     1      52.068  20.283  18.675  0.00  0.00    +0.013 C 
ATOM     18  C   UNL     1      47.990  15.564  17.884  0.00  0.00    +0.022 C 
ATOM     19  C   UNL     1      49.404  15.303  17.346  0.00  0.00    +0.046 C 
ATOM     20  C   UNL     1      47.032  14.728  17.032  0.00  0.00    +0.042 C 
ATOM     21  C   UNL     1      47.198  13.221  17.201  0.00  0.00    +0.036 C 
ATOM     37  C   UNL     1      47.175  12.764  18.648  0.00  0.00    -0.093 C 
ATOM     41  C   UNL     1      48.076  13.566  19.567  0.00  0.00    +0.036 C 
ATOM     42  C   UNL     1      49.522  13.117  19.567  0.00  0.00    +0.049 C 
ATOM     43  C   UNL     1      49.625  11.634  19.929  0.00  0.00    -0.053 C 
ATOM     44  C   UNL     1      49.101  11.387  21.340  0.00  0.00    +0.005 C 
ATOM     45  C   UNL     1      51.099  11.215  19.869  0.00  0.00    +0.011 C 
ATOM     46  C   UNL     1      48.839  10.815  18.914  0.00  0.00    -0.010 C 
ATOM     47  C   UNL     1      47.400  11.263  18.777  0.00  0.00    +0.010 C 
ATOM     48  C   UNL     1      47.935  15.050  19.292  0.00  0.00    -0.048 C 
ATOM     49  C   UNL     1      47.750  15.815  20.328  0.00  0.00    -0.105 C 
ATOM     50  C   UNL     1      47.540  17.292  20.267  0.00  0.00    +0.045 C 
ATOM     51  C   UNL     1      48.080  17.893  18.975  0.00  0.00    -0.007 C 
ENDROOT
BRANCH  21  22
ATOM     22  C   UNL     1      48.331  12.621  16.367  0.00  0.00    +0.154 C 
ATOM     23  C   UNL     1      48.195  13.083  14.914  0.00  0.00    +0.166 C 
ATOM     26  C   UNL     1      49.366  12.528  14.097  0.00  0.00    +0.150 C 
ATOM     29  C   UNL     1      50.681  12.988  14.733  0.00  0.00    +0.131 C 
ATOM     32  C   UNL     1      50.721  12.529  16.194  0.00  0.00    +0.104 C 
ATOM     36  O   UNL     1      49.588  13.055  16.889  0.00  0.00    -0.293 OA
BRANCH  23  24
ATOM     24  O   UNL     1      46.963  12.602  14.373  0.00  0.00    -0.547 OA
ATOM     25  H   UNL     1      46.594  11.845  14.849  0.00  0.00    +0.378 HD
ENDBRANCH  23  24
BRANCH  26  27
ATOM     27  O   UNL     1      49.286  13.014  12.756  0.00  0.00    -0.562 OA
ATOM     28  H   UNL     1      48.806  12.429  12.154  0.00  0.00    +0.383 HD
ENDBRANCH  26  27
BRANCH  29  30
ATOM     30  O   UNL     1      51.781  12.418  14.022  0.00  0.00    -0.567 OA
ATOM     31  H   UNL     1      51.590  12.218  13.095  0.00  0.00    +0.382 HD
ENDBRANCH  29  30
BRANCH  32  33
ATOM     33  C   UNL     1      52.005  13.036  16.853  0.00  0.00    +0.194 C 
BRANCH  33  34
ATOM     34  O   UNL     1      52.911  11.945  17.031  0.00  0.00    -0.548 OA
ATOM     35  H   UNL     1      52.478  11.098  17.207  0.00  0.00    +0.375 HD
ENDBRANCH  33  34
ENDBRANCH  32  33
ENDBRANCH  21  22
BRANCH  13  14
ATOM     14  C   UNL     1      52.206  19.205  16.491  0.00  0.00    +0.507 C 
ATOM     15  O   UNL     1      52.366  18.236  15.769  0.00  0.00    -0.705 OA
ATOM     16  O   UNL     1      52.482  20.321  16.083  0.00  0.00    -0.703 OA
ENDBRANCH  13  14
BRANCH  37  38
ATOM     38  C   UNL     1      45.744  12.996  19.146  0.00  0.00    +0.501 C 
ATOM     39  O   UNL     1      45.543  13.276  20.315  0.00  0.00    -0.680 OA
ATOM     40  O   UNL     1      44.806  12.901  18.372  0.00  0.00    -0.703 OA
ENDBRANCH  37  38
BRANCH   9  10
ATOM     10  O   UNL     1      52.221  18.385  20.853  0.00  0.00    -0.564 OA
ATOM     11  H   UNL     1      53.165  18.355  21.060  0.00  0.00    +0.364 HD
ENDBRANCH   9  10
TORSDOF 9
ENDMDL
MODEL 3
REMARK VINA RESULT:      -5.3      2.347      6.120
REMARK  Name = ZINC95486244
REMARK  15 active torsions:
REMARK  status: ('A' for Active; 'I' for Inactive)
REMARK    1  A    between atoms: C1_1  and  C2_2
REMARK    2  A    between atoms: C6_7  and  C36_56
REMARK    3  A    between atoms: C11_13  and  C29_45
REMARK    4  A    between atoms: C13_15  and  C23_29
REMARK    5  A    between atoms: C14_17  and  C22_26
REMARK    6  A    between atoms: C17_21  and  C20_24
REMARK    7  A    between atoms: C17_21  and  C21_25
REMARK    8  A    between atoms: C24_31  and  O7_44
REMARK    9  A    between atoms: C25_33  and  O6_43
REMARK   10  A    between atoms: C26_35  and  O5_42
REMARK   11  A    between atoms: C27_37  and  C28_40
REMARK   12  A    between atoms: C28_40  and  O4_41
REMARK   13  A    between atoms: C31_47  and  O10_55
REMARK   14  A    between atoms: C33_50  and  C34_51
REMARK   15  A    between atoms: C33_50  and  C35_52
REMARK                            x       y       z     vdW  Elec       q    Type
REMARK                         _______ _______ _______ _____ _____    ______ ____
ROOT
ATOM      1  C   UNL     1      51.424  13.361  20.297  0.00  0.00    +0.001 C 
ATOM      2  C   UNL     1      50.668  13.586  18.948  0.00  0.00    -0.021 C 
ATOM      3  C   UNL     1      51.752  13.466  17.879  0.00  0.00    -0.001 C 
ATOM      4  C   UNL     1      51.259  13.132  16.488  0.00  0.00    +0.011 C 
ATOM      5  C   UNL     1      50.239  12.009  16.404  0.00  0.00    +0.023 C 
ATOM      6  C   UNL     1      49.176  12.033  17.479  0.00  0.00    -0.015 C 
ATOM      7  C   UNL     1      48.700  10.555  17.670  0.00  0.00    -0.002 C 
ATOM      8  C   UNL     1      47.933  12.849  17.177  0.00  0.00    +0.049 C 
ATOM      9  C   UNL     1      47.445  12.772  15.744  0.00  0.00    +0.141 C 
ATOM     12  C   UNL     1      48.579  12.931  14.749  0.00  0.00    +0.007 C 
ATOM     13  C   UNL     1      49.699  11.924  14.976  0.00  0.00    -0.111 C 
ATOM     17  C   UNL     1      49.232  10.507  14.631  0.00  0.00    +0.013 C 
ATOM     18  C   UNL     1      50.041  14.966  18.988  0.00  0.00    +0.022 C 
ATOM     19  C   UNL     1      49.934  15.475  17.543  0.00  0.00    +0.046 C 
ATOM     20  C   UNL     1      50.901  15.977  19.750  0.00  0.00    +0.042 C 
ATOM     21  C   UNL     1      50.256  17.351  19.910  0.00  0.00    +0.036 C 
ATOM     37  C   UNL     1      48.849  17.301  20.476  0.00  0.00    -0.093 C 
ATOM     41  C   UNL     1      47.940  16.296  19.794  0.00  0.00    +0.036 C 
ATOM     42  C   UNL     1      47.291  16.806  18.526  0.00  0.00    +0.049 C 
ATOM     43  C   UNL     1      46.504  18.090  18.803  0.00  0.00    -0.053 C 
ATOM     44  C   UNL     1      45.370  17.824  19.787  0.00  0.00    +0.005 C 
ATOM     45  C   UNL     1      45.905  18.593  17.483  0.00  0.00    +0.011 C 
ATOM     46  C   UNL     1      47.452  19.149  19.349  0.00  0.00    -0.010 C 
ATOM     47  C   UNL     1      48.220  18.686  20.567  0.00  0.00    +0.010 C 
ATOM     48  C   UNL     1      48.663  14.981  19.580  0.00  0.00    -0.048 C 
ATOM     49  C   UNL     1      48.032  13.906  19.954  0.00  0.00    -0.105 C 
ATOM     50  C   UNL     1      48.587  12.523  19.875  0.00  0.00    +0.045 C 
ATOM     51  C   UNL     1      49.713  12.417  18.853  0.00  0.00    -0.007 C 
ENDROOT
BRANCH  21  22
ATOM     22  C   UNL     1      50.415  18.260  18.691  0.00  0.00    +0.154 C 
ATOM     23  C   UNL     1      51.203  19.512  19.086  0.00  0.00    +0.166 C 
ATOM     26  C   UNL     1      51.411  20.388  17.847  0.00  0.00    +0.150 C 
ATOM     29  C   UNL     1      52.124  19.568  16.768  0.00  0.00    +0.131 C 
ATOM     32  C   UNL     1      51.300  18.314  16.463  0.00  0.00    +0.104 C 
ATOM     36  O   UNL     1      51.119  17.560  17.663  0.00  0.00    -0.293 OA
BRANCH  23  24
ATOM     24  O   UNL     1      50.474  20.243  20.073  0.00  0.00    -0.547 OA
ATOM     25  H   UNL     1      51.020  20.842  20.601  0.00  0.00    +0.378 HD
ENDBRANCH  23  24
BRANCH  26  27
ATOM     27  O   UNL     1      52.206  21.523  18.192  0.00  0.00    -0.562 OA
ATOM     28  H   UNL     1      52.069  21.840  19.096  0.00  0.00    +0.383 HD
ENDBRANCH  26  27
BRANCH  29  30
ATOM     30  O   UNL     1      52.259  20.353  15.583  0.00  0.00    -0.567 OA
ATOM     31  H   UNL     1      53.172  20.447  15.274  0.00  0.00    +0.382 HD
ENDBRANCH  29  30
BRANCH  32  33
ATOM     33  C   UNL     1      52.037  17.460  15.429  0.00  0.00    +0.194 C 
BRANCH  33  34
ATOM     34  O   UNL     1      52.598  16.314  16.071  0.00  0.00    -0.548 OA
ATOM     35  H   UNL     1      53.260  16.524  16.744  0.00  0.00    +0.375 HD
ENDBRANCH  33  34
ENDBRANCH  32  33
ENDBRANCH  21  22
BRANCH  13  14
ATOM     14  C   UNL     1      50.809  12.252  13.985  0.00  0.00    +0.507 C 
ATOM     15  O   UNL     1      50.820  13.331  13.418  0.00  0.00    -0.705 OA
ATOM     16  O   UNL     1      51.685  11.435  13.759  0.00  0.00    -0.703 OA
ENDBRANCH  13  14
BRANCH  37  38
ATOM     38  C   UNL     1      48.990  16.831  21.928  0.00  0.00    +0.501 C 
ATOM     39  O   UNL     1      48.035  16.341  22.506  0.00  0.00    -0.680 OA
ATOM     40  O   UNL     1      50.058  16.947  22.505  0.00  0.00    -0.703 OA
ENDBRANCH  37  38
BRANCH   9  10
ATOM     10  O   UNL     1      46.697  11.582  15.517  0.00  0.00    -0.564 OA
ATOM     11  H   UNL     1      46.738  10.946  16.244  0.00  0.00    +0.364 HD
ENDBRANCH   9  10
TORSDOF 9
ENDMDL
MODEL 4
REMARK VINA RESULT:      -5.2      2.783      5.650
REMARK  Name = ZINC95486244
REMARK  15 active torsions:
REMARK  status: ('A' for Active; 'I' for Inactive)
REMARK    1  A    between atoms: C1_1  and  C2_2
REMARK    2  A    between atoms: C6_7  and  C36_56
REMARK    3  A    between atoms: C11_13  and  C29_45
REMARK    4  A    between atoms: C13_15  and  C23_29
REMARK    5  A    between atoms: C14_17  and  C22_26
REMARK    6  A    between atoms: C17_21  and  C20_24
REMARK    7  A    between atoms: C17_21  and  C21_25
REMARK    8  A    between atoms: C24_31  and  O7_44
REMARK    9  A    between atoms: C25_33  and  O6_43
REMARK   10  A    between atoms: C26_35  and  O5_42
REMARK   11  A    between atoms: C27_37  and  C28_40
REMARK   12  A    between atoms: C28_40  and  O4_41
REMARK   13  A    between atoms: C31_47  and  O10_55
REMARK   14  A    between atoms: C33_50  and  C34_51
REMARK   15  A    between atoms: C33_50  and  C35_52
REMARK                            x       y       z     vdW  Elec       q    Type
REMARK                         _______ _______ _______ _____ _____    ______ ____
ROOT
ATOM      1  C   UNL     1      50.549  18.017  16.315  0.00  0.00    +0.001 C 
ATOM      2  C   UNL     1      50.586  18.039  17.877  0.00  0.00    -0.021 C 
ATOM      3  C   UNL     1      51.910  18.721  18.216  0.00  0.00    -0.001 C 
ATOM      4  C   UNL     1      51.990  19.335  19.598  0.00  0.00    +0.011 C 
ATOM      5  C   UNL     1      50.788  20.164  20.019  0.00  0.00    +0.023 C 
ATOM      6  C   UNL     1      49.446  19.574  19.650  0.00  0.00    -0.015 C 
ATOM      7  C   UNL     1      48.453  20.774  19.509  0.00  0.00    -0.002 C 
ATOM      8  C   UNL     1      48.830  18.622  20.658  0.00  0.00    +0.049 C 
ATOM      9  C   UNL     1      49.022  19.011  22.110  0.00  0.00    +0.141 C 
ATOM     12  C   UNL     1      50.452  19.425  22.404  0.00  0.00    +0.007 C 
ATOM     13  C   UNL     1      50.932  20.547  21.492  0.00  0.00    -0.111 C 
ATOM     17  C   UNL     1      50.201  21.854  21.811  0.00  0.00    +0.013 C 
ATOM     18  C   UNL     1      50.530  16.605  18.367  0.00  0.00    +0.022 C 
ATOM     19  C   UNL     1      51.246  16.544  19.723  0.00  0.00    +0.046 C 
ATOM     20  C   UNL     1      51.264  15.639  17.435  0.00  0.00    +0.042 C 
ATOM     21  C   UNL     1      51.138  14.171  17.830  0.00  0.00    +0.036 C 
ATOM     37  C   UNL     1      49.706  13.722  18.057  0.00  0.00    -0.093 C 
ATOM     41  C   UNL     1      48.898  14.647  18.947  0.00  0.00    +0.036 C 
ATOM     42  C   UNL     1      49.088  14.406  20.428  0.00  0.00    +0.049 C 
ATOM     43  C   UNL     1      48.762  12.954  20.784  0.00  0.00    -0.053 C 
ATOM     44  C   UNL     1      47.299  12.642  20.484  0.00  0.00    +0.005 C 
ATOM     45  C   UNL     1      49.014  12.746  22.283  0.00  0.00    +0.011 C 
ATOM     46  C   UNL     1      49.680  12.028  19.997  0.00  0.00    -0.010 C 
ATOM     47  C   UNL     1      49.626  12.268  18.504  0.00  0.00    +0.010 C 
ATOM     48  C   UNL     1      49.133  16.096  18.565  0.00  0.00    -0.048 C 
ATOM     49  C   UNL     1      48.072  16.832  18.409  0.00  0.00    -0.105 C 
ATOM     50  C   UNL     1      48.086  18.264  17.988  0.00  0.00    +0.045 C 
ATOM     51  C   UNL     1      49.428  18.929  18.268  0.00  0.00    -0.007 C 
ENDROOT
BRANCH  21  22
ATOM     22  C   UNL     1      52.117  13.732  18.920  0.00  0.00    +0.154 C 
ATOM     23  C   UNL     1      52.996  12.596  18.390  0.00  0.00    +0.166 C 
ATOM     26  C   UNL     1      54.014  12.203  19.465  0.00  0.00    +0.150 C 
ATOM     29  C   UNL     1      54.832  13.439  19.854  0.00  0.00    +0.131 C 
ATOM     32  C   UNL     1      53.881  14.542  20.328  0.00  0.00    +0.104 C 
ATOM     36  O   UNL     1      52.942  14.838  19.292  0.00  0.00    -0.293 OA
BRANCH  23  24
ATOM     24  O   UNL     1      52.178  11.470  18.071  0.00  0.00    -0.547 OA
ATOM     25  H   UNL     1      51.749  11.065  18.838  0.00  0.00    +0.378 HD
ENDBRANCH  23  24
BRANCH  26  27
ATOM     27  O   UNL     1      54.884  11.194  18.953  0.00  0.00    -0.562 OA
ATOM     28  H   UNL     1      55.819  11.443  18.954  0.00  0.00    +0.383 HD
ENDBRANCH  26  27
BRANCH  29  30
ATOM     30  O   UNL     1      55.736  13.101  20.907  0.00  0.00    -0.567 OA
ATOM     31  H   UNL     1      56.498  13.693  20.978  0.00  0.00    +0.382 HD
ENDBRANCH  29  30
BRANCH  32  33
ATOM     33  C   UNL     1      54.687  15.799  20.661  0.00  0.00    +0.194 C 
BRANCH  33  34
ATOM     34  O   UNL     1      55.741  15.956  19.709  0.00  0.00    -0.548 OA
ATOM     35  H   UNL     1      55.604  15.469  18.885  0.00  0.00    +0.375 HD
ENDBRANCH  33  34
ENDBRANCH  32  33
ENDBRANCH  21  22
BRANCH  13  14
ATOM     14  C   UNL     1      52.399  20.797  21.819  0.00  0.00    +0.507 C 
ATOM     15  O   UNL     1      53.015  20.000  22.505  0.00  0.00    -0.705 OA
ATOM     16  O   UNL     1      52.956  21.795  21.395  0.00  0.00    -0.703 OA
ENDBRANCH  13  14
BRANCH  37  38
ATOM     38  C   UNL     1      49.027  13.753  16.682  0.00  0.00    +0.501 C 
ATOM     39  O   UNL     1      47.823  13.926  16.601  0.00  0.00    -0.680 OA
ATOM     40  O   UNL     1      49.692  13.606  15.671  0.00  0.00    -0.703 OA
ENDBRANCH  37  38
BRANCH   9  10
ATOM     10  O   UNL     1      48.085  20.008  22.505  0.00  0.00    -0.564 OA
ATOM     11  H   UNL     1      48.217  20.338  23.405  0.00  0.00    +0.364 HD
ENDBRANCH   9  10
TORSDOF 9
ENDMDL
MODEL 5
REMARK VINA RESULT:      -5.1      2.309      6.399
REMARK  Name = ZINC95486244
REMARK  15 active torsions:
REMARK  status: ('A' for Active; 'I' for Inactive)
REMARK    1  A    between atoms: C1_1  and  C2_2
REMARK    2  A    between atoms: C6_7  and  C36_56
REMARK    3  A    between atoms: C11_13  and  C29_45
REMARK    4  A    between atoms: C13_15  and  C23_29
REMARK    5  A    between atoms: C14_17  and  C22_26
REMARK    6  A    between atoms: C17_21  and  C20_24
REMARK    7  A    between atoms: C17_21  and  C21_25
REMARK    8  A    between atoms: C24_31  and  O7_44
REMARK    9  A    between atoms: C25_33  and  O6_43
REMARK   10  A    between atoms: C26_35  and  O5_42
REMARK   11  A    between atoms: C27_37  and  C28_40
REMARK   12  A    between atoms: C28_40  and  O4_41
REMARK   13  A    between atoms: C31_47  and  O10_55
REMARK   14  A    between atoms: C33_50  and  C34_51
REMARK   15  A    between atoms: C33_50  and  C35_52
REMARK                            x       y       z     vdW  Elec       q    Type
REMARK                         _______ _______ _______ _____ _____    ______ ____
ROOT
ATOM      1  C   UNL     1      52.364  15.881  22.042  0.00  0.00    +0.001 C 
ATOM      2  C   UNL     1      51.573  16.365  20.785  0.00  0.00    -0.021 C 
ATOM      3  C   UNL     1      50.411  17.176  21.355  0.00  0.00    -0.001 C 
ATOM      4  C   UNL     1      49.785  18.174  20.404  0.00  0.00    +0.011 C 
ATOM      5  C   UNL     1      50.761  19.035  19.620  0.00  0.00    +0.023 C 
ATOM      6  C   UNL     1      51.970  18.302  19.085  0.00  0.00    -0.015 C 
ATOM      7  C   UNL     1      53.114  19.361  18.957  0.00  0.00    -0.002 C 
ATOM      8  C   UNL     1      51.819  17.664  17.717  0.00  0.00    +0.049 C 
ATOM      9  C   UNL     1      51.020  18.473  16.714  0.00  0.00    +0.141 C 
ATOM     12  C   UNL     1      49.740  19.019  17.317  0.00  0.00    +0.007 C 
ATOM     13  C   UNL     1      49.992  19.842  18.574  0.00  0.00    -0.111 C 
ATOM     17  C   UNL     1      50.709  21.152  18.229  0.00  0.00    +0.013 C 
ATOM     18  C   UNL     1      51.106  15.140  20.024  0.00  0.00    +0.022 C 
ATOM     19  C   UNL     1      49.822  15.514  19.272  0.00  0.00    +0.046 C 
ATOM     20  C   UNL     1      50.752  13.975  20.952  0.00  0.00    +0.042 C 
ATOM     21  C   UNL     1      50.385  12.685  20.224  0.00  0.00    +0.036 C 
ATOM     37  C   UNL     1      51.406  12.259  19.186  0.00  0.00    -0.093 C 
ATOM     41  C   UNL     1      51.837  13.368  18.245  0.00  0.00    +0.036 C 
ATOM     42  C   UNL     1      50.904  13.585  17.073  0.00  0.00    +0.049 C 
ATOM     43  C   UNL     1      50.729  12.289  16.277  0.00  0.00    -0.053 C 
ATOM     44  C   UNL     1      52.061  11.838  15.687  0.00  0.00    +0.005 C 
ATOM     45  C   UNL     1      49.742  12.545  15.132  0.00  0.00    +0.011 C 
ATOM     46  C   UNL     1      50.155  11.215  17.192  0.00  0.00    -0.010 C 
ATOM     47  C   UNL     1      50.977  11.000  18.443  0.00  0.00    +0.010 C 
ATOM     48  C   UNL     1      52.100  14.649  19.014  0.00  0.00    -0.048 C 
ATOM     49  C   UNL     1      53.221  15.257  18.755  0.00  0.00    -0.105 C 
ATOM     50  C   UNL     1      53.690  16.499  19.437  0.00  0.00    +0.045 C 
ATOM     51  C   UNL     1      52.538  17.278  20.061  0.00  0.00    -0.007 C 
ENDROOT
BRANCH  21  22
ATOM     22  C   UNL     1      48.935  12.633  19.742  0.00  0.00    +0.154 C 
ATOM     23  C   UNL     1      47.995  12.933  20.913  0.00  0.00    +0.166 C 
ATOM     26  C   UNL     1      46.549  12.939  20.410  0.00  0.00    +0.150 C 
ATOM     29  C   UNL     1      46.416  13.965  19.281  0.00  0.00    +0.131 C 
ATOM     32  C   UNL     1      47.417  13.625  18.172  0.00  0.00    +0.104 C 
ATOM     36  O   UNL     1      48.739  13.607  18.714  0.00  0.00    -0.293 OA
BRANCH  23  24
ATOM     24  O   UNL     1      48.150  11.929  21.917  0.00  0.00    -0.547 OA
ATOM     25  H   UNL     1      47.812  11.060  21.659  0.00  0.00    +0.378 HD
ENDBRANCH  23  24
BRANCH  26  27
ATOM     27  O   UNL     1      45.672  13.288  21.481  0.00  0.00    -0.562 OA
ATOM     28  H   UNL     1      44.951  12.658  21.622  0.00  0.00    +0.383 HD
ENDBRANCH  26  27
BRANCH  29  30
ATOM     30  O   UNL     1      45.088  13.928  18.756  0.00  0.00    -0.567 OA
ATOM     31  H   UNL     1      44.399  13.864  19.431  0.00  0.00    +0.382 HD
ENDBRANCH  29  30
BRANCH  32  33
ATOM     33  C   UNL     1      47.331  14.680  17.068  0.00  0.00    +0.194 C 
BRANCH  33  34
ATOM     34  O   UNL     1      46.589  14.156  15.965  0.00  0.00    -0.548 OA
ATOM     35  H   UNL     1      45.879  13.551  16.220  0.00  0.00    +0.375 HD
ENDBRANCH  33  34
ENDBRANCH  32  33
ENDBRANCH  21  22
BRANCH  13  14
ATOM     14  C   UNL     1      48.632  20.244  19.130  0.00  0.00    +0.507 C 
ATOM     15  O   UNL     1      47.625  19.667  18.755  0.00  0.00    -0.705 OA
ATOM     16  O   UNL     1      48.549  21.143  19.950  0.00  0.00    -0.703 OA
ENDBRANCH  13  14
BRANCH  37  38
ATOM     38  C   UNL     1      52.662  11.852  19.966  0.00  0.00    +0.501 C 
ATOM     39  O   UNL     1      52.574  11.529  21.137  0.00  0.00    -0.680 OA
ATOM     40  O   UNL     1      53.749  11.850  19.412  0.00  0.00    -0.703 OA
ENDBRANCH  37  38
BRANCH   9  10
ATOM     10  O   UNL     1      51.816  19.499  16.128  0.00  0.00    -0.564 OA
ATOM     11  H   UNL     1      52.735  19.243  15.972  0.00  0.00    +0.364 HD
ENDBRANCH   9  10
TORSDOF 9
ENDMDL
MODEL 6
REMARK VINA RESULT:      -5.1      1.784      2.830
REMARK  Name = ZINC95486244
REMARK  15 active torsions:
REMARK  status: ('A' for Active; 'I' for Inactive)
REMARK    1  A    between atoms: C1_1  and  C2_2
REMARK    2  A    between atoms: C6_7  and  C36_56
REMARK    3  A    between atoms: C11_13  and  C29_45
REMARK    4  A    between atoms: C13_15  and  C23_29
REMARK    5  A    between atoms: C14_17  and  C22_26
REMARK    6  A    between atoms: C17_21  and  C20_24
REMARK    7  A    between atoms: C17_21  and  C21_25
REMARK    8  A    between atoms: C24_31  and  O7_44
REMARK    9  A    between atoms: C25_33  and  O6_43
REMARK   10  A    between atoms: C26_35  and  O5_42
REMARK   11  A    between atoms: C27_37  and  C28_40
REMARK   12  A    between atoms: C28_40  and  O4_41
REMARK   13  A    between atoms: C31_47  and  O10_55
REMARK   14  A    between atoms: C33_50  and  C34_51
REMARK   15  A    between atoms: C33_50  and  C35_52
REMARK                            x       y       z     vdW  Elec       q    Type
REMARK                         _______ _______ _______ _____ _____    ______ ____
ROOT
ATOM      1  C   UNL     1      47.190  16.830  16.466  0.00  0.00    +0.001 C 
ATOM      2  C   UNL     1      47.238  16.639  18.016  0.00  0.00    -0.021 C 
ATOM      3  C   UNL     1      46.373  17.772  18.566  0.00  0.00    -0.001 C 
ATOM      4  C   UNL     1      45.823  17.553  19.959  0.00  0.00    +0.011 C 
ATOM      5  C   UNL     1      45.214  16.184  20.217  0.00  0.00    +0.023 C 
ATOM      6  C   UNL     1      45.990  15.023  19.637  0.00  0.00    -0.015 C 
ATOM      7  C   UNL     1      44.955  13.878  19.380  0.00  0.00    -0.002 C 
ATOM      8  C   UNL     1      47.075  14.432  20.518  0.00  0.00    +0.049 C 
ATOM      9  C   UNL     1      46.732  14.348  21.992  0.00  0.00    +0.141 C 
ATOM     12  C   UNL     1      46.113  15.634  22.505  0.00  0.00    +0.007 C 
ATOM     13  C   UNL     1      44.886  16.051  21.704  0.00  0.00    -0.111 C 
ATOM     17  C   UNL     1      43.727  15.079  21.943  0.00  0.00    +0.013 C 
ATOM     18  C   UNL     1      48.685  16.747  18.456  0.00  0.00    +0.022 C 
ATOM     19  C   UNL     1      48.699  17.263  19.902  0.00  0.00    +0.046 C 
ATOM     20  C   UNL     1      49.477  17.755  17.620  0.00  0.00    +0.042 C 
ATOM     21  C   UNL     1      50.964  17.814  17.955  0.00  0.00    +0.036 C 
ATOM     37  C   UNL     1      51.643  16.457  17.955  0.00  0.00    -0.093 C 
ATOM     41  C   UNL     1      50.901  15.390  18.737  0.00  0.00    +0.036 C 
ATOM     42  C   UNL     1      51.181  15.403  20.224  0.00  0.00    +0.049 C 
ATOM     43  C   UNL     1      52.682  15.269  20.490  0.00  0.00    -0.053 C 
ATOM     44  C   UNL     1      53.205  13.935  19.968  0.00  0.00    +0.005 C 
ATOM     45  C   UNL     1      52.920  15.335  22.004  0.00  0.00    +0.011 C 
ATOM     46  C   UNL     1      53.412  16.429  19.826  0.00  0.00    -0.010 C 
ATOM     47  C   UNL     1      53.112  16.551  18.349  0.00  0.00    +0.010 C 
ATOM     48  C   UNL     1      49.417  15.438  18.431  0.00  0.00    -0.048 C 
ATOM     49  C   UNL     1      48.850  14.305  18.136  0.00  0.00    -0.105 C 
ATOM     50  C   UNL     1      47.415  14.146  17.758  0.00  0.00    +0.045 C 
ATOM     51  C   UNL     1      46.561  15.308  18.253  0.00  0.00    -0.007 C 
ENDROOT
BRANCH  21  22
ATOM     22  C   UNL     1      51.296  18.685  19.168  0.00  0.00    +0.154 C 
ATOM     23  C   UNL     1      52.092  19.912  18.713  0.00  0.00    +0.166 C 
ATOM     26  C   UNL     1      52.368  20.809  19.923  0.00  0.00    +0.150 C 
ATOM     29  C   UNL     1      51.036  21.190  20.577  0.00  0.00    +0.131 C 
ATOM     32  C   UNL     1      50.281  19.914  20.960  0.00  0.00    +0.104 C 
ATOM     36  O   UNL     1      50.084  19.110  19.795  0.00  0.00    -0.293 OA
BRANCH  23  24
ATOM     24  O   UNL     1      53.329  19.491  18.137  0.00  0.00    -0.547 OA
ATOM     25  H   UNL     1      53.887  20.219  17.830  0.00  0.00    +0.378 HD
ENDBRANCH  23  24
BRANCH  26  27
ATOM     27  O   UNL     1      53.047  21.991  19.496  0.00  0.00    -0.562 OA
ATOM     28  H   UNL     1      53.723  21.834  18.821  0.00  0.00    +0.383 HD
ENDBRANCH  26  27
BRANCH  29  30
ATOM     30  O   UNL     1      51.285  21.969  21.748  0.00  0.00    -0.567 OA
ATOM     31  H   UNL     1      51.893  21.554  22.376  0.00  0.00    +0.382 HD
ENDBRANCH  29  30
BRANCH  32  33
ATOM     33  C   UNL     1      48.924  20.285  21.560  0.00  0.00    +0.194 C 
BRANCH  33  34
ATOM     34  O   UNL     1      48.005  20.589  20.508  0.00  0.00    -0.548 OA
ATOM     35  H   UNL     1      47.264  19.972  20.441  0.00  0.00    +0.375 HD
ENDBRANCH  33  34
ENDBRANCH  32  33
ENDBRANCH  21  22
BRANCH  13  14
ATOM     14  C   UNL     1      44.424  17.396  22.252  0.00  0.00    +0.507 C 
ATOM     15  O   UNL     1      45.242  18.265  22.503  0.00  0.00    -0.705 OA
ATOM     16  O   UNL     1      43.238  17.602  22.441  0.00  0.00    -0.703 OA
ENDBRANCH  13  14
BRANCH  37  38
ATOM     38  C   UNL     1      51.653  15.985  16.496  0.00  0.00    +0.501 C 
ATOM     39  O   UNL     1      51.863  16.783  15.599  0.00  0.00    -0.680 OA
ATOM     40  O   UNL     1      51.451  14.812  16.233  0.00  0.00    -0.703 OA
ENDBRANCH  37  38
BRANCH   9  10
ATOM     10  O   UNL     1      45.915  13.214  22.268  0.00  0.00    -0.564 OA
ATOM     11  H   UNL     1      44.970  13.412  22.316  0.00  0.00    +0.364 HD
ENDBRANCH   9  10
TORSDOF 9
ENDMDL
MODEL 7
REMARK VINA RESULT:      -4.9      3.263      7.708
REMARK  Name = ZINC95486244
REMARK  15 active torsions:
REMARK  status: ('A' for Active; 'I' for Inactive)
REMARK    1  A    between atoms: C1_1  and  C2_2
REMARK    2  A    between atoms: C6_7  and  C36_56
REMARK    3  A    between atoms: C11_13  and  C29_45
REMARK    4  A    between atoms: C13_15  and  C23_29
REMARK    5  A    between atoms: C14_17  and  C22_26
REMARK    6  A    between atoms: C17_21  and  C20_24
REMARK    7  A    between atoms: C17_21  and  C21_25
REMARK    8  A    between atoms: C24_31  and  O7_44
REMARK    9  A    between atoms: C25_33  and  O6_43
REMARK   10  A    between atoms: C26_35  and  O5_42
REMARK   11  A    between atoms: C27_37  and  C28_40
REMARK   12  A    between atoms: C28_40  and  O4_41
REMARK   13  A    between atoms: C31_47  and  O10_55
REMARK   14  A    between atoms: C33_50  and  C34_51
REMARK   15  A    between atoms: C33_50  and  C35_52
REMARK                            x       y       z     vdW  Elec       q    Type
REMARK                         _______ _______ _______ _____ _____    ______ ____
ROOT
ATOM      1  C   UNL     1      51.001  12.551  22.503  0.00  0.00    +0.001 C 
ATOM      2  C   UNL     1      52.130  13.016  21.528  0.00  0.00    -0.021 C 
ATOM      3  C   UNL     1      52.624  14.336  22.118  0.00  0.00    -0.001 C 
ATOM      4  C   UNL     1      54.017  14.754  21.701  0.00  0.00    +0.011 C 
ATOM      5  C   UNL     1      55.075  13.664  21.758  0.00  0.00    +0.023 C 
ATOM      6  C   UNL     1      54.625  12.313  21.250  0.00  0.00    -0.015 C 
ATOM      7  C   UNL     1      55.498  11.245  21.987  0.00  0.00    -0.002 C 
ATOM      8  C   UNL     1      54.801  12.061  19.764  0.00  0.00    +0.049 C 
ATOM      9  C   UNL     1      56.075  12.620  19.163  0.00  0.00    +0.141 C 
ATOM     12  C   UNL     1      56.337  14.046  19.611  0.00  0.00    +0.007 C 
ATOM     13  C   UNL     1      56.367  14.183  21.128  0.00  0.00    -0.111 C 
ATOM     17  C   UNL     1      57.601  13.486  21.710  0.00  0.00    +0.013 C 
ATOM     18  C   UNL     1      51.518  13.189  20.152  0.00  0.00    +0.022 C 
ATOM     19  C   UNL     1      52.333  14.254  19.405  0.00  0.00    +0.046 C 
ATOM     20  C   UNL     1      50.076  13.699  20.213  0.00  0.00    +0.042 C 
ATOM     21  C   UNL     1      49.383  13.781  18.856  0.00  0.00    +0.036 C 
ATOM     37  C   UNL     1      49.471  12.499  18.048  0.00  0.00    -0.093 C 
ATOM     41  C   UNL     1      50.866  11.909  17.967  0.00  0.00    +0.036 C 
ATOM     42  C   UNL     1      51.735  12.516  16.886  0.00  0.00    +0.049 C 
ATOM     43  C   UNL     1      51.056  12.394  15.520  0.00  0.00    -0.053 C 
ATOM     44  C   UNL     1      50.865  10.928  15.143  0.00  0.00    +0.005 C 
ATOM     45  C   UNL     1      51.949  13.062  14.466  0.00  0.00    +0.011 C 
ATOM     46  C   UNL     1      49.717  13.117  15.560  0.00  0.00    -0.010 C 
ATOM     47  C   UNL     1      48.818  12.639  16.679  0.00  0.00    +0.010 C 
ATOM     48  C   UNL     1      51.538  11.937  19.326  0.00  0.00    -0.048 C 
ATOM     49  C   UNL     1      52.096  10.829  19.718  0.00  0.00    -0.105 C 
ATOM     50  C   UNL     1      52.763  10.634  21.039  0.00  0.00    +0.045 C 
ATOM     51  C   UNL     1      53.200  11.956  21.658  0.00  0.00    -0.007 C 
ENDROOT
BRANCH  21  22
ATOM     22  C   UNL     1      49.710  15.049  18.065  0.00  0.00    +0.154 C 
ATOM     23  C   UNL     1      48.462  15.930  17.974  0.00  0.00    +0.166 C 
ATOM     26  C   UNL     1      48.811  17.224  17.234  0.00  0.00    +0.150 C 
ATOM     29  C   UNL     1      49.964  17.921  17.963  0.00  0.00    +0.131 C 
ATOM     32  C   UNL     1      51.155  16.963  18.054  0.00  0.00    +0.104 C 
ATOM     36  O   UNL     1      50.753  15.768  18.727  0.00  0.00    -0.293 OA
BRANCH  23  24
ATOM     24  O   UNL     1      47.436  15.234  17.264  0.00  0.00    -0.547 OA
ATOM     25  H   UNL     1      47.088  14.462  17.732  0.00  0.00    +0.378 HD
ENDBRANCH  23  24
BRANCH  26  27
ATOM     27  O   UNL     1      47.671  18.083  17.208  0.00  0.00    -0.562 OA
ATOM     28  H   UNL     1      46.864  17.678  17.556  0.00  0.00    +0.383 HD
ENDBRANCH  26  27
BRANCH  29  30
ATOM     30  O   UNL     1      50.347  19.093  17.242  0.00  0.00    -0.567 OA
ATOM     31  H   UNL     1      51.285  19.316  17.320  0.00  0.00    +0.382 HD
ENDBRANCH  29  30
BRANCH  32  33
ATOM     33  C   UNL     1      52.288  17.631  18.834  0.00  0.00    +0.194 C 
BRANCH  33  34
ATOM     34  O   UNL     1      52.967  18.559  17.985  0.00  0.00    -0.548 OA
ATOM     35  H   UNL     1      52.846  18.390  17.040  0.00  0.00    +0.375 HD
ENDBRANCH  33  34
ENDBRANCH  32  33
ENDBRANCH  21  22
BRANCH  13  14
ATOM     14  C   UNL     1      56.536  15.664  21.444  0.00  0.00    +0.507 C 
ATOM     15  O   UNL     1      56.182  16.504  20.634  0.00  0.00    -0.705 OA
ATOM     16  O   UNL     1      57.026  16.009  22.505  0.00  0.00    -0.703 OA
ENDBRANCH  13  14
BRANCH  37  38
ATOM     38  C   UNL     1      48.616  11.467  18.793  0.00  0.00    +0.501 C 
ATOM     39  O   UNL     1      48.790  10.277  18.598  0.00  0.00    -0.680 OA
ATOM     40  O   UNL     1      47.763  11.837  19.581  0.00  0.00    -0.703 OA
ENDBRANCH  37  38
BRANCH   9  10
ATOM     10  O   UNL     1      57.185  11.766  19.421  0.00  0.00    -0.564 OA
ATOM     11  H   UNL     1      57.976  11.983  18.910  0.00  0.00    +0.364 HD
ENDBRANCH   9  10
TORSDOF 9
ENDMDL
MODEL 8
REMARK VINA RESULT:      -4.7      2.164      6.421
REMARK  Name = ZINC95486244
REMARK  15 active torsions:
REMARK  status: ('A' for Active; 'I' for Inactive)
REMARK    1  A    between atoms: C1_1  and  C2_2
REMARK    2  A    between atoms: C6_7  and  C36_56
REMARK    3  A    between atoms: C11_13  and  C29_45
REMARK    4  A    between atoms: C13_15  and  C23_29
REMARK    5  A    between atoms: C14_17  and  C22_26
REMARK    6  A    between atoms: C17_21  and  C20_24
REMARK    7  A    between atoms: C17_21  and  C21_25
REMARK    8  A    between atoms: C24_31  and  O7_44
REMARK    9  A    between atoms: C25_33  and  O6_43
REMARK   10  A    between atoms: C26_35  and  O5_42
REMARK   11  A    between atoms: C27_37  and  C28_40
REMARK   12  A    between atoms: C28_40  and  O4_41
REMARK   13  A    between atoms: C31_47  and  O10_55
REMARK   14  A    between atoms: C33_50  and  C34_51
REMARK   15  A    between atoms: C33_50  and  C35_52
REMARK                            x       y       z     vdW  Elec       q    Type
REMARK                         _______ _______ _______ _____ _____    ______ ____
ROOT
ATOM      1  C   UNL     1      50.549  14.860  16.320  0.00  0.00    +0.001 C 
ATOM      2  C   UNL     1      50.491  14.765  17.878  0.00  0.00    -0.021 C 
ATOM      3  C   UNL     1      49.398  13.735  18.157  0.00  0.00    -0.001 C 
ATOM      4  C   UNL     1      49.464  13.067  19.514  0.00  0.00    +0.011 C 
ATOM      5  C   UNL     1      50.839  12.580  19.940  0.00  0.00    +0.023 C 
ATOM      6  C   UNL     1      51.975  13.527  19.629  0.00  0.00    -0.015 C 
ATOM      7  C   UNL     1      53.260  12.649  19.475  0.00  0.00    -0.002 C 
ATOM      8  C   UNL     1      52.290  14.569  20.686  0.00  0.00    +0.049 C 
ATOM      9  C   UNL     1      52.187  14.084  22.119  0.00  0.00    +0.141 C 
ATOM     12  C   UNL     1      50.919  13.285  22.357  0.00  0.00    +0.007 C 
ATOM     13  C   UNL     1      50.779  12.113  21.394  0.00  0.00    -0.111 C 
ATOM     17  C   UNL     1      51.833  11.042  21.689  0.00  0.00    +0.013 C 
ATOM     18  C   UNL     1      50.146  16.139  18.419  0.00  0.00    +0.022 C 
ATOM     19  C   UNL     1      49.416  15.948  19.756  0.00  0.00    +0.046 C 
ATOM     20  C   UNL     1      49.193  16.906  17.500  0.00  0.00    +0.042 C 
ATOM     21  C   UNL     1      48.907  18.336  17.949  0.00  0.00    +0.036 C 
ATOM     37  C   UNL     1      50.158  19.148  18.231  0.00  0.00    -0.093 C 
ATOM     41  C   UNL     1      51.172  18.442  19.110  0.00  0.00    +0.036 C 
ATOM     42  C   UNL     1      50.897  18.561  20.594  0.00  0.00    +0.049 C 
ATOM     43  C   UNL     1      50.808  20.032  21.008  0.00  0.00    -0.053 C 
ATOM     44  C   UNL     1      52.136  20.741  20.760  0.00  0.00    +0.005 C 
ATOM     45  C   UNL     1      50.483  20.103  22.505  0.00  0.00    +0.011 C 
ATOM     46  C   UNL     1      49.687  20.704  20.228  0.00  0.00    -0.010 C 
ATOM     47  C   UNL     1      49.830  20.549  18.730  0.00  0.00    +0.010 C 
ATOM     48  C   UNL     1      51.347  17.000  18.673  0.00  0.00    -0.048 C 
ATOM     49  C   UNL     1      52.572  16.587  18.521  0.00  0.00    -0.105 C 
ATOM     50  C   UNL     1      52.956  15.224  18.052  0.00  0.00    +0.045 C 
ATOM     51  C   UNL     1      51.841  14.208  18.272  0.00  0.00    -0.007 C 
ENDROOT
BRANCH  21  22
ATOM     22  C   UNL     1      47.826  18.447  19.025  0.00  0.00    +0.154 C 
ATOM     23  C   UNL     1      46.660  19.285  18.494  0.00  0.00    +0.166 C 
ATOM     26  C   UNL     1      45.557  19.342  19.554  0.00  0.00    +0.150 C 
ATOM     29  C   UNL     1      45.131  17.914  19.909  0.00  0.00    +0.131 C 
ATOM     32  C   UNL     1      46.357  17.129  20.386  0.00  0.00    +0.104 C 
ATOM     36  O   UNL     1      47.356  17.141  19.365  0.00  0.00    -0.293 OA
BRANCH  23  24
ATOM     24  O   UNL     1      47.116  20.608  18.206  0.00  0.00    -0.547 OA
ATOM     25  H   UNL     1      46.787  21.280  18.819  0.00  0.00    +0.378 HD
ENDBRANCH  23  24
BRANCH  26  27
ATOM     27  O   UNL     1      44.436  20.062  19.039  0.00  0.00    -0.562 OA
ATOM     28  H   UNL     1      44.666  20.727  18.375  0.00  0.00    +0.383 HD
ENDBRANCH  26  27
BRANCH  29  30
ATOM     30  O   UNL     1      44.152  17.952  20.949  0.00  0.00    -0.567 OA
ATOM     31  H   UNL     1      44.442  17.546  21.778  0.00  0.00    +0.382 HD
ENDBRANCH  29  30
BRANCH  32  33
ATOM     33  C   UNL     1      45.951  15.685  20.686  0.00  0.00    +0.194 C 
BRANCH  33  34
ATOM     34  O   UNL     1      44.947  15.269  19.757  0.00  0.00    -0.548 OA
ATOM     35  H   UNL     1      44.428  15.996  19.387  0.00  0.00    +0.375 HD
ENDBRANCH  33  34
ENDBRANCH  32  33
ENDBRANCH  21  22
BRANCH  13  14
ATOM     14  C   UNL     1      49.430  11.460  21.671  0.00  0.00    +0.507 C 
ATOM     15  O   UNL     1      48.628  12.008  22.407  0.00  0.00    -0.705 OA
ATOM     16  O   UNL     1      49.154  10.390  21.157  0.00  0.00    -0.703 OA
ENDBRANCH  13  14
BRANCH  37  38
ATOM     38  C   UNL     1      50.844  19.358  16.876  0.00  0.00    +0.501 C 
ATOM     39  O   UNL     1      50.479  18.722  15.902  0.00  0.00    -0.680 OA
ATOM     40  O   UNL     1      51.754  20.163  16.772  0.00  0.00    -0.703 OA
ENDBRANCH  37  38
BRANCH   9  10
ATOM     10  O   UNL     1      53.353  13.364  22.505  0.00  0.00    -0.564 OA
ATOM     11  H   UNL     1      53.213  12.756  23.244  0.00  0.00    +0.364 HD
ENDBRANCH   9  10
TORSDOF 9
ENDMDL
MODEL 9
REMARK VINA RESULT:      -4.3      2.327      7.481
REMARK  Name = ZINC95486244
REMARK  15 active torsions:
REMARK  status: ('A' for Active; 'I' for Inactive)
REMARK    1  A    between atoms: C1_1  and  C2_2
REMARK    2  A    between atoms: C6_7  and  C36_56
REMARK    3  A    between atoms: C11_13  and  C29_45
REMARK    4  A    between atoms: C13_15  and  C23_29
REMARK    5  A    between atoms: C14_17  and  C22_26
REMARK    6  A    between atoms: C17_21  and  C20_24
REMARK    7  A    between atoms: C17_21  and  C21_25
REMARK    8  A    between atoms: C24_31  and  O7_44
REMARK    9  A    between atoms: C25_33  and  O6_43
REMARK   10  A    between atoms: C26_35  and  O5_42
REMARK   11  A    between atoms: C27_37  and  C28_40
REMARK   12  A    between atoms: C28_40  and  O4_41
REMARK   13  A    between atoms: C31_47  and  O10_55
REMARK   14  A    between atoms: C33_50  and  C34_51
REMARK   15  A    between atoms: C33_50  and  C35_52
REMARK                            x       y       z     vdW  Elec       q    Type
REMARK                         _______ _______ _______ _____ _____    ______ ____
ROOT
ATOM      1  C   UNL     1      50.938  17.935  16.787  0.00  0.00    +0.001 C 
ATOM      2  C   UNL     1      50.970  16.728  17.780  0.00  0.00    -0.021 C 
ATOM      3  C   UNL     1      51.498  15.563  16.946  0.00  0.00    -0.001 C 
ATOM      4  C   UNL     1      52.110  14.425  17.734  0.00  0.00    +0.011 C 
ATOM      5  C   UNL     1      53.076  14.832  18.835  0.00  0.00    +0.023 C 
ATOM      6  C   UNL     1      52.640  16.026  19.654  0.00  0.00    -0.015 C 
ATOM      7  C   UNL     1      53.946  16.696  20.195  0.00  0.00    -0.002 C 
ATOM      8  C   UNL     1      51.774  15.731  20.864  0.00  0.00    +0.049 C 
ATOM      9  C   UNL     1      52.152  14.481  21.636  0.00  0.00    +0.141 C 
ATOM     12  C   UNL     1      52.401  13.300  20.717  0.00  0.00    +0.007 C 
ATOM     13  C   UNL     1      53.452  13.599  19.656  0.00  0.00    -0.111 C 
ATOM     17  C   UNL     1      54.838  13.744  20.293  0.00  0.00    +0.013 C 
ATOM     18  C   UNL     1      49.556  16.493  18.276  0.00  0.00    +0.022 C 
ATOM     19  C   UNL     1      49.424  15.006  18.632  0.00  0.00    +0.046 C 
ATOM     20  C   UNL     1      48.504  16.786  17.204  0.00  0.00    +0.042 C 
ATOM     21  C   UNL     1      47.063  16.671  17.694  0.00  0.00    +0.036 C 
ATOM     37  C   UNL     1      46.784  17.463  18.957  0.00  0.00    -0.093 C 
ATOM     41  C   UNL     1      47.804  17.253  20.061  0.00  0.00    +0.036 C 
ATOM     42  C   UNL     1      47.555  16.026  20.911  0.00  0.00    +0.049 C 
ATOM     43  C   UNL     1      46.153  16.070  21.523  0.00  0.00    -0.053 C 
ATOM     44  C   UNL     1      46.010  17.270  22.452  0.00  0.00    +0.005 C 
ATOM     45  C   UNL     1      45.931  14.787  22.334  0.00  0.00    +0.011 C 
ATOM     46  C   UNL     1      45.122  16.130  20.404  0.00  0.00    -0.010 C 
ATOM     47  C   UNL     1      45.353  17.277  19.445  0.00  0.00    +0.010 C 
ATOM     48  C   UNL     1      49.212  17.288  19.500  0.00  0.00    -0.048 C 
ATOM     49  C   UNL     1      50.064  18.047  20.126  0.00  0.00    -0.105 C 
ATOM     50  C   UNL     1      51.481  18.258  19.707  0.00  0.00    +0.045 C 
ATOM     51  C   UNL     1      51.990  17.126  18.823  0.00  0.00    -0.007 C 
ENDROOT
BRANCH  21  22
ATOM     22  C   UNL     1      46.525  15.239  17.713  0.00  0.00    +0.154 C 
ATOM     23  C   UNL     1      46.816  14.565  16.370  0.00  0.00    +0.166 C 
ATOM     26  C   UNL     1      46.328  13.115  16.418  0.00  0.00    +0.150 C 
ATOM     29  C   UNL     1      47.008  12.397  17.588  0.00  0.00    +0.131 C 
ATOM     32  C   UNL     1      46.709  13.155  18.884  0.00  0.00    +0.104 C 
ATOM     36  O   UNL     1      47.161  14.505  18.761  0.00  0.00    -0.293 OA
BRANCH  23  24
ATOM     24  O   UNL     1      46.135  15.266  15.327  0.00  0.00    -0.547 OA
ATOM     25  H   UNL     1      46.008  16.208  15.505  0.00  0.00    +0.378 HD
ENDBRANCH  23  24
BRANCH  26  27
ATOM     27  O   UNL     1      46.660  12.458  15.194  0.00  0.00    -0.562 OA
ATOM     28  H   UNL     1      46.265  11.580  15.098  0.00  0.00    +0.383 HD
ENDBRANCH  26  27
BRANCH  29  30
ATOM     30  O   UNL     1      46.507  11.063  17.686  0.00  0.00    -0.567 OA
ATOM     31  H   UNL     1      45.542  11.001  17.652  0.00  0.00    +0.382 HD
ENDBRANCH  29  30
BRANCH  32  33
ATOM     33  C   UNL     1      47.434  12.478  20.049  0.00  0.00    +0.194 C 
BRANCH  33  34
ATOM     34  O   UNL     1      48.515  11.691  19.544  0.00  0.00    -0.548 OA
ATOM     35  H   UNL     1      49.390  12.052  19.739  0.00  0.00    +0.375 HD
ENDBRANCH  33  34
ENDBRANCH  32  33
ENDBRANCH  21  22
BRANCH  13  14
ATOM     14  C   UNL     1      53.535  12.379  18.747  0.00  0.00    +0.507 C 
ATOM     15  O   UNL     1      54.622  11.963  18.383  0.00  0.00    -0.705 OA
ATOM     16  O   UNL     1      52.515  11.821  18.381  0.00  0.00    -0.703 OA
ENDBRANCH  13  14
BRANCH  37  38
ATOM     38  C   UNL     1      46.881  18.942  18.564  0.00  0.00    +0.501 C 
ATOM     39  O   UNL     1      47.345  19.751  19.347  0.00  0.00    -0.680 OA
ATOM     40  O   UNL     1      46.495  19.307  17.466  0.00  0.00    -0.703 OA
ENDBRANCH  37  38
BRANCH   9  10
ATOM     10  O   UNL     1      53.253  14.724  22.505  0.00  0.00    -0.564 OA
ATOM     11  H   UNL     1      52.999  15.037  23.384  0.00  0.00    +0.364 HD
ENDBRANCH   9  10
TORSDOF 9
ENDMDL
