MODEL 1
REMARK VINA RESULT:      -6.8      0.000      0.000
REMARK  Name = ZINC95486071
REMARK  1 active torsions:
REMARK  status: ('A' for Active; 'I' for Inactive)
REMARK    1  A    between atoms: C9_13  and  O4_29
REMARK                            x       y       z     vdW  Elec       q    Type
REMARK                         _______ _______ _______ _____ _____    ______ ____
ROOT
ATOM      1  C   UNL     1      46.492  16.261  17.489  0.00  0.00    +0.120 A 
ATOM      2  C   UNL     1      46.123  17.303  18.323  0.00  0.00    -0.142 A 
ATOM      3  C   UNL     1      45.474  17.129  19.549  0.00  0.00    +0.142 A 
ATOM      4  N   UNL     1      45.121  18.354  20.103  0.00  0.00    -0.547 N 
ATOM      5  C   UNL     1      44.636  18.623  21.328  0.00  0.00    +0.496 C 
ATOM      6  C   UNL     1      44.497  20.057  21.753  0.00  0.00    +0.204 C 
ATOM      9  C   UNL     1      44.593  21.032  20.583  0.00  0.00    -0.025 C 
ATOM     10  C   UNL     1      43.427  20.839  19.607  0.00  0.00    +0.093 C 
ATOM     11  C   UNL     1      43.932  19.781  18.562  0.00  0.00    +0.080 C 
ATOM     12  C   UNL     1      44.842  22.397  21.143  0.00  0.00    +0.069 C 
ATOM     13  C   UNL     1      46.088  22.691  21.442  0.00  0.00    -0.035 C 
ATOM     14  C   UNL     1      47.281  21.816  21.191  0.00  0.00    +0.317 C 
ATOM     15  N   UNL     1      47.081  20.829  20.175  0.00  0.00    -0.359 N 
ATOM     16  H   UNL     1      47.522  21.292  19.394  0.00  0.00    +0.412 HD
ATOM     17  C   UNL     1      47.775  19.560  20.135  0.00  0.00    +0.263 C 
ATOM     18  C   UNL     1      47.775  19.054  18.684  0.00  0.00    +0.092 C 
ATOM     19  C   UNL     1      45.775  20.726  19.655  0.00  0.00    +0.148 C 
ATOM     20  O   UNL     1      44.317  17.724  22.077  0.00  0.00    -0.479 OA
ATOM     21  C   UNL     1      45.329  19.393  19.075  0.00  0.00    +0.163 C 
ATOM     22  C   UNL     1      45.196  15.851  20.056  0.00  0.00    +0.062 A 
ATOM     23  C   UNL     1      45.579  14.796  19.230  0.00  0.00    +0.070 A 
ATOM     24  O   UNL     1      45.443  13.465  19.445  0.00  0.00    -0.300 OA
ATOM     25  C   UNL     1      46.326  12.827  18.499  0.00  0.00    +0.445 C 
ATOM     26  O   UNL     1      46.432  13.782  17.421  0.00  0.00    -0.299 OA
ATOM     27  C   UNL     1      46.353  18.796  18.137  0.00  0.00    +0.107 C 
ATOM     28  C   UNL     1      46.197  14.990  17.987  0.00  0.00    +0.024 A 
ENDROOT
BRANCH   6   7
ATOM      7  O   UNL     1      43.230  20.229  22.390  0.00  0.00    -0.525 OA
ATOM      8  H   UNL     1      42.892  19.428  22.815  0.00  0.00    +0.406 HD
ENDBRANCH   6   7
TORSDOF 1
ENDMDL
MODEL 2
REMARK VINA RESULT:      -6.2      4.429      5.749
REMARK  Name = ZINC95486071
REMARK  1 active torsions:
REMARK  status: ('A' for Active; 'I' for Inactive)
REMARK    1  A    between atoms: C9_13  and  O4_29
REMARK                            x       y       z     vdW  Elec       q    Type
REMARK                         _______ _______ _______ _____ _____    ______ ____
ROOT
ATOM      1  C   UNL     1      51.039  14.602  16.712  0.00  0.00    +0.120 A 
ATOM      2  C   UNL     1      51.016  15.870  17.269  0.00  0.00    -0.142 A 
ATOM      3  C   UNL     1      49.844  16.581  17.539  0.00  0.00    +0.142 A 
ATOM      4  N   UNL     1      50.133  17.866  17.980  0.00  0.00    -0.547 N 
ATOM      5  C   UNL     1      49.306  18.796  18.490  0.00  0.00    +0.496 C 
ATOM      6  C   UNL     1      49.893  20.055  19.061  0.00  0.00    +0.204 C 
ATOM      9  C   UNL     1      51.348  20.266  18.653  0.00  0.00    -0.025 C 
ATOM     10  C   UNL     1      51.473  20.472  17.140  0.00  0.00    +0.093 C 
ATOM     11  C   UNL     1      51.677  19.036  16.540  0.00  0.00    +0.080 C 
ATOM     12  C   UNL     1      51.938  21.292  19.569  0.00  0.00    +0.069 C 
ATOM     13  C   UNL     1      52.365  20.861  20.735  0.00  0.00    -0.035 C 
ATOM     14  C   UNL     1      52.392  19.430  21.187  0.00  0.00    +0.317 C 
ATOM     15  N   UNL     1      52.374  18.478  20.120  0.00  0.00    -0.359 N 
ATOM     16  H   UNL     1      53.358  18.258  20.066  0.00  0.00    +0.412 HD
ATOM     17  C   UNL     1      51.828  17.143  20.240  0.00  0.00    +0.263 C 
ATOM     18  C   UNL     1      52.485  16.254  19.172  0.00  0.00    +0.092 C 
ATOM     19  C   UNL     1      52.198  19.000  18.822  0.00  0.00    +0.148 C 
ATOM     20  O   UNL     1      48.105  18.621  18.490  0.00  0.00    -0.479 OA
ATOM     21  C   UNL     1      51.573  18.107  17.762  0.00  0.00    +0.163 C 
ATOM     22  C   UNL     1      48.577  16.023  17.308  0.00  0.00    +0.062 A 
ATOM     23  C   UNL     1      48.592  14.741  16.762  0.00  0.00    +0.070 A 
ATOM     24  O   UNL     1      47.540  13.953  16.432  0.00  0.00    -0.300 OA
ATOM     25  C   UNL     1      48.082  12.625  16.283  0.00  0.00    +0.445 C 
ATOM     26  O   UNL     1      49.465  12.848  15.935  0.00  0.00    -0.299 OA
ATOM     27  C   UNL     1      52.186  16.726  17.731  0.00  0.00    +0.107 C 
ATOM     28  C   UNL     1      49.778  14.055  16.464  0.00  0.00    +0.024 A 
ENDROOT
BRANCH   6   7
ATOM      7  O   UNL     1      49.124  21.170  18.607  0.00  0.00    -0.525 OA
ATOM      8  H   UNL     1      49.519  22.029  18.811  0.00  0.00    +0.406 HD
ENDBRANCH   6   7
TORSDOF 1
ENDMDL
MODEL 3
REMARK VINA RESULT:      -5.8      2.901      6.583
REMARK  Name = ZINC95486071
REMARK  1 active torsions:
REMARK  status: ('A' for Active; 'I' for Inactive)
REMARK    1  A    between atoms: C9_13  and  O4_29
REMARK                            x       y       z     vdW  Elec       q    Type
REMARK                         _______ _______ _______ _____ _____    ______ ____
ROOT
ATOM      1  C   UNL     1      47.466  21.527  20.905  0.00  0.00    +0.120 A 
ATOM      2  C   UNL     1      47.982  20.472  20.170  0.00  0.00    -0.142 A 
ATOM      3  C   UNL     1      47.256  19.764  19.208  0.00  0.00    +0.142 A 
ATOM      4  N   UNL     1      47.991  18.688  18.725  0.00  0.00    -0.547 N 
ATOM      5  C   UNL     1      47.720  17.870  17.692  0.00  0.00    +0.496 C 
ATOM      6  C   UNL     1      48.764  16.883  17.255  0.00  0.00    +0.204 C 
ATOM      9  C   UNL     1      49.870  16.697  18.289  0.00  0.00    -0.025 C 
ATOM     10  C   UNL     1      49.321  16.082  19.581  0.00  0.00    +0.093 C 
ATOM     11  C   UNL     1      48.904  17.302  20.477  0.00  0.00    +0.080 C 
ATOM     12  C   UNL     1      51.025  16.030  17.611  0.00  0.00    +0.069 C 
ATOM     13  C   UNL     1      51.838  16.811  16.934  0.00  0.00    -0.035 C 
ATOM     14  C   UNL     1      51.759  18.307  16.857  0.00  0.00    +0.317 C 
ATOM     15  N   UNL     1      51.040  18.913  17.936  0.00  0.00    -0.359 N 
ATOM     16  H   UNL     1      51.812  19.195  18.522  0.00  0.00    +0.412 HD
ATOM     17  C   UNL     1      50.335  20.172  17.830  0.00  0.00    +0.263 C 
ATOM     18  C   UNL     1      50.210  20.777  19.236  0.00  0.00    +0.092 C 
ATOM     19  C   UNL     1      50.401  18.031  18.831  0.00  0.00    +0.148 C 
ATOM     20  O   UNL     1      46.651  17.930  17.122  0.00  0.00    -0.479 OA
ATOM     21  C   UNL     1      49.178  18.526  19.587  0.00  0.00    +0.163 C 
ATOM     22  C   UNL     1      45.940  20.117  18.876  0.00  0.00    +0.062 A 
ATOM     23  C   UNL     1      45.419  21.188  19.601  0.00  0.00    +0.070 A 
ATOM     24  O   UNL     1      44.190  21.751  19.506  0.00  0.00    -0.300 OA
ATOM     25  C   UNL     1      44.297  23.027  20.172  0.00  0.00    +0.445 C 
ATOM     26  O   UNL     1      45.372  22.839  21.117  0.00  0.00    -0.299 OA
ATOM     27  C   UNL     1      49.388  19.891  20.200  0.00  0.00    +0.107 C 
ATOM     28  C   UNL     1      46.150  21.865  20.587  0.00  0.00    +0.024 A 
ENDROOT
BRANCH   6   7
ATOM      7  O   UNL     1      48.137  15.621  17.023  0.00  0.00    -0.525 OA
ATOM      8  H   UNL     1      47.548  15.337  17.737  0.00  0.00    +0.406 HD
ENDBRANCH   6   7
TORSDOF 1
ENDMDL
MODEL 4
REMARK VINA RESULT:      -5.8      2.552      5.648
REMARK  Name = ZINC95486071
REMARK  1 active torsions:
REMARK  status: ('A' for Active; 'I' for Inactive)
REMARK    1  A    between atoms: C9_13  and  O4_29
REMARK                            x       y       z     vdW  Elec       q    Type
REMARK                         _______ _______ _______ _____ _____    ______ ____
ROOT
ATOM      1  C   UNL     1      42.018  18.933  20.935  0.00  0.00    +0.120 A 
ATOM      2  C   UNL     1      43.319  18.529  20.681  0.00  0.00    -0.142 A 
ATOM      3  C   UNL     1      44.020  18.846  19.515  0.00  0.00    +0.142 A 
ATOM      4  N   UNL     1      45.252  18.205  19.486  0.00  0.00    -0.547 N 
ATOM      5  C   UNL     1      46.277  18.371  18.631  0.00  0.00    +0.496 C 
ATOM      6  C   UNL     1      47.579  17.680  18.916  0.00  0.00    +0.204 C 
ATOM      9  C   UNL     1      47.447  16.581  19.966  0.00  0.00    -0.025 C 
ATOM     10  C   UNL     1      46.548  15.445  19.465  0.00  0.00    +0.093 C 
ATOM     11  C   UNL     1      45.096  15.836  19.919  0.00  0.00    +0.080 C 
ATOM     12  C   UNL     1      48.821  16.246  20.455  0.00  0.00    +0.069 C 
ATOM     13  C   UNL     1      49.318  17.027  21.388  0.00  0.00    -0.035 C 
ATOM     14  C   UNL     1      48.600  18.160  22.060  0.00  0.00    +0.317 C 
ATOM     15  N   UNL     1      47.174  18.075  21.989  0.00  0.00    -0.359 N 
ATOM     16  H   UNL     1      46.977  17.688  22.901  0.00  0.00    +0.412 HD
ATOM     17  C   UNL     1      46.294  19.223  22.011  0.00  0.00    +0.263 C 
ATOM     18  C   UNL     1      44.913  18.766  22.505  0.00  0.00    +0.092 C 
ATOM     19  C   UNL     1      46.651  17.032  21.196  0.00  0.00    +0.148 C 
ATOM     20  O   UNL     1      46.151  19.068  17.646  0.00  0.00    -0.479 OA
ATOM     21  C   UNL     1      45.273  17.213  20.580  0.00  0.00    +0.163 C 
ATOM     22  C   UNL     1      43.459  19.662  18.521  0.00  0.00    +0.062 A 
ATOM     23  C   UNL     1      42.155  20.085  18.776  0.00  0.00    +0.070 A 
ATOM     24  O   UNL     1      41.360  20.872  18.011  0.00  0.00    -0.300 OA
ATOM     25  C   UNL     1      40.299  21.313  18.883  0.00  0.00    +0.445 C 
ATOM     26  O   UNL     1      40.218  20.279  19.886  0.00  0.00    -0.299 OA
ATOM     27  C   UNL     1      44.255  17.725  21.572  0.00  0.00    +0.107 C 
ATOM     28  C   UNL     1      41.454  19.728  19.936  0.00  0.00    +0.024 A 
ENDROOT
BRANCH   6   7
ATOM      7  O   UNL     1      48.069  17.102  17.705  0.00  0.00    -0.525 OA
ATOM      8  H   UNL     1      47.571  17.358  16.917  0.00  0.00    +0.406 HD
ENDBRANCH   6   7
TORSDOF 1
ENDMDL
MODEL 5
REMARK VINA RESULT:      -5.8      3.915      6.517
REMARK  Name = ZINC95486071
REMARK  1 active torsions:
REMARK  status: ('A' for Active; 'I' for Inactive)
REMARK    1  A    between atoms: C9_13  and  O4_29
REMARK                            x       y       z     vdW  Elec       q    Type
REMARK                         _______ _______ _______ _____ _____    ______ ____
ROOT
ATOM      1  C   UNL     1      45.717  18.389  18.597  0.00  0.00    +0.120 A 
ATOM      2  C   UNL     1      47.100  18.371  18.673  0.00  0.00    -0.142 A 
ATOM      3  C   UNL     1      47.885  19.511  18.863  0.00  0.00    +0.142 A 
ATOM      4  N   UNL     1      49.237  19.203  18.775  0.00  0.00    -0.547 N 
ATOM      5  C   UNL     1      50.304  19.974  19.056  0.00  0.00    +0.496 C 
ATOM      6  C   UNL     1      51.670  19.350  19.048  0.00  0.00    +0.204 C 
ATOM      9  C   UNL     1      51.694  17.987  18.363  0.00  0.00    -0.025 C 
ATOM     10  C   UNL     1      51.355  18.113  16.874  0.00  0.00    +0.093 C 
ATOM     11  C   UNL     1      49.796  17.953  16.789  0.00  0.00    +0.080 C 
ATOM     12  C   UNL     1      52.964  17.299  18.755  0.00  0.00    +0.069 C 
ATOM     13  C   UNL     1      52.960  16.676  19.913  0.00  0.00    -0.035 C 
ATOM     14  C   UNL     1      51.778  16.523  20.825  0.00  0.00    +0.317 C 
ATOM     15  N   UNL     1      50.512  16.676  20.175  0.00  0.00    -0.359 N 
ATOM     16  H   UNL     1      50.267  15.705  20.043  0.00  0.00    +0.412 HD
ATOM     17  C   UNL     1      49.316  17.145  20.839  0.00  0.00    +0.263 C 
ATOM     18  C   UNL     1      48.096  16.634  20.057  0.00  0.00    +0.092 C 
ATOM     19  C   UNL     1      50.550  17.075  18.823  0.00  0.00    +0.148 C 
ATOM     20  O   UNL     1      50.164  21.151  19.311  0.00  0.00    -0.479 OA
ATOM     21  C   UNL     1      49.356  17.826  18.257  0.00  0.00    +0.163 C 
ATOM     22  C   UNL     1      47.308  20.776  19.050  0.00  0.00    +0.062 A 
ATOM     23  C   UNL     1      45.915  20.801  18.990  0.00  0.00    +0.070 A 
ATOM     24  O   UNL     1      45.085  21.862  19.131  0.00  0.00    -0.300 OA
ATOM     25  C   UNL     1      43.777  21.301  19.369  0.00  0.00    +0.445 C 
ATOM     26  O   UNL     1      43.836  20.000  18.746  0.00  0.00    -0.299 OA
ATOM     27  C   UNL     1      48.039  17.175  18.611  0.00  0.00    +0.107 C 
ATOM     28  C   UNL     1      45.145  19.652  18.763  0.00  0.00    +0.024 A 
ENDROOT
BRANCH   6   7
ATOM      7  O   UNL     1      52.571  20.223  18.365  0.00  0.00    -0.525 OA
ATOM      8  H   UNL     1      53.177  20.699  18.950  0.00  0.00    +0.406 HD
ENDBRANCH   6   7
TORSDOF 1
ENDMDL
MODEL 6
REMARK VINA RESULT:      -5.8      2.681      5.103
REMARK  Name = ZINC95486071
REMARK  1 active torsions:
REMARK  status: ('A' for Active; 'I' for Inactive)
REMARK    1  A    between atoms: C9_13  and  O4_29
REMARK                            x       y       z     vdW  Elec       q    Type
REMARK                         _______ _______ _______ _____ _____    ______ ____
ROOT
ATOM      1  C   UNL     1      43.788  19.576  18.816  0.00  0.00    +0.120 A 
ATOM      2  C   UNL     1      45.118  19.330  19.116  0.00  0.00    -0.142 A 
ATOM      3  C   UNL     1      45.584  19.016  20.396  0.00  0.00    +0.142 A 
ATOM      4  N   UNL     1      46.971  18.943  20.415  0.00  0.00    -0.547 N 
ATOM      5  C   UNL     1      47.785  18.514  21.396  0.00  0.00    +0.496 C 
ATOM      6  C   UNL     1      49.252  18.368  21.109  0.00  0.00    +0.204 C 
ATOM      9  C   UNL     1      49.677  19.079  19.828  0.00  0.00    -0.025 C 
ATOM     10  C   UNL     1      49.491  20.595  19.950  0.00  0.00    +0.093 C 
ATOM     11  C   UNL     1      48.034  20.877  19.437  0.00  0.00    +0.080 C 
ATOM     12  C   UNL     1      51.020  18.550  19.433  0.00  0.00    +0.069 C 
ATOM     13  C   UNL     1      51.032  17.418  18.765  0.00  0.00    -0.035 C 
ATOM     14  C   UNL     1      49.823  16.663  18.294  0.00  0.00    +0.317 C 
ATOM     15  N   UNL     1      48.641  17.460  18.182  0.00  0.00    -0.359 N 
ATOM     16  H   UNL     1      48.650  17.647  17.190  0.00  0.00    +0.412 HD
ATOM     17  C   UNL     1      47.299  16.938  18.324  0.00  0.00    +0.263 C 
ATOM     18  C   UNL     1      46.333  17.877  17.586  0.00  0.00    +0.092 C 
ATOM     19  C   UNL     1      48.737  18.787  18.651  0.00  0.00    +0.148 C 
ATOM     20  O   UNL     1      47.343  18.249  22.494  0.00  0.00    -0.479 OA
ATOM     21  C   UNL     1      47.471  19.478  19.133  0.00  0.00    +0.163 C 
ATOM     22  C   UNL     1      44.706  18.870  21.480  0.00  0.00    +0.062 A 
ATOM     23  C   UNL     1      43.364  19.101  21.183  0.00  0.00    +0.070 A 
ATOM     24  O   UNL     1      42.294  19.038  22.014  0.00  0.00    -0.300 OA
ATOM     25  C   UNL     1      41.139  18.977  21.152  0.00  0.00    +0.445 C 
ATOM     26  O   UNL     1      41.575  19.620  19.936  0.00  0.00    -0.299 OA
ATOM     27  C   UNL     1      46.315  19.305  18.176  0.00  0.00    +0.107 C 
ATOM     28  C   UNL     1      42.918  19.451  19.901  0.00  0.00    +0.024 A 
ENDROOT
BRANCH   6   7
ATOM      7  O   UNL     1      49.993  18.913  22.202  0.00  0.00    -0.525 OA
ATOM      8  H   UNL     1      50.480  18.253  22.715  0.00  0.00    +0.406 HD
ENDBRANCH   6   7
TORSDOF 1
ENDMDL
MODEL 7
REMARK VINA RESULT:      -5.7      2.328      6.235
REMARK  Name = ZINC95486071
REMARK  1 active torsions:
REMARK  status: ('A' for Active; 'I' for Inactive)
REMARK    1  A    between atoms: C9_13  and  O4_29
REMARK                            x       y       z     vdW  Elec       q    Type
REMARK                         _______ _______ _______ _____ _____    ______ ____
ROOT
ATOM      1  C   UNL     1      45.640  19.631  18.412  0.00  0.00    +0.120 A 
ATOM      2  C   UNL     1      46.180  18.362  18.551  0.00  0.00    -0.142 A 
ATOM      3  C   UNL     1      45.594  17.344  19.309  0.00  0.00    +0.142 A 
ATOM      4  N   UNL     1      46.419  16.228  19.362  0.00  0.00    -0.547 N 
ATOM      5  C   UNL     1      46.156  15.000  19.845  0.00  0.00    +0.496 C 
ATOM      6  C   UNL     1      47.162  13.905  19.628  0.00  0.00    +0.204 C 
ATOM      9  C   UNL     1      48.525  14.433  19.192  0.00  0.00    -0.025 C 
ATOM     10  C   UNL     1      49.164  15.285  20.294  0.00  0.00    +0.093 C 
ATOM     11  C   UNL     1      48.682  16.753  20.014  0.00  0.00    +0.080 C 
ATOM     12  C   UNL     1      49.303  13.285  18.630  0.00  0.00    +0.069 C 
ATOM     13  C   UNL     1      49.064  12.972  17.376  0.00  0.00    -0.035 C 
ATOM     14  C   UNL     1      48.152  13.715  16.444  0.00  0.00    +0.317 C 
ATOM     15  N   UNL     1      47.901  15.071  16.825  0.00  0.00    -0.359 N 
ATOM     16  H   UNL     1      48.558  15.545  16.222  0.00  0.00    +0.412 HD
ATOM     17  C   UNL     1      46.692  15.792  16.492  0.00  0.00    +0.263 C 
ATOM     18  C   UNL     1      47.002  17.297  16.522  0.00  0.00    +0.092 C 
ATOM     19  C   UNL     1      48.424  15.475  18.071  0.00  0.00    +0.148 C 
ATOM     20  O   UNL     1      45.125  14.781  20.445  0.00  0.00    -0.479 OA
ATOM     21  C   UNL     1      47.735  16.609  18.812  0.00  0.00    +0.163 C 
ATOM     22  C   UNL     1      44.361  17.527  19.953  0.00  0.00    +0.062 A 
ATOM     23  C   UNL     1      43.804  18.796  19.805  0.00  0.00    +0.070 A 
ATOM     24  O   UNL     1      42.636  19.266  20.305  0.00  0.00    -0.300 OA
ATOM     25  C   UNL     1      42.350  20.467  19.558  0.00  0.00    +0.445 C 
ATOM     26  O   UNL     1      43.648  20.926  19.125  0.00  0.00    -0.299 OA
ATOM     27  C   UNL     1      47.441  17.792  17.918  0.00  0.00    +0.107 C 
ATOM     28  C   UNL     1      44.423  19.816  19.070  0.00  0.00    +0.024 A 
ENDROOT
BRANCH   6   7
ATOM      7  O   UNL     1      47.320  13.176  20.846  0.00  0.00    -0.525 OA
ATOM      8  H   UNL     1      48.204  13.244  21.233  0.00  0.00    +0.406 HD
ENDBRANCH   6   7
TORSDOF 1
ENDMDL
MODEL 8
REMARK VINA RESULT:      -5.7      3.697      6.645
REMARK  Name = ZINC95486071
REMARK  1 active torsions:
REMARK  status: ('A' for Active; 'I' for Inactive)
REMARK    1  A    between atoms: C9_13  and  O4_29
REMARK                            x       y       z     vdW  Elec       q    Type
REMARK                         _______ _______ _______ _____ _____    ______ ____
ROOT
ATOM      1  C   UNL     1      51.589  17.115  18.458  0.00  0.00    +0.120 A 
ATOM      2  C   UNL     1      50.311  16.604  18.621  0.00  0.00    -0.142 A 
ATOM      3  C   UNL     1      49.154  17.386  18.628  0.00  0.00    +0.142 A 
ATOM      4  N   UNL     1      48.037  16.618  18.932  0.00  0.00    -0.547 N 
ATOM      5  C   UNL     1      46.735  16.954  18.880  0.00  0.00    +0.496 C 
ATOM      6  C   UNL     1      45.702  15.884  19.090  0.00  0.00    +0.204 C 
ATOM      9  C   UNL     1      46.284  14.611  19.697  0.00  0.00    -0.025 C 
ATOM     10  C   UNL     1      46.818  14.869  21.110  0.00  0.00    +0.093 C 
ATOM     11  C   UNL     1      48.322  15.276  20.917  0.00  0.00    +0.080 C 
ATOM     12  C   UNL     1      45.291  13.510  19.494  0.00  0.00    +0.069 C 
ATOM     13  C   UNL     1      45.306  12.915  18.322  0.00  0.00    -0.035 C 
ATOM     14  C   UNL     1      46.282  13.182  17.214  0.00  0.00    +0.317 C 
ATOM     15  N   UNL     1      47.506  13.784  17.643  0.00  0.00    -0.359 N 
ATOM     16  H   UNL     1      48.098  12.966  17.680  0.00  0.00    +0.412 HD
ATOM     17  C   UNL     1      48.320  14.640  16.808  0.00  0.00    +0.263 C 
ATOM     18  C   UNL     1      49.762  14.608  17.340  0.00  0.00    +0.092 C 
ATOM     19  C   UNL     1      47.574  14.161  19.000  0.00  0.00    +0.148 C 
ATOM     20  O   UNL     1      46.402  18.100  18.666  0.00  0.00    -0.479 OA
ATOM     21  C   UNL     1      48.507  15.296  19.390  0.00  0.00    +0.163 C 
ATOM     22  C   UNL     1      49.204  18.772  18.411  0.00  0.00    +0.062 A 
ATOM     23  C   UNL     1      50.485  19.291  18.231  0.00  0.00    +0.070 A 
ATOM     24  O   UNL     1      50.848  20.577  18.005  0.00  0.00    -0.300 OA
ATOM     25  C   UNL     1      52.204  20.516  17.516  0.00  0.00    +0.445 C 
ATOM     26  O   UNL     1      52.721  19.288  18.071  0.00  0.00    -0.299 OA
ATOM     27  C   UNL     1      49.882  15.152  18.781  0.00  0.00    +0.107 C 
ATOM     28  C   UNL     1      51.638  18.496  18.262  0.00  0.00    +0.024 A 
ENDROOT
BRANCH   6   7
ATOM      7  O   UNL     1      44.689  16.387  19.963  0.00  0.00    -0.525 OA
ATOM      8  H   UNL     1      43.789  16.276  19.626  0.00  0.00    +0.406 HD
ENDBRANCH   6   7
TORSDOF 1
ENDMDL
MODEL 9
REMARK VINA RESULT:      -5.7      2.883      6.116
REMARK  Name = ZINC95486071
REMARK  1 active torsions:
REMARK  status: ('A' for Active; 'I' for Inactive)
REMARK    1  A    between atoms: C9_13  and  O4_29
REMARK                            x       y       z     vdW  Elec       q    Type
REMARK                         _______ _______ _______ _____ _____    ______ ____
ROOT
ATOM      1  C   UNL     1      45.927  20.381  20.774  0.00  0.00    +0.120 A 
ATOM      2  C   UNL     1      46.958  19.669  20.183  0.00  0.00    -0.142 A 
ATOM      3  C   UNL     1      46.828  18.950  18.992  0.00  0.00    +0.142 A 
ATOM      4  N   UNL     1      47.989  18.241  18.710  0.00  0.00    -0.547 N 
ATOM      5  C   UNL     1      48.323  17.567  17.594  0.00  0.00    +0.496 C 
ATOM      6  C   UNL     1      49.718  17.026  17.465  0.00  0.00    +0.204 C 
ATOM      9  C   UNL     1      50.469  17.005  18.793  0.00  0.00    -0.025 C 
ATOM     10  C   UNL     1      49.807  16.044  19.786  0.00  0.00    +0.093 C 
ATOM     11  C   UNL     1      48.762  16.913  20.571  0.00  0.00    +0.080 C 
ATOM     12  C   UNL     1      51.925  16.838  18.494  0.00  0.00    +0.069 C 
ATOM     13  C   UNL     1      52.588  17.928  18.177  0.00  0.00    -0.035 C 
ATOM     14  C   UNL     1      52.035  19.323  18.176  0.00  0.00    +0.317 C 
ATOM     15  N   UNL     1      50.873  19.494  18.992  0.00  0.00    -0.359 N 
ATOM     16  H   UNL     1      51.298  19.890  19.818  0.00  0.00    +0.412 HD
ATOM     17  C   UNL     1      49.849  20.485  18.741  0.00  0.00    +0.263 C 
ATOM     18  C   UNL     1      49.122  20.777  20.063  0.00  0.00    +0.092 C 
ATOM     19  C   UNL     1      50.337  18.323  19.566  0.00  0.00    +0.148 C 
ATOM     20  O   UNL     1      47.512  17.402  16.707  0.00  0.00    -0.479 OA
ATOM     21  C   UNL     1      48.855  18.296  19.904  0.00  0.00    +0.163 C 
ATOM     22  C   UNL     1      45.627  18.947  18.266  0.00  0.00    +0.062 A 
ATOM     23  C   UNL     1      44.589  19.674  18.845  0.00  0.00    +0.070 A 
ATOM     24  O   UNL     1      43.327  19.853  18.385  0.00  0.00    -0.300 OA
ATOM     25  C   UNL     1      42.798  20.969  19.130  0.00  0.00    +0.445 C 
ATOM     26  O   UNL     1      43.548  20.953  20.364  0.00  0.00    -0.299 OA
ATOM     27  C   UNL     1      48.404  19.536  20.640  0.00  0.00    +0.107 C 
ATOM     28  C   UNL     1      44.727  20.360  20.060  0.00  0.00    +0.024 A 
ENDROOT
BRANCH   6   7
ATOM      7  O   UNL     1      49.649  15.692  16.957  0.00  0.00    -0.525 OA
ATOM      8  H   UNL     1      48.838  15.221  17.196  0.00  0.00    +0.406 HD
ENDBRANCH   6   7
TORSDOF 1
ENDMDL
