MODEL 1
REMARK VINA RESULT:      -7.2      0.000      0.000
REMARK  Name = ZINC95485936
REMARK  10 active torsions:
REMARK  status: ('A' for Active; 'I' for Inactive)
REMARK    1  A    between atoms: C1_1  and  C2_2
REMARK    2  A    between atoms: C5_6  and  C32_41
REMARK    3  A    between atoms: C8_9  and  C31_40
REMARK    4  A    between atoms: C11_14  and  C12_16
REMARK    5  A    between atoms: C16_21  and  C30_39
REMARK    6  A    between atoms: C24_30  and  O2_35
REMARK    7  A    between atoms: C25_32  and  C26_33
REMARK    8  A    between atoms: C25_32  and  C27_34
REMARK    9  A    between atoms: O2_35  and  C28_36
REMARK   10  A    between atoms: C28_36  and  C29_38
REMARK                            x       y       z     vdW  Elec       q    Type
REMARK                         _______ _______ _______ _____ _____    ______ ____
ROOT
ATOM      1  C   UNL     1      41.329  20.039  18.503  0.00  0.00    +0.010 C 
ATOM      2  C   UNL     1      42.391  19.289  19.319  0.00  0.00    -0.018 C 
ATOM      3  C   UNL     1      41.874  19.078  20.739  0.00  0.00    +0.007 C 
ATOM      4  C   UNL     1      42.941  18.381  21.580  0.00  0.00    +0.014 C 
ATOM      5  C   UNL     1      44.205  19.237  21.638  0.00  0.00    -0.043 C 
ATOM      6  C   UNL     1      43.887  20.551  22.371  0.00  0.00    +0.017 C 
ATOM      7  C   UNL     1      45.251  18.526  22.505  0.00  0.00    +0.010 C 
ATOM      8  C   UNL     1      45.710  17.230  21.851  0.00  0.00    +0.020 C 
ATOM      9  C   UNL     1      46.316  17.515  20.474  0.00  0.00    -0.029 C 
ATOM     10  C   UNL     1      47.515  18.457  20.649  0.00  0.00    +0.029 C 
ATOM     11  C   UNL     1      45.278  18.207  19.597  0.00  0.00    +0.016 C 
ATOM     12  C   UNL     1      45.889  18.569  18.237  0.00  0.00    +0.024 C 
ATOM     13  C   UNL     1      46.464  17.322  17.601  0.00  0.00    +0.398 C 
ATOM     14  C   UNL     1      47.340  16.428  18.458  0.00  0.00    -0.153 C 
ATOM     15  C   UNL     1      47.933  15.233  17.699  0.00  0.00    +0.036 C 
ATOM     16  C   UNL     1      48.841  16.382  18.189  0.00  0.00    -0.040 C 
ATOM     17  C   UNL     1      49.321  17.367  17.122  0.00  0.00    +0.049 C 
ATOM     18  C   UNL     1      50.814  17.368  16.920  0.00  0.00    +0.019 C 
ATOM     19  C   UNL     1      51.586  17.421  18.218  0.00  0.00    +0.192 C 
ATOM     24  C   UNL     1      51.236  16.285  19.154  0.00  0.00    -0.030 C 
ATOM     25  C   UNL     1      51.918  15.013  18.634  0.00  0.00    +0.038 C 
ATOM     26  C   UNL     1      51.841  16.608  20.521  0.00  0.00    +0.036 C 
ATOM     27  C   UNL     1      49.784  15.998  19.299  0.00  0.00    +0.002 C 
ATOM     28  C   UNL     1      49.216  15.879  20.670  0.00  0.00    +0.031 C 
ATOM     29  C   UNL     1      47.766  15.472  20.756  0.00  0.00    +0.023 C 
ATOM     30  O   UNL     1      46.230  17.051  16.446  0.00  0.00    -0.452 OA
ATOM     31  C   UNL     1      46.794  16.195  19.857  0.00  0.00    +0.008 C 
ATOM     32  C   UNL     1      45.578  15.264  19.691  0.00  0.00    +0.018 C 
ATOM     33  C   UNL     1      44.744  19.498  20.242  0.00  0.00    +0.021 C 
ATOM     34  C   UNL     1      43.692  20.076  19.299  0.00  0.00    -0.024 C 
ATOM     35  C   UNL     1      43.448  21.566  19.513  0.00  0.00    +0.017 C 
ENDROOT
BRANCH  19  20
ATOM     20  O   UNL     1      51.308  18.661  18.873  0.00  0.00    -0.338 OA
BRANCH  20  21
ATOM     21  C   UNL     1      51.791  19.774  18.301  0.00  0.00    +0.455 C 
ATOM     22  C   UNL     1      50.871  20.931  18.009  0.00  0.00    +0.150 C 
ATOM     23  O   UNL     1      52.963  19.848  18.018  0.00  0.00    -0.514 OA
ENDBRANCH  20  21
ENDBRANCH  19  20
TORSDOF 2
ENDMDL
MODEL 2
REMARK VINA RESULT:      -6.7      2.169      6.992
REMARK  Name = ZINC95485936
REMARK  10 active torsions:
REMARK  status: ('A' for Active; 'I' for Inactive)
REMARK    1  A    between atoms: C1_1  and  C2_2
REMARK    2  A    between atoms: C5_6  and  C32_41
REMARK    3  A    between atoms: C8_9  and  C31_40
REMARK    4  A    between atoms: C11_14  and  C12_16
REMARK    5  A    between atoms: C16_21  and  C30_39
REMARK    6  A    between atoms: C24_30  and  O2_35
REMARK    7  A    between atoms: C25_32  and  C26_33
REMARK    8  A    between atoms: C25_32  and  C27_34
REMARK    9  A    between atoms: O2_35  and  C28_36
REMARK   10  A    between atoms: C28_36  and  C29_38
REMARK                            x       y       z     vdW  Elec       q    Type
REMARK                         _______ _______ _______ _____ _____    ______ ____
ROOT
ATOM      1  C   UNL     1      50.105  13.345  15.794  0.00  0.00    +0.010 C 
ATOM      2  C   UNL     1      49.309  13.696  17.058  0.00  0.00    -0.018 C 
ATOM      3  C   UNL     1      49.082  12.428  17.875  0.00  0.00    +0.007 C 
ATOM      4  C   UNL     1      48.243  12.751  19.110  0.00  0.00    +0.014 C 
ATOM      5  C   UNL     1      46.887  13.316  18.690  0.00  0.00    -0.043 C 
ATOM      6  C   UNL     1      46.107  12.232  17.926  0.00  0.00    +0.017 C 
ATOM      7  C   UNL     1      46.057  13.611  19.946  0.00  0.00    +0.010 C 
ATOM      8  C   UNL     1      46.688  14.729  20.764  0.00  0.00    +0.020 C 
ATOM      9  C   UNL     1      46.794  16.006  19.926  0.00  0.00    -0.029 C 
ATOM     10  C   UNL     1      45.385  16.424  19.484  0.00  0.00    +0.029 C 
ATOM     11  C   UNL     1      47.633  15.729  18.683  0.00  0.00    +0.016 C 
ATOM     12  C   UNL     1      47.689  16.976  17.791  0.00  0.00    +0.024 C 
ATOM     13  C   UNL     1      48.203  18.146  18.603  0.00  0.00    +0.398 C 
ATOM     14  C   UNL     1      47.589  18.385  19.970  0.00  0.00    -0.153 C 
ATOM     15  C   UNL     1      48.127  19.636  20.677  0.00  0.00    +0.036 C 
ATOM     16  C   UNL     1      46.669  19.585  20.170  0.00  0.00    -0.040 C 
ATOM     17  C   UNL     1      46.368  20.369  18.893  0.00  0.00    +0.049 C 
ATOM     18  C   UNL     1      45.396  21.504  19.088  0.00  0.00    +0.019 C 
ATOM     19  C   UNL     1      44.176  21.106  19.884  0.00  0.00    +0.192 C 
ATOM     24  C   UNL     1      44.521  20.541  21.244  0.00  0.00    -0.030 C 
ATOM     25  C   UNL     1      44.915  21.708  22.159  0.00  0.00    +0.038 C 
ATOM     26  C   UNL     1      43.254  19.908  21.820  0.00  0.00    +0.036 C 
ATOM     27  C   UNL     1      45.633  19.552  21.262  0.00  0.00    +0.002 C 
ATOM     28  C   UNL     1      45.421  18.258  21.967  0.00  0.00    +0.031 C 
ATOM     29  C   UNL     1      46.618  17.345  22.055  0.00  0.00    +0.023 C 
ATOM     30  O   UNL     1      49.074  18.864  18.172  0.00  0.00    -0.452 OA
ATOM     31  C   UNL     1      47.405  17.117  20.788  0.00  0.00    +0.008 C 
ATOM     32  C   UNL     1      48.817  16.681  21.223  0.00  0.00    +0.018 C 
ATOM     33  C   UNL     1      47.062  14.568  17.848  0.00  0.00    +0.021 C 
ATOM     34  C   UNL     1      47.999  14.359  16.661  0.00  0.00    -0.024 C 
ATOM     35  C   UNL     1      47.337  13.634  15.495  0.00  0.00    +0.017 C 
ENDROOT
BRANCH  19  20
ATOM     20  O   UNL     1      43.442  20.124  19.149  0.00  0.00    -0.338 OA
BRANCH  20  21
ATOM     21  C   UNL     1      42.267  20.507  18.624  0.00  0.00    +0.455 C 
ATOM     22  C   UNL     1      41.685  21.850  18.981  0.00  0.00    +0.150 C 
ATOM     23  O   UNL     1      41.677  19.774  17.867  0.00  0.00    -0.514 OA
ENDBRANCH  20  21
ENDBRANCH  19  20
TORSDOF 2
ENDMDL
MODEL 3
REMARK VINA RESULT:      -6.4      3.516      6.939
REMARK  Name = ZINC95485936
REMARK  10 active torsions:
REMARK  status: ('A' for Active; 'I' for Inactive)
REMARK    1  A    between atoms: C1_1  and  C2_2
REMARK    2  A    between atoms: C5_6  and  C32_41
REMARK    3  A    between atoms: C8_9  and  C31_40
REMARK    4  A    between atoms: C11_14  and  C12_16
REMARK    5  A    between atoms: C16_21  and  C30_39
REMARK    6  A    between atoms: C24_30  and  O2_35
REMARK    7  A    between atoms: C25_32  and  C26_33
REMARK    8  A    between atoms: C25_32  and  C27_34
REMARK    9  A    between atoms: O2_35  and  C28_36
REMARK   10  A    between atoms: C28_36  and  C29_38
REMARK                            x       y       z     vdW  Elec       q    Type
REMARK                         _______ _______ _______ _____ _____    ______ ____
ROOT
ATOM      1  C   UNL     1      51.517  10.277  15.790  0.00  0.00    +0.010 C 
ATOM      2  C   UNL     1      50.557  11.297  16.417  0.00  0.00    -0.018 C 
ATOM      3  C   UNL     1      49.136  10.745  16.366  0.00  0.00    +0.007 C 
ATOM      4  C   UNL     1      48.161  11.771  16.936  0.00  0.00    +0.014 C 
ATOM      5  C   UNL     1      48.217  13.060  16.119  0.00  0.00    -0.043 C 
ATOM      6  C   UNL     1      47.729  12.769  14.689  0.00  0.00    +0.017 C 
ATOM      7  C   UNL     1      47.214  14.065  16.698  0.00  0.00    +0.010 C 
ATOM      8  C   UNL     1      47.624  14.497  18.099  0.00  0.00    +0.020 C 
ATOM      9  C   UNL     1      49.013  15.139  18.073  0.00  0.00    -0.029 C 
ATOM     10  C   UNL     1      48.972  16.364  17.148  0.00  0.00    +0.029 C 
ATOM     11  C   UNL     1      50.023  14.142  17.514  0.00  0.00    +0.016 C 
ATOM     12  C   UNL     1      51.409  14.792  17.408  0.00  0.00    +0.024 C 
ATOM     13  C   UNL     1      51.806  15.341  18.762  0.00  0.00    +0.398 C 
ATOM     14  C   UNL     1      50.785  16.171  19.518  0.00  0.00    -0.153 C 
ATOM     15  C   UNL     1      51.312  16.741  20.842  0.00  0.00    +0.036 C 
ATOM     16  C   UNL     1      51.003  17.675  19.651  0.00  0.00    -0.040 C 
ATOM     17  C   UNL     1      52.211  18.207  18.879  0.00  0.00    +0.049 C 
ATOM     18  C   UNL     1      52.371  19.704  18.953  0.00  0.00    +0.019 C 
ATOM     19  C   UNL     1      51.082  20.450  18.699  0.00  0.00    +0.192 C 
ATOM     24  C   UNL     1      49.974  20.045  19.646  0.00  0.00    -0.030 C 
ATOM     25  C   UNL     1      50.250  20.697  21.007  0.00  0.00    +0.038 C 
ATOM     26  C   UNL     1      48.668  20.631  19.109  0.00  0.00    +0.036 C 
ATOM     27  C   UNL     1      49.820  18.582  19.863  0.00  0.00    +0.002 C 
ATOM     28  C   UNL     1      48.464  17.982  19.729  0.00  0.00    +0.031 C 
ATOM     29  C   UNL     1      48.348  16.519  20.075  0.00  0.00    +0.023 C 
ATOM     30  O   UNL     1      52.902  15.123  19.222  0.00  0.00    -0.452 OA
ATOM     31  C   UNL     1      49.381  15.588  19.491  0.00  0.00    +0.008 C 
ATOM     32  C   UNL     1      49.418  14.347  20.404  0.00  0.00    +0.018 C 
ATOM     33  C   UNL     1      49.623  13.636  16.116  0.00  0.00    +0.021 C 
ATOM     34  C   UNL     1      50.678  12.622  15.681  0.00  0.00    -0.024 C 
ATOM     35  C   UNL     1      50.729  12.421  14.171  0.00  0.00    +0.017 C 
ENDROOT
BRANCH  19  20
ATOM     20  O   UNL     1      50.657  20.198  17.357  0.00  0.00    -0.338 OA
BRANCH  20  21
ATOM     21  C   UNL     1      51.449  20.648  16.372  0.00  0.00    +0.455 C 
ATOM     22  C   UNL     1      52.237  19.675  15.534  0.00  0.00    +0.150 C 
ATOM     23  O   UNL     1      51.530  21.834  16.157  0.00  0.00    -0.514 OA
ENDBRANCH  20  21
ENDBRANCH  19  20
TORSDOF 2
ENDMDL
MODEL 4
REMARK VINA RESULT:      -6.2      3.603      7.036
REMARK  Name = ZINC95485936
REMARK  10 active torsions:
REMARK  status: ('A' for Active; 'I' for Inactive)
REMARK    1  A    between atoms: C1_1  and  C2_2
REMARK    2  A    between atoms: C5_6  and  C32_41
REMARK    3  A    between atoms: C8_9  and  C31_40
REMARK    4  A    between atoms: C11_14  and  C12_16
REMARK    5  A    between atoms: C16_21  and  C30_39
REMARK    6  A    between atoms: C24_30  and  O2_35
REMARK    7  A    between atoms: C25_32  and  C26_33
REMARK    8  A    between atoms: C25_32  and  C27_34
REMARK    9  A    between atoms: O2_35  and  C28_36
REMARK   10  A    between atoms: C28_36  and  C29_38
REMARK                            x       y       z     vdW  Elec       q    Type
REMARK                         _______ _______ _______ _____ _____    ______ ____
ROOT
ATOM      1  C   UNL     1      52.337  21.329  22.149  0.00  0.00    +0.010 C 
ATOM      2  C   UNL     1      52.212  20.430  20.911  0.00  0.00    -0.018 C 
ATOM      3  C   UNL     1      52.743  21.178  19.693  0.00  0.00    +0.007 C 
ATOM      4  C   UNL     1      52.576  20.317  18.443  0.00  0.00    +0.014 C 
ATOM      5  C   UNL     1      51.099  19.998  18.219  0.00  0.00    -0.043 C 
ATOM      6  C   UNL     1      50.341  21.305  17.931  0.00  0.00    +0.017 C 
ATOM      7  C   UNL     1      50.956  19.152  16.948  0.00  0.00    +0.010 C 
ATOM      8  C   UNL     1      51.607  17.788  17.127  0.00  0.00    +0.020 C 
ATOM      9  C   UNL     1      50.963  17.040  18.297  0.00  0.00    -0.029 C 
ATOM     10  C   UNL     1      49.467  16.862  18.004  0.00  0.00    +0.029 C 
ATOM     11  C   UNL     1      51.115  17.864  19.571  0.00  0.00    +0.016 C 
ATOM     12  C   UNL     1      50.409  17.167  20.742  0.00  0.00    +0.024 C 
ATOM     13  C   UNL     1      50.947  15.760  20.881  0.00  0.00    +0.398 C 
ATOM     14  C   UNL     1      51.054  14.914  19.626  0.00  0.00    -0.153 C 
ATOM     15  C   UNL     1      51.539  13.481  19.886  0.00  0.00    +0.036 C 
ATOM     16  C   UNL     1      50.088  13.749  19.432  0.00  0.00    -0.040 C 
ATOM     17  C   UNL     1      49.010  13.638  20.511  0.00  0.00    +0.049 C 
ATOM     18  C   UNL     1      48.015  12.533  20.268  0.00  0.00    +0.019 C 
ATOM     19  C   UNL     1      47.492  12.510  18.850  0.00  0.00    +0.192 C 
ATOM     24  C   UNL     1      48.594  12.389  17.820  0.00  0.00    -0.030 C 
ATOM     25  C   UNL     1      49.083  10.935  17.816  0.00  0.00    +0.038 C 
ATOM     26  C   UNL     1      47.981  12.676  16.449  0.00  0.00    +0.036 C 
ATOM     27  C   UNL     1      49.774  13.268  18.040  0.00  0.00    +0.002 C 
ATOM     28  C   UNL     1      50.269  14.091  16.903  0.00  0.00    +0.031 C 
ATOM     29  C   UNL     1      51.536  14.870  17.148  0.00  0.00    +0.023 C 
ATOM     30  O   UNL     1      51.281  15.327  21.959  0.00  0.00    -0.452 OA
ATOM     31  C   UNL     1      51.621  15.661  18.430  0.00  0.00    +0.008 C 
ATOM     32  C   UNL     1      53.120  15.860  18.723  0.00  0.00    +0.018 C 
ATOM     33  C   UNL     1      50.515  19.275  19.421  0.00  0.00    +0.021 C 
ATOM     34  C   UNL     1      50.761  20.014  20.734  0.00  0.00    -0.024 C 
ATOM     35  C   UNL     1      49.812  21.188  20.947  0.00  0.00    +0.017 C 
ENDROOT
BRANCH  19  20
ATOM     20  O   UNL     1      46.762  13.715  18.606  0.00  0.00    -0.338 OA
BRANCH  20  21
ATOM     21  C   UNL     1      45.564  13.834  19.200  0.00  0.00    +0.455 C 
ATOM     22  C   UNL     1      45.269  15.030  20.067  0.00  0.00    +0.150 C 
ATOM     23  O   UNL     1      44.724  12.981  19.041  0.00  0.00    -0.514 OA
ENDBRANCH  20  21
ENDBRANCH  19  20
TORSDOF 2
ENDMDL
MODEL 5
REMARK VINA RESULT:      -5.9      3.253      7.863
REMARK  Name = ZINC95485936
REMARK  10 active torsions:
REMARK  status: ('A' for Active; 'I' for Inactive)
REMARK    1  A    between atoms: C1_1  and  C2_2
REMARK    2  A    between atoms: C5_6  and  C32_41
REMARK    3  A    between atoms: C8_9  and  C31_40
REMARK    4  A    between atoms: C11_14  and  C12_16
REMARK    5  A    between atoms: C16_21  and  C30_39
REMARK    6  A    between atoms: C24_30  and  O2_35
REMARK    7  A    between atoms: C25_32  and  C26_33
REMARK    8  A    between atoms: C25_32  and  C27_34
REMARK    9  A    between atoms: O2_35  and  C28_36
REMARK   10  A    between atoms: C28_36  and  C29_38
REMARK                            x       y       z     vdW  Elec       q    Type
REMARK                         _______ _______ _______ _____ _____    ______ ____
ROOT
ATOM      1  C   UNL     1      53.058  10.852  15.153  0.00  0.00    +0.010 C 
ATOM      2  C   UNL     1      51.594  11.220  15.429  0.00  0.00    -0.018 C 
ATOM      3  C   UNL     1      50.703  10.537  14.396  0.00  0.00    +0.007 C 
ATOM      4  C   UNL     1      49.247  10.936  14.624  0.00  0.00    +0.014 C 
ATOM      5  C   UNL     1      49.089  12.449  14.486  0.00  0.00    -0.043 C 
ATOM      6  C   UNL     1      49.414  12.857  13.039  0.00  0.00    +0.017 C 
ATOM      7  C   UNL     1      47.617  12.821  14.697  0.00  0.00    +0.010 C 
ATOM      8  C   UNL     1      47.183  12.532  16.127  0.00  0.00    +0.020 C 
ATOM      9  C   UNL     1      48.043  13.325  17.115  0.00  0.00    -0.029 C 
ATOM     10  C   UNL     1      47.878  14.823  16.819  0.00  0.00    +0.029 C 
ATOM     11  C   UNL     1      49.509  12.950  16.926  0.00  0.00    +0.016 C 
ATOM     12  C   UNL     1      50.396  13.790  17.854  0.00  0.00    +0.024 C 
ATOM     13  C   UNL     1      49.922  13.622  19.282  0.00  0.00    +0.398 C 
ATOM     14  C   UNL     1      48.435  13.753  19.555  0.00  0.00    -0.153 C 
ATOM     15  C   UNL     1      48.069  13.640  21.041  0.00  0.00    +0.036 C 
ATOM     16  C   UNL     1      47.922  14.984  20.295  0.00  0.00    -0.040 C 
ATOM     17  C   UNL     1      48.992  16.038  20.583  0.00  0.00    +0.049 C 
ATOM     18  C   UNL     1      48.460  17.283  21.243  0.00  0.00    +0.019 C 
ATOM     19  C   UNL     1      47.213  17.818  20.579  0.00  0.00    +0.192 C 
ATOM     24  C   UNL     1      46.096  16.799  20.523  0.00  0.00    -0.030 C 
ATOM     25  C   UNL     1      45.478  16.692  21.923  0.00  0.00    +0.038 C 
ATOM     26  C   UNL     1      45.020  17.341  19.581  0.00  0.00    +0.036 C 
ATOM     27  C   UNL     1      46.498  15.432  20.096  0.00  0.00    +0.002 C 
ATOM     28  C   UNL     1      45.714  14.763  19.021  0.00  0.00    +0.031 C 
ATOM     29  C   UNL     1      46.092  13.336  18.712  0.00  0.00    +0.023 C 
ATOM     30  O   UNL     1      50.706  13.392  20.172  0.00  0.00    -0.452 OA
ATOM     31  C   UNL     1      47.560  13.035  18.540  0.00  0.00    +0.008 C 
ATOM     32  C   UNL     1      47.732  11.529  18.818  0.00  0.00    +0.018 C 
ATOM     33  C   UNL     1      49.981  13.177  15.478  0.00  0.00    +0.021 C 
ATOM     34  C   UNL     1      51.439  12.732  15.401  0.00  0.00    -0.024 C 
ATOM     35  C   UNL     1      52.194  13.350  14.229  0.00  0.00    +0.017 C 
ENDROOT
BRANCH  19  20
ATOM     20  O   UNL     1      47.534  18.224  19.246  0.00  0.00    -0.338 OA
BRANCH  20  21
ATOM     21  C   UNL     1      48.106  19.429  19.098  0.00  0.00    +0.455 C 
ATOM     22  C   UNL     1      47.341  20.676  19.461  0.00  0.00    +0.150 C 
ATOM     23  O   UNL     1      49.232  19.515  18.671  0.00  0.00    -0.514 OA
ENDBRANCH  20  21
ENDBRANCH  19  20
TORSDOF 2
ENDMDL
MODEL 6
REMARK VINA RESULT:      -5.7      3.030      6.843
REMARK  Name = ZINC95485936
REMARK  10 active torsions:
REMARK  status: ('A' for Active; 'I' for Inactive)
REMARK    1  A    between atoms: C1_1  and  C2_2
REMARK    2  A    between atoms: C5_6  and  C32_41
REMARK    3  A    between atoms: C8_9  and  C31_40
REMARK    4  A    between atoms: C11_14  and  C12_16
REMARK    5  A    between atoms: C16_21  and  C30_39
REMARK    6  A    between atoms: C24_30  and  O2_35
REMARK    7  A    between atoms: C25_32  and  C26_33
REMARK    8  A    between atoms: C25_32  and  C27_34
REMARK    9  A    between atoms: O2_35  and  C28_36
REMARK   10  A    between atoms: C28_36  and  C29_38
REMARK                            x       y       z     vdW  Elec       q    Type
REMARK                         _______ _______ _______ _____ _____    ______ ____
ROOT
ATOM      1  C   UNL     1      50.203  12.107  14.264  0.00  0.00    +0.010 C 
ATOM      2  C   UNL     1      50.340  12.592  15.714  0.00  0.00    -0.018 C 
ATOM      3  C   UNL     1      50.357  11.384  16.646  0.00  0.00    +0.007 C 
ATOM      4  C   UNL     1      50.438  11.851  18.097  0.00  0.00    +0.014 C 
ATOM      5  C   UNL     1      49.228  12.719  18.438  0.00  0.00    -0.043 C 
ATOM      6  C   UNL     1      47.954  11.862  18.345  0.00  0.00    +0.017 C 
ATOM      7  C   UNL     1      49.322  13.156  19.905  0.00  0.00    +0.010 C 
ATOM      8  C   UNL     1      50.513  14.079  20.122  0.00  0.00    +0.020 C 
ATOM      9  C   UNL     1      50.390  15.323  19.239  0.00  0.00    -0.029 C 
ATOM     10  C   UNL     1      49.094  16.060  19.605  0.00  0.00    +0.029 C 
ATOM     11  C   UNL     1      50.313  14.901  17.775  0.00  0.00    +0.016 C 
ATOM     12  C   UNL     1      50.112  16.130  16.878  0.00  0.00    +0.024 C 
ATOM     13  C   UNL     1      51.216  17.129  17.148  0.00  0.00    +0.398 C 
ATOM     14  C   UNL     1      51.536  17.460  18.594  0.00  0.00    -0.153 C 
ATOM     15  C   UNL     1      52.617  18.537  18.757  0.00  0.00    +0.036 C 
ATOM     16  C   UNL     1      51.151  18.829  19.145  0.00  0.00    -0.040 C 
ATOM     17  C   UNL     1      50.354  19.699  18.171  0.00  0.00    +0.049 C 
ATOM     18  C   UNL     1      49.912  21.017  18.751  0.00  0.00    +0.019 C 
ATOM     19  C   UNL     1      49.295  20.881  20.123  0.00  0.00    +0.192 C 
ATOM     24  C   UNL     1      50.218  20.212  21.118  0.00  0.00    -0.030 C 
ATOM     25  C   UNL     1      51.282  21.234  21.540  0.00  0.00    +0.038 C 
ATOM     26  C   UNL     1      49.392  19.865  22.357  0.00  0.00    +0.036 C 
ATOM     27  C   UNL     1      50.921  18.999  20.623  0.00  0.00    +0.002 C 
ATOM     28  C   UNL     1      50.882  17.766  21.456  0.00  0.00    +0.031 C 
ATOM     29  C   UNL     1      51.709  16.604  20.963  0.00  0.00    +0.023 C 
ATOM     30  O   UNL     1      51.822  17.645  16.238  0.00  0.00    -0.452 OA
ATOM     31  C   UNL     1      51.587  16.243  19.504  0.00  0.00    +0.008 C 
ATOM     32  C   UNL     1      52.877  15.487  19.132  0.00  0.00    +0.018 C 
ATOM     33  C   UNL     1      49.152  13.924  17.516  0.00  0.00    +0.021 C 
ATOM     34  C   UNL     1      49.200  13.544  16.038  0.00  0.00    -0.024 C 
ATOM     35  C   UNL     1      47.868  13.022  15.510  0.00  0.00    +0.017 C 
ENDROOT
BRANCH  19  20
ATOM     20  O   UNL     1      48.094  20.111  20.018  0.00  0.00    -0.338 OA
BRANCH  20  21
ATOM     21  C   UNL     1      46.968  20.776  19.715  0.00  0.00    +0.455 C 
ATOM     22  C   UNL     1      46.461  21.856  20.636  0.00  0.00    +0.150 C 
ATOM     23  O   UNL     1      46.361  20.507  18.707  0.00  0.00    -0.514 OA
ENDBRANCH  20  21
ENDBRANCH  19  20
TORSDOF 2
ENDMDL
MODEL 7
REMARK VINA RESULT:      -5.7      2.817      4.752
REMARK  Name = ZINC95485936
REMARK  10 active torsions:
REMARK  status: ('A' for Active; 'I' for Inactive)
REMARK    1  A    between atoms: C1_1  and  C2_2
REMARK    2  A    between atoms: C5_6  and  C32_41
REMARK    3  A    between atoms: C8_9  and  C31_40
REMARK    4  A    between atoms: C11_14  and  C12_16
REMARK    5  A    between atoms: C16_21  and  C30_39
REMARK    6  A    between atoms: C24_30  and  O2_35
REMARK    7  A    between atoms: C25_32  and  C26_33
REMARK    8  A    between atoms: C25_32  and  C27_34
REMARK    9  A    between atoms: O2_35  and  C28_36
REMARK   10  A    between atoms: C28_36  and  C29_38
REMARK                            x       y       z     vdW  Elec       q    Type
REMARK                         _______ _______ _______ _____ _____    ______ ____
ROOT
ATOM      1  C   UNL     1      43.208  19.190  20.913  0.00  0.00    +0.010 C 
ATOM      2  C   UNL     1      44.665  18.723  20.784  0.00  0.00    -0.018 C 
ATOM      3  C   UNL     1      45.590  19.819  21.303  0.00  0.00    +0.007 C 
ATOM      4  C   UNL     1      47.046  19.391  21.131  0.00  0.00    +0.014 C 
ATOM      5  C   UNL     1      47.351  19.149  19.654  0.00  0.00    -0.043 C 
ATOM      6  C   UNL     1      47.211  20.476  18.889  0.00  0.00    +0.017 C 
ATOM      7  C   UNL     1      48.822  18.743  19.506  0.00  0.00    +0.010 C 
ATOM      8  C   UNL     1      49.083  17.396  20.164  0.00  0.00    +0.020 C 
ATOM      9  C   UNL     1      48.203  16.315  19.532  0.00  0.00    -0.029 C 
ATOM     10  C   UNL     1      48.529  16.228  18.034  0.00  0.00    +0.029 C 
ATOM     11  C   UNL     1      46.736  16.700  19.688  0.00  0.00    +0.016 C 
ATOM     12  C   UNL     1      45.839  15.667  18.994  0.00  0.00    +0.024 C 
ATOM     13  C   UNL     1      46.150  14.289  19.539  0.00  0.00    +0.398 C 
ATOM     14  C   UNL     1      47.608  13.880  19.640  0.00  0.00    -0.153 C 
ATOM     15  C   UNL     1      47.812  12.442  20.134  0.00  0.00    +0.036 C 
ATOM     16  C   UNL     1      48.152  12.829  18.678  0.00  0.00    -0.040 C 
ATOM     17  C   UNL     1      47.157  12.379  17.608  0.00  0.00    +0.049 C 
ATOM     18  C   UNL     1      47.729  11.399  16.616  0.00  0.00    +0.019 C 
ATOM     19  C   UNL     1      49.079  11.819  16.083  0.00  0.00    +0.192 C 
ATOM     24  C   UNL     1      50.101  12.033  17.179  0.00  0.00    -0.030 C 
ATOM     25  C   UNL     1      50.563  10.657  17.674  0.00  0.00    +0.038 C 
ATOM     26  C   UNL     1      51.310  12.732  16.555  0.00  0.00    +0.036 C 
ATOM     27  C   UNL     1      49.623  12.806  18.357  0.00  0.00    +0.002 C 
ATOM     28  C   UNL     1      50.448  13.947  18.840  0.00  0.00    +0.031 C 
ATOM     29  C   UNL     1      49.977  14.618  20.106  0.00  0.00    +0.023 C 
ATOM     30  O   UNL     1      45.263  13.543  19.881  0.00  0.00    -0.452 OA
ATOM     31  C   UNL     1      48.512  14.968  20.196  0.00  0.00    +0.008 C 
ATOM     32  C   UNL     1      48.179  15.075  21.696  0.00  0.00    +0.018 C 
ATOM     33  C   UNL     1      46.433  18.082  19.082  0.00  0.00    +0.021 C 
ATOM     34  C   UNL     1      44.956  18.374  19.333  0.00  0.00    -0.024 C 
ATOM     35  C   UNL     1      44.381  19.417  18.381  0.00  0.00    +0.017 C 
ENDROOT
BRANCH  19  20
ATOM     20  O   UNL     1      48.930  13.035  15.347  0.00  0.00    -0.338 OA
BRANCH  20  21
ATOM     21  C   UNL     1      48.809  12.929  14.014  0.00  0.00    +0.455 C 
ATOM     22  C   UNL     1      50.041  12.848  13.150  0.00  0.00    +0.150 C 
ATOM     23  O   UNL     1      47.713  12.901  13.508  0.00  0.00    -0.514 OA
ENDBRANCH  20  21
ENDBRANCH  19  20
TORSDOF 2
ENDMDL
MODEL 8
REMARK VINA RESULT:      -5.6      2.769      6.536
REMARK  Name = ZINC95485936
REMARK  10 active torsions:
REMARK  status: ('A' for Active; 'I' for Inactive)
REMARK    1  A    between atoms: C1_1  and  C2_2
REMARK    2  A    between atoms: C5_6  and  C32_41
REMARK    3  A    between atoms: C8_9  and  C31_40
REMARK    4  A    between atoms: C11_14  and  C12_16
REMARK    5  A    between atoms: C16_21  and  C30_39
REMARK    6  A    between atoms: C24_30  and  O2_35
REMARK    7  A    between atoms: C25_32  and  C26_33
REMARK    8  A    between atoms: C25_32  and  C27_34
REMARK    9  A    between atoms: O2_35  and  C28_36
REMARK   10  A    between atoms: C28_36  and  C29_38
REMARK                            x       y       z     vdW  Elec       q    Type
REMARK                         _______ _______ _______ _____ _____    ______ ____
ROOT
ATOM      1  C   UNL     1      51.126  21.621  16.165  0.00  0.00    +0.010 C 
ATOM      2  C   UNL     1      50.892  20.828  17.458  0.00  0.00    -0.018 C 
ATOM      3  C   UNL     1      51.890  21.289  18.515  0.00  0.00    +0.007 C 
ATOM      4  C   UNL     1      51.707  20.472  19.792  0.00  0.00    +0.014 C 
ATOM      5  C   UNL     1      51.944  18.990  19.505  0.00  0.00    -0.043 C 
ATOM      6  C   UNL     1      53.410  18.789  19.085  0.00  0.00    +0.017 C 
ATOM      7  C   UNL     1      51.776  18.195  20.805  0.00  0.00    +0.010 C 
ATOM      8  C   UNL     1      50.335  18.252  21.295  0.00  0.00    +0.020 C 
ATOM      9  C   UNL     1      49.389  17.680  20.236  0.00  0.00    -0.029 C 
ATOM     10  C   UNL     1      49.782  16.222  19.962  0.00  0.00    +0.029 C 
ATOM     11  C   UNL     1      49.536  18.475  18.943  0.00  0.00    +0.016 C 
ATOM     12  C   UNL     1      48.651  17.870  17.845  0.00  0.00    +0.024 C 
ATOM     13  C   UNL     1      47.222  17.800  18.338  0.00  0.00    +0.398 C 
ATOM     14  C   UNL     1      46.976  17.227  19.721  0.00  0.00    -0.153 C 
ATOM     15  C   UNL     1      45.491  17.133  20.095  0.00  0.00    +0.036 C 
ATOM     16  C   UNL     1      46.323  15.855  19.851  0.00  0.00    -0.040 C 
ATOM     17  C   UNL     1      46.090  15.140  18.520  0.00  0.00    +0.049 C 
ATOM     18  C   UNL     1      45.517  13.754  18.663  0.00  0.00    +0.019 C 
ATOM     19  C   UNL     1      46.230  12.925  19.707  0.00  0.00    +0.192 C 
ATOM     24  C   UNL     1      46.235  13.579  21.072  0.00  0.00    -0.030 C 
ATOM     25  C   UNL     1      44.839  13.410  21.685  0.00  0.00    +0.038 C 
ATOM     26  C   UNL     1      47.223  12.810  21.950  0.00  0.00    +0.036 C 
ATOM     27  C   UNL     1      46.569  15.028  21.085  0.00  0.00    +0.002 C 
ATOM     28  C   UNL     1      47.609  15.509  22.036  0.00  0.00    +0.031 C 
ATOM     29  C   UNL     1      47.821  17.001  22.090  0.00  0.00    +0.023 C 
ATOM     30  O   UNL     1      46.309  18.190  17.649  0.00  0.00    -0.452 OA
ATOM     31  C   UNL     1      47.954  17.725  20.773  0.00  0.00    +0.008 C 
ATOM     32  C   UNL     1      47.579  19.195  21.043  0.00  0.00    +0.018 C 
ATOM     33  C   UNL     1      50.989  18.489  18.435  0.00  0.00    +0.021 C 
ATOM     34  C   UNL     1      51.018  19.341  17.168  0.00  0.00    -0.024 C 
ATOM     35  C   UNL     1      52.218  19.045  16.274  0.00  0.00    +0.017 C 
ENDROOT
BRANCH  19  20
ATOM     20  O   UNL     1      47.582  12.717  19.290  0.00  0.00    -0.338 OA
BRANCH  20  21
ATOM     21  C   UNL     1      47.769  12.072  18.127  0.00  0.00    +0.455 C 
ATOM     22  C   UNL     1      48.587  12.710  17.035  0.00  0.00    +0.150 C 
ATOM     23  O   UNL     1      47.280  10.981  17.957  0.00  0.00    -0.514 OA
ENDBRANCH  20  21
ENDBRANCH  19  20
TORSDOF 2
ENDMDL
MODEL 9
REMARK VINA RESULT:      -5.6      3.832      6.435
REMARK  Name = ZINC95485936
REMARK  10 active torsions:
REMARK  status: ('A' for Active; 'I' for Inactive)
REMARK    1  A    between atoms: C1_1  and  C2_2
REMARK    2  A    between atoms: C5_6  and  C32_41
REMARK    3  A    between atoms: C8_9  and  C31_40
REMARK    4  A    between atoms: C11_14  and  C12_16
REMARK    5  A    between atoms: C16_21  and  C30_39
REMARK    6  A    between atoms: C24_30  and  O2_35
REMARK    7  A    between atoms: C25_32  and  C26_33
REMARK    8  A    between atoms: C25_32  and  C27_34
REMARK    9  A    between atoms: O2_35  and  C28_36
REMARK   10  A    between atoms: C28_36  and  C29_38
REMARK                            x       y       z     vdW  Elec       q    Type
REMARK                         _______ _______ _______ _____ _____    ______ ____
ROOT
ATOM      1  C   UNL     1      48.631  21.283  21.858  0.00  0.00    +0.010 C 
ATOM      2  C   UNL     1      49.652  20.334  21.215  0.00  0.00    -0.018 C 
ATOM      3  C   UNL     1      50.929  21.109  20.905  0.00  0.00    +0.007 C 
ATOM      4  C   UNL     1      51.936  20.191  20.215  0.00  0.00    +0.014 C 
ATOM      5  C   UNL     1      51.352  19.661  18.907  0.00  0.00    -0.043 C 
ATOM      6  C   UNL     1      51.130  20.839  17.943  0.00  0.00    +0.017 C 
ATOM      7  C   UNL     1      52.389  18.761  18.223  0.00  0.00    +0.010 C 
ATOM      8  C   UNL     1      52.650  17.509  19.048  0.00  0.00    +0.020 C 
ATOM      9  C   UNL     1      51.354  16.717  19.239  0.00  0.00    -0.029 C 
ATOM     10  C   UNL     1      50.811  16.321  17.858  0.00  0.00    +0.029 C 
ATOM     11  C   UNL     1      50.320  17.597  19.933  0.00  0.00    +0.016 C 
ATOM     12  C   UNL     1      48.987  16.847  20.065  0.00  0.00    +0.024 C 
ATOM     13  C   UNL     1      49.223  15.535  20.781  0.00  0.00    +0.398 C 
ATOM     14  C   UNL     1      50.380  14.671  20.314  0.00  0.00    -0.153 C 
ATOM     15  C   UNL     1      50.486  13.330  21.054  0.00  0.00    +0.036 C 
ATOM     16  C   UNL     1      50.084  13.376  19.563  0.00  0.00    -0.040 C 
ATOM     17  C   UNL     1      48.603  13.151  19.256  0.00  0.00    +0.049 C 
ATOM     18  C   UNL     1      48.329  11.910  18.447  0.00  0.00    +0.019 C 
ATOM     19  C   UNL     1      49.248  11.766  17.256  0.00  0.00    +0.192 C 
ATOM     24  C   UNL     1      50.712  11.767  17.641  0.00  0.00    -0.030 C 
ATOM     25  C   UNL     1      51.045  10.397  18.245  0.00  0.00    +0.038 C 
ATOM     26  C   UNL     1      51.529  11.919  16.358  0.00  0.00    +0.036 C 
ATOM     27  C   UNL     1      51.114  12.809  18.624  0.00  0.00    +0.002 C 
ATOM     28  C   UNL     1      52.300  13.655  18.316  0.00  0.00    +0.031 C 
ATOM     29  C   UNL     1      52.732  14.613  19.398  0.00  0.00    +0.023 C 
ATOM     30  O   UNL     1      48.511  15.189  21.694  0.00  0.00    -0.452 OA
ATOM     31  C   UNL     1      51.657  15.450  20.046  0.00  0.00    +0.008 C 
ATOM     32  C   UNL     1      52.200  15.867  21.426  0.00  0.00    +0.018 C 
ATOM     33  C   UNL     1      50.060  18.903  19.161  0.00  0.00    +0.021 C 
ATOM     34  C   UNL     1      49.047  19.713  19.966  0.00  0.00    -0.024 C 
ATOM     35  C   UNL     1      48.306  20.749  19.129  0.00  0.00    +0.017 C 
ENDROOT
BRANCH  19  20
ATOM     20  O   UNL     1      49.009  12.848  16.352  0.00  0.00    -0.338 OA
BRANCH  20  21
ATOM     21  C   UNL     1      47.838  12.847  15.696  0.00  0.00    +0.455 C 
ATOM     22  C   UNL     1      47.470  11.682  14.814  0.00  0.00    +0.150 C 
ATOM     23  O   UNL     1      47.080  13.780  15.812  0.00  0.00    -0.514 OA
ENDBRANCH  20  21
ENDBRANCH  19  20
TORSDOF 2
ENDMDL
