MODEL 1
REMARK VINA RESULT:      -7.2      0.000      0.000
REMARK  Name = ZINC43079447
REMARK  10 active torsions:
REMARK  status: ('A' for Active; 'I' for Inactive)
REMARK    1  A    between atoms: C1_1  and  C2_2
REMARK    2  A    between atoms: C2_2  and  C25_33
REMARK    3  A    between atoms: C3_3  and  C4_4
REMARK    4  A    between atoms: C4_4  and  C5_5
REMARK    5  A    between atoms: C8_8  and  O5_26
REMARK    6  A    between atoms: C11_12  and  C14_19
REMARK    7  A    between atoms: C12_14  and  O3_18
REMARK    8  A    between atoms: C17_22  and  O4_25
REMARK    9  A    between atoms: C22_29  and  C23_31
REMARK   10  A    between atoms: C22_29  and  C24_32
REMARK                            x       y       z     vdW  Elec       q    Type
REMARK                         _______ _______ _______ _____ _____    ______ ____
ROOT
ATOM      6  C   UNL     1      47.455  19.439  18.998  0.00  0.00    -0.149 A 
ATOM      7  C   UNL     1      48.803  19.372  19.309  0.00  0.00    +0.225 A 
ATOM      8  C   UNL     1      49.336  20.174  20.331  0.00  0.00    -0.202 A 
ATOM      9  C   UNL     1      50.781  20.072  20.626  0.00  0.00    +0.057 C 
ATOM     10  C   UNL     1      51.566  19.494  19.718  0.00  0.00    -0.055 C 
ATOM     11  C   UNL     1      50.976  18.978  18.432  0.00  0.00    +0.149 C 
ATOM     12  C   UNL     1      50.982  20.098  17.390  0.00  0.00    +0.037 C 
ATOM     13  C   UNL     1      51.821  17.809  17.922  0.00  0.00    +0.086 C 
ATOM     14  C   UNL     1      48.512  21.042  21.043  0.00  0.00    +0.246 A 
ATOM     17  C   UNL     1      47.146  21.102  20.724  0.00  0.00    -0.306 A 
ATOM     18  C   UNL     1      46.248  21.998  21.461  0.00  0.00    +0.372 C 
ATOM     19  O   UNL     1      46.593  22.540  22.491  0.00  0.00    -0.418 OA
ATOM     20  C   UNL     1      44.870  22.220  20.860  0.00  0.00    +0.148 C 
ATOM     23  C   UNL     1      44.386  20.861  20.335  0.00  0.00    +0.251 C 
ATOM     32  O   UNL     1      45.309  20.373  19.363  0.00  0.00    -0.282 OA
ATOM     33  O   UNL     1      49.634  18.535  18.637  0.00  0.00    -0.290 OA
ATOM     34  C   UNL     1      46.621  20.303  19.689  0.00  0.00    +0.227 A 
ENDROOT
BRANCH  23  24
ATOM     24  C   UNL     1      43.027  21.022  19.702  0.00  0.00    -0.095 A 
ATOM     25  C   UNL     1      42.646  22.247  19.186  0.00  0.00    +0.056 A 
ATOM     26  C   UNL     1      41.402  22.396  18.606  0.00  0.00    -0.016 A 
ATOM     27  C   UNL     1      40.534  21.316  18.539  0.00  0.00    +0.117 A 
ATOM     30  C   UNL     1      40.918  20.088  19.057  0.00  0.00    -0.012 A 
ATOM     31  C   UNL     1      42.166  19.942  19.631  0.00  0.00    +0.064 A 
BRANCH  27  28
ATOM     28  O   UNL     1      39.308  21.461  17.969  0.00  0.00    -0.500 OA
ATOM     29  H   UNL     1      38.626  21.773  18.580  0.00  0.00    +0.394 HD
ENDBRANCH  27  28
ENDBRANCH  23  24
BRANCH  14  15
ATOM     15  O   UNL     1      49.022  21.818  22.030  0.00  0.00    -0.471 OA
ATOM     16  H   UNL     1      48.410  22.494  22.354  0.00  0.00    +0.400 HD
ENDBRANCH  14  15
BRANCH  20  21
ATOM     21  O   UNL     1      43.975  22.701  21.865  0.00  0.00    -0.532 OA
ATOM     22  H   UNL     1      43.854  22.092  22.607  0.00  0.00    +0.395 HD
ENDBRANCH  20  21
BRANCH   6   5
ATOM      5  C   UNL     1      46.895  18.575  17.898  0.00  0.00    +0.137 C 
BRANCH   5   4
ATOM      1  C   UNL     1      47.830  16.029  17.126  0.00  0.00    +0.074 C 
ATOM      2  C   UNL     1      46.680  16.151  18.091  0.00  0.00    -0.126 C 
ATOM      3  C   UNL     1      45.983  14.913  18.594  0.00  0.00    +0.070 C 
ATOM      4  C   UNL     1      46.285  17.334  18.495  0.00  0.00    -0.051 C 
ENDBRANCH   5   4
ENDBRANCH   6   5
TORSDOF 6
ENDMDL
MODEL 2
REMARK VINA RESULT:      -7.1      2.352      7.912
REMARK  Name = ZINC43079447
REMARK  10 active torsions:
REMARK  status: ('A' for Active; 'I' for Inactive)
REMARK    1  A    between atoms: C1_1  and  C2_2
REMARK    2  A    between atoms: C2_2  and  C25_33
REMARK    3  A    between atoms: C3_3  and  C4_4
REMARK    4  A    between atoms: C4_4  and  C5_5
REMARK    5  A    between atoms: C8_8  and  O5_26
REMARK    6  A    between atoms: C11_12  and  C14_19
REMARK    7  A    between atoms: C12_14  and  O3_18
REMARK    8  A    between atoms: C17_22  and  O4_25
REMARK    9  A    between atoms: C22_29  and  C23_31
REMARK   10  A    between atoms: C22_29  and  C24_32
REMARK                            x       y       z     vdW  Elec       q    Type
REMARK                         _______ _______ _______ _____ _____    ______ ____
ROOT
ATOM      6  C   UNL     1      44.558  20.808  19.859  0.00  0.00    -0.149 A 
ATOM      7  C   UNL     1      43.252  20.394  20.060  0.00  0.00    +0.225 A 
ATOM      8  C   UNL     1      42.986  19.168  20.694  0.00  0.00    -0.202 A 
ATOM      9  C   UNL     1      41.577  18.764  20.883  0.00  0.00    +0.057 C 
ATOM     10  C   UNL     1      40.644  19.393  20.170  0.00  0.00    -0.055 C 
ATOM     11  C   UNL     1      41.041  20.471  19.196  0.00  0.00    +0.149 C 
ATOM     12  C   UNL     1      41.331  19.838  17.834  0.00  0.00    +0.037 C 
ATOM     13  C   UNL     1      39.891  21.470  19.054  0.00  0.00    +0.086 C 
ATOM     14  C   UNL     1      44.035  18.361  21.127  0.00  0.00    +0.246 A 
ATOM     17  C   UNL     1      45.356  18.790  20.923  0.00  0.00    -0.306 A 
ATOM     18  C   UNL     1      46.484  17.969  21.377  0.00  0.00    +0.372 C 
ATOM     19  O   UNL     1      46.326  17.024  22.122  0.00  0.00    -0.418 OA
ATOM     20  C   UNL     1      47.858  18.356  20.853  0.00  0.00    +0.148 C 
ATOM     23  C   UNL     1      47.929  19.889  20.873  0.00  0.00    +0.251 C 
ATOM     32  O   UNL     1      46.887  20.422  20.056  0.00  0.00    -0.282 OA
ATOM     33  O   UNL     1      42.207  21.157  19.654  0.00  0.00    -0.290 OA
ATOM     34  C   UNL     1      45.615  20.015  20.276  0.00  0.00    +0.227 A 
ENDROOT
BRANCH  23  24
ATOM     24  C   UNL     1      49.266  20.338  20.339  0.00  0.00    -0.095 A 
ATOM     25  C   UNL     1      49.479  20.398  18.974  0.00  0.00    +0.056 A 
ATOM     26  C   UNL     1      50.703  20.808  18.484  0.00  0.00    -0.016 A 
ATOM     27  C   UNL     1      51.718  21.161  19.361  0.00  0.00    +0.117 A 
ATOM     30  C   UNL     1      51.502  21.099  20.729  0.00  0.00    -0.012 A 
ATOM     31  C   UNL     1      50.274  20.694  21.215  0.00  0.00    +0.064 A 
BRANCH  27  28
ATOM     28  O   UNL     1      52.924  21.564  18.880  0.00  0.00    -0.500 OA
ATOM     29  H   UNL     1      53.668  21.359  19.463  0.00  0.00    +0.394 HD
ENDBRANCH  27  28
ENDBRANCH  23  24
BRANCH  14  15
ATOM     15  O   UNL     1      43.784  17.178  21.739  0.00  0.00    -0.471 OA
ATOM     16  H   UNL     1      42.993  16.727  21.413  0.00  0.00    +0.400 HD
ENDBRANCH  14  15
BRANCH  20  21
ATOM     21  O   UNL     1      48.870  17.810  21.701  0.00  0.00    -0.532 OA
ATOM     22  H   UNL     1      49.413  18.476  22.144  0.00  0.00    +0.395 HD
ENDBRANCH  20  21
BRANCH   6   5
ATOM      5  C   UNL     1      44.832  22.124  19.177  0.00  0.00    +0.137 C 
BRANCH   5   4
ATOM      1  C   UNL     1      44.453  24.885  18.746  0.00  0.00    +0.074 C 
ATOM      2  C   UNL     1      45.206  24.406  19.960  0.00  0.00    -0.126 C 
ATOM      3  C   UNL     1      45.817  25.403  20.911  0.00  0.00    +0.070 C 
ATOM      4  C   UNL     1      45.330  23.121  20.190  0.00  0.00    -0.051 C 
ENDBRANCH   5   4
ENDBRANCH   6   5
TORSDOF 6
ENDMDL
MODEL 3
REMARK VINA RESULT:      -6.6      2.511      5.306
REMARK  Name = ZINC43079447
REMARK  10 active torsions:
REMARK  status: ('A' for Active; 'I' for Inactive)
REMARK    1  A    between atoms: C1_1  and  C2_2
REMARK    2  A    between atoms: C2_2  and  C25_33
REMARK    3  A    between atoms: C3_3  and  C4_4
REMARK    4  A    between atoms: C4_4  and  C5_5
REMARK    5  A    between atoms: C8_8  and  O5_26
REMARK    6  A    between atoms: C11_12  and  C14_19
REMARK    7  A    between atoms: C12_14  and  O3_18
REMARK    8  A    between atoms: C17_22  and  O4_25
REMARK    9  A    between atoms: C22_29  and  C23_31
REMARK   10  A    between atoms: C22_29  and  C24_32
REMARK                            x       y       z     vdW  Elec       q    Type
REMARK                         _______ _______ _______ _____ _____    ______ ____
ROOT
ATOM      6  C   UNL     1      46.295  16.807  18.311  0.00  0.00    -0.149 A 
ATOM      7  C   UNL     1      46.360  15.433  18.157  0.00  0.00    +0.225 A 
ATOM      8  C   UNL     1      45.751  14.584  19.097  0.00  0.00    -0.202 A 
ATOM      9  C   UNL     1      45.849  13.123  18.895  0.00  0.00    +0.057 C 
ATOM     10  C   UNL     1      46.767  12.669  18.044  0.00  0.00    -0.055 C 
ATOM     11  C   UNL     1      47.675  13.636  17.330  0.00  0.00    +0.149 C 
ATOM     12  C   UNL     1      48.920  13.883  18.185  0.00  0.00    +0.037 C 
ATOM     13  C   UNL     1      48.096  13.035  15.988  0.00  0.00    +0.086 C 
ATOM     14  C   UNL     1      45.074  15.120  20.189  0.00  0.00    +0.246 A 
ATOM     17  C   UNL     1      45.010  16.514  20.337  0.00  0.00    -0.306 A 
ATOM     18  C   UNL     1      44.297  17.112  21.471  0.00  0.00    +0.372 C 
ATOM     19  O   UNL     1      43.566  16.454  22.182  0.00  0.00    -0.418 OA
ATOM     20  C   UNL     1      44.532  18.594  21.715  0.00  0.00    +0.148 C 
ATOM     23  C   UNL     1      44.556  19.276  20.339  0.00  0.00    +0.251 C 
ATOM     32  O   UNL     1      45.595  18.704  19.546  0.00  0.00    -0.282 OA
ATOM     33  O   UNL     1      47.008  14.878  17.103  0.00  0.00    -0.290 OA
ATOM     34  C   UNL     1      45.634  17.359  19.397  0.00  0.00    +0.227 A 
ENDROOT
BRANCH  23  24
ATOM     24  C   UNL     1      44.811  20.752  20.514  0.00  0.00    -0.095 A 
ATOM     25  C   UNL     1      45.892  21.181  21.261  0.00  0.00    +0.056 A 
ATOM     26  C   UNL     1      46.128  22.532  21.422  0.00  0.00    -0.016 A 
ATOM     27  C   UNL     1      45.279  23.459  20.834  0.00  0.00    +0.117 A 
ATOM     30  C   UNL     1      44.195  23.025  20.085  0.00  0.00    -0.012 A 
ATOM     31  C   UNL     1      43.967  21.673  19.922  0.00  0.00    +0.064 A 
BRANCH  27  28
ATOM     28  O   UNL     1      45.508  24.789  20.993  0.00  0.00    -0.500 OA
ATOM     29  H   UNL     1      44.705  25.314  21.119  0.00  0.00    +0.394 HD
ENDBRANCH  27  28
ENDBRANCH  23  24
BRANCH  14  15
ATOM     15  O   UNL     1      44.485  14.306  21.100  0.00  0.00    -0.471 OA
ATOM     16  H   UNL     1      44.651  13.365  20.950  0.00  0.00    +0.400 HD
ENDBRANCH  14  15
BRANCH  20  21
ATOM     21  O   UNL     1      43.469  19.129  22.505  0.00  0.00    -0.532 OA
ATOM     22  H   UNL     1      42.877  18.458  22.874  0.00  0.00    +0.395 HD
ENDBRANCH  20  21
BRANCH   6   5
ATOM      5  C   UNL     1      46.954  17.708  17.298  0.00  0.00    +0.137 C 
BRANCH   5   4
ATOM      1  C   UNL     1      48.802  19.236  18.781  0.00  0.00    +0.074 C 
ATOM      2  C   UNL     1      49.288  18.140  17.868  0.00  0.00    -0.126 C 
ATOM      3  C   UNL     1      50.766  17.902  17.695  0.00  0.00    +0.070 C 
ATOM      4  C   UNL     1      48.425  17.392  17.225  0.00  0.00    -0.051 C 
ENDBRANCH   5   4
ENDBRANCH   6   5
TORSDOF 6
ENDMDL
MODEL 4
REMARK VINA RESULT:      -6.6      2.769      4.672
REMARK  Name = ZINC43079447
REMARK  10 active torsions:
REMARK  status: ('A' for Active; 'I' for Inactive)
REMARK    1  A    between atoms: C1_1  and  C2_2
REMARK    2  A    between atoms: C2_2  and  C25_33
REMARK    3  A    between atoms: C3_3  and  C4_4
REMARK    4  A    between atoms: C4_4  and  C5_5
REMARK    5  A    between atoms: C8_8  and  O5_26
REMARK    6  A    between atoms: C11_12  and  C14_19
REMARK    7  A    between atoms: C12_14  and  O3_18
REMARK    8  A    between atoms: C17_22  and  O4_25
REMARK    9  A    between atoms: C22_29  and  C23_31
REMARK   10  A    between atoms: C22_29  and  C24_32
REMARK                            x       y       z     vdW  Elec       q    Type
REMARK                         _______ _______ _______ _____ _____    ______ ____
ROOT
ATOM      6  C   UNL     1      46.127  16.741  19.082  0.00  0.00    -0.149 A 
ATOM      7  C   UNL     1      46.622  15.489  19.405  0.00  0.00    +0.225 A 
ATOM      8  C   UNL     1      46.097  14.779  20.498  0.00  0.00    -0.202 A 
ATOM      9  C   UNL     1      46.658  13.448  20.809  0.00  0.00    +0.057 C 
ATOM     10  C   UNL     1      47.832  13.122  20.271  0.00  0.00    -0.055 C 
ATOM     11  C   UNL     1      48.552  14.104  19.385  0.00  0.00    +0.149 C 
ATOM     12  C   UNL     1      49.452  14.994  20.246  0.00  0.00    +0.037 C 
ATOM     13  C   UNL     1      49.414  13.338  18.380  0.00  0.00    +0.086 C 
ATOM     14  C   UNL     1      45.071  15.328  21.262  0.00  0.00    +0.246 A 
ATOM     17  C   UNL     1      44.573  16.597  20.926  0.00  0.00    -0.306 A 
ATOM     18  C   UNL     1      43.485  17.200  21.704  0.00  0.00    +0.372 C 
ATOM     19  O   UNL     1      42.841  16.556  22.506  0.00  0.00    -0.418 OA
ATOM     20  C   UNL     1      43.218  18.677  21.463  0.00  0.00    +0.148 C 
ATOM     23  C   UNL     1      43.343  18.914  19.951  0.00  0.00    +0.251 C 
ATOM     32  O   UNL     1      44.651  18.541  19.520  0.00  0.00    -0.282 OA
ATOM     33  O   UNL     1      47.619  14.922  18.680  0.00  0.00    -0.290 OA
ATOM     34  C   UNL     1      45.113  17.308  19.836  0.00  0.00    +0.227 A 
ENDROOT
BRANCH  23  24
ATOM     24  C   UNL     1      43.112  20.374  19.650  0.00  0.00    -0.095 A 
ATOM     25  C   UNL     1      41.937  20.775  19.043  0.00  0.00    +0.056 A 
ATOM     26  C   UNL     1      41.723  22.111  18.766  0.00  0.00    -0.016 A 
ATOM     27  C   UNL     1      42.688  23.050  19.099  0.00  0.00    +0.117 A 
ATOM     30  C   UNL     1      43.866  22.645  19.708  0.00  0.00    -0.012 A 
ATOM     31  C   UNL     1      44.073  21.309  19.989  0.00  0.00    +0.064 A 
BRANCH  27  28
ATOM     28  O   UNL     1      42.480  24.366  18.827  0.00  0.00    -0.500 OA
ATOM     29  H   UNL     1      41.962  24.524  18.025  0.00  0.00    +0.394 HD
ENDBRANCH  27  28
ENDBRANCH  23  24
BRANCH  14  15
ATOM     15  O   UNL     1      44.561  14.648  22.318  0.00  0.00    -0.471 OA
ATOM     16  H   UNL     1      44.877  14.960  23.176  0.00  0.00    +0.400 HD
ENDBRANCH  14  15
BRANCH  20  21
ATOM     21  O   UNL     1      41.899  19.008  21.901  0.00  0.00    -0.532 OA
ATOM     22  H   UNL     1      41.771  18.932  22.856  0.00  0.00    +0.395 HD
ENDBRANCH  20  21
BRANCH   6   5
ATOM      5  C   UNL     1      46.700  17.493  17.908  0.00  0.00    +0.137 C 
BRANCH   5   4
ATOM      1  C   UNL     1      49.383  17.182  17.097  0.00  0.00    +0.074 C 
ATOM      2  C   UNL     1      49.008  18.276  18.063  0.00  0.00    -0.126 C 
ATOM      3  C   UNL     1      50.076  19.163  18.650  0.00  0.00    +0.070 C 
ATOM      4  C   UNL     1      47.752  18.456  18.394  0.00  0.00    -0.051 C 
ENDBRANCH   5   4
ENDBRANCH   6   5
TORSDOF 6
ENDMDL
MODEL 5
REMARK VINA RESULT:      -6.2      3.987      7.648
REMARK  Name = ZINC43079447
REMARK  10 active torsions:
REMARK  status: ('A' for Active; 'I' for Inactive)
REMARK    1  A    between atoms: C1_1  and  C2_2
REMARK    2  A    between atoms: C2_2  and  C25_33
REMARK    3  A    between atoms: C3_3  and  C4_4
REMARK    4  A    between atoms: C4_4  and  C5_5
REMARK    5  A    between atoms: C8_8  and  O5_26
REMARK    6  A    between atoms: C11_12  and  C14_19
REMARK    7  A    between atoms: C12_14  and  O3_18
REMARK    8  A    between atoms: C17_22  and  O4_25
REMARK    9  A    between atoms: C22_29  and  C23_31
REMARK   10  A    between atoms: C22_29  and  C24_32
REMARK                            x       y       z     vdW  Elec       q    Type
REMARK                         _______ _______ _______ _____ _____    ______ ____
ROOT
ATOM      6  C   UNL     1      48.798  14.973  17.402  0.00  0.00    -0.149 A 
ATOM      7  C   UNL     1      47.904  13.923  17.283  0.00  0.00    +0.225 A 
ATOM      8  C   UNL     1      46.658  13.975  17.932  0.00  0.00    -0.202 A 
ATOM      9  C   UNL     1      45.737  12.829  17.781  0.00  0.00    +0.057 C 
ATOM     10  C   UNL     1      46.236  11.680  17.329  0.00  0.00    -0.055 C 
ATOM     11  C   UNL     1      47.702  11.573  17.001  0.00  0.00    +0.149 C 
ATOM     12  C   UNL     1      48.469  11.149  18.255  0.00  0.00    +0.037 C 
ATOM     13  C   UNL     1      47.899  10.520  15.909  0.00  0.00    +0.086 C 
ATOM     14  C   UNL     1      46.313  15.085  18.698  0.00  0.00    +0.246 A 
ATOM     17  C   UNL     1      47.224  16.147  18.810  0.00  0.00    -0.306 A 
ATOM     18  C   UNL     1      46.887  17.337  19.601  0.00  0.00    +0.372 C 
ATOM     19  O   UNL     1      45.757  17.543  19.993  0.00  0.00    -0.418 OA
ATOM     20  C   UNL     1      48.030  18.288  19.914  0.00  0.00    +0.148 C 
ATOM     23  C   UNL     1      48.887  18.391  18.644  0.00  0.00    +0.251 C 
ATOM     32  O   UNL     1      49.367  17.095  18.290  0.00  0.00    -0.282 OA
ATOM     33  O   UNL     1      48.207  12.828  16.543  0.00  0.00    -0.290 OA
ATOM     34  C   UNL     1      48.476  16.083  18.167  0.00  0.00    +0.227 A 
ENDROOT
BRANCH  23  24
ATOM     24  C   UNL     1      50.058  19.307  18.901  0.00  0.00    -0.095 A 
ATOM     25  C   UNL     1      50.197  20.471  18.166  0.00  0.00    +0.056 A 
ATOM     26  C   UNL     1      51.268  21.311  18.400  0.00  0.00    -0.016 A 
ATOM     27  C   UNL     1      52.203  20.988  19.372  0.00  0.00    +0.117 A 
ATOM     30  C   UNL     1      52.061  19.820  20.107  0.00  0.00    -0.012 A 
ATOM     31  C   UNL     1      50.985  18.986  19.874  0.00  0.00    +0.064 A 
BRANCH  27  28
ATOM     28  O   UNL     1      53.259  21.813  19.602  0.00  0.00    -0.500 OA
ATOM     29  H   UNL     1      53.305  22.148  20.509  0.00  0.00    +0.394 HD
ENDBRANCH  27  28
ENDBRANCH  23  24
BRANCH  14  15
ATOM     15  O   UNL     1      45.113  15.140  19.326  0.00  0.00    -0.471 OA
ATOM     16  H   UNL     1      44.398  14.701  18.847  0.00  0.00    +0.400 HD
ENDBRANCH  14  15
BRANCH  20  21
ATOM     21  O   UNL     1      47.510  19.574  20.256  0.00  0.00    -0.532 OA
ATOM     22  H   UNL     1      47.669  20.253  19.586  0.00  0.00    +0.395 HD
ENDBRANCH  20  21
BRANCH   6   5
ATOM      5  C   UNL     1      50.131  14.906  16.703  0.00  0.00    +0.137 C 
BRANCH   5   4
ATOM      1  C   UNL     1      51.471  12.668  15.632  0.00  0.00    +0.074 C 
ATOM      2  C   UNL     1      51.683  13.058  17.072  0.00  0.00    -0.126 C 
ATOM      3  C   UNL     1      52.560  12.213  17.961  0.00  0.00    +0.070 C 
ATOM      4  C   UNL     1      51.106  14.132  17.552  0.00  0.00    -0.051 C 
ENDBRANCH   5   4
ENDBRANCH   6   5
TORSDOF 6
ENDMDL
MODEL 6
REMARK VINA RESULT:      -6.2      2.578      5.452
REMARK  Name = ZINC43079447
REMARK  10 active torsions:
REMARK  status: ('A' for Active; 'I' for Inactive)
REMARK    1  A    between atoms: C1_1  and  C2_2
REMARK    2  A    between atoms: C2_2  and  C25_33
REMARK    3  A    between atoms: C3_3  and  C4_4
REMARK    4  A    between atoms: C4_4  and  C5_5
REMARK    5  A    between atoms: C8_8  and  O5_26
REMARK    6  A    between atoms: C11_12  and  C14_19
REMARK    7  A    between atoms: C12_14  and  O3_18
REMARK    8  A    between atoms: C17_22  and  O4_25
REMARK    9  A    between atoms: C22_29  and  C23_31
REMARK   10  A    between atoms: C22_29  and  C24_32
REMARK                            x       y       z     vdW  Elec       q    Type
REMARK                         _______ _______ _______ _____ _____    ______ ____
ROOT
ATOM      6  C   UNL     1      49.979  17.985  19.597  0.00  0.00    -0.149 A 
ATOM      7  C   UNL     1      50.719  16.932  19.087  0.00  0.00    +0.225 A 
ATOM      8  C   UNL     1      50.160  16.073  18.126  0.00  0.00    -0.202 A 
ATOM      9  C   UNL     1      50.985  14.959  17.611  0.00  0.00    +0.057 C 
ATOM     10  C   UNL     1      52.072  14.616  18.300  0.00  0.00    -0.055 C 
ATOM     11  C   UNL     1      52.422  15.347  19.569  0.00  0.00    +0.149 C 
ATOM     12  C   UNL     1      51.735  14.662  20.752  0.00  0.00    +0.037 C 
ATOM     13  C   UNL     1      53.937  15.307  19.773  0.00  0.00    +0.086 C 
ATOM     14  C   UNL     1      48.858  16.276  17.676  0.00  0.00    +0.246 A 
ATOM     17  C   UNL     1      48.116  17.348  18.197  0.00  0.00    -0.306 A 
ATOM     18  C   UNL     1      46.744  17.596  17.738  0.00  0.00    +0.372 C 
ATOM     19  O   UNL     1      46.289  17.041  16.760  0.00  0.00    -0.418 OA
ATOM     20  C   UNL     1      45.922  18.575  18.560  0.00  0.00    +0.148 C 
ATOM     23  C   UNL     1      46.855  19.731  18.946  0.00  0.00    +0.251 C 
ATOM     32  O   UNL     1      47.960  19.219  19.691  0.00  0.00    -0.282 OA
ATOM     33  O   UNL     1      51.992  16.707  19.499  0.00  0.00    -0.290 OA
ATOM     34  C   UNL     1      48.679  18.198  19.170  0.00  0.00    +0.227 A 
ENDROOT
BRANCH  23  24
ATOM     24  C   UNL     1      46.099  20.728  19.788  0.00  0.00    -0.095 A 
ATOM     25  C   UNL     1      45.896  20.482  21.133  0.00  0.00    +0.056 A 
ATOM     26  C   UNL     1      45.204  21.394  21.906  0.00  0.00    -0.016 A 
ATOM     27  C   UNL     1      44.714  22.557  21.332  0.00  0.00    +0.117 A 
ATOM     30  C   UNL     1      44.919  22.802  19.982  0.00  0.00    -0.012 A 
ATOM     31  C   UNL     1      45.617  21.890  19.215  0.00  0.00    +0.064 A 
BRANCH  27  28
ATOM     28  O   UNL     1      44.031  23.456  22.090  0.00  0.00    -0.500 OA
ATOM     29  H   UNL     1      44.457  23.661  22.934  0.00  0.00    +0.394 HD
ENDBRANCH  27  28
ENDBRANCH  23  24
BRANCH  14  15
ATOM     15  O   UNL     1      48.314  15.450  16.750  0.00  0.00    -0.471 OA
ATOM     16  H   UNL     1      48.706  15.533  15.870  0.00  0.00    +0.400 HD
ENDBRANCH  14  15
BRANCH  20  21
ATOM     21  O   UNL     1      44.832  19.068  17.778  0.00  0.00    -0.532 OA
ATOM     22  H   UNL     1      44.337  18.378  17.316  0.00  0.00    +0.395 HD
ENDBRANCH  20  21
BRANCH   6   5
ATOM      5  C   UNL     1      50.588  18.899  20.629  0.00  0.00    +0.137 C 
BRANCH   5   4
ATOM      1  C   UNL     1      52.598  20.358  21.965  0.00  0.00    +0.074 C 
ATOM      2  C   UNL     1      52.159  20.767  20.583  0.00  0.00    -0.126 C 
ATOM      3  C   UNL     1      52.746  21.997  19.939  0.00  0.00    +0.070 C 
ATOM      4  C   UNL     1      51.267  20.054  19.940  0.00  0.00    -0.051 C 
ENDBRANCH   5   4
ENDBRANCH   6   5
TORSDOF 6
ENDMDL
MODEL 7
REMARK VINA RESULT:      -6.2      4.067      8.728
REMARK  Name = ZINC43079447
REMARK  10 active torsions:
REMARK  status: ('A' for Active; 'I' for Inactive)
REMARK    1  A    between atoms: C1_1  and  C2_2
REMARK    2  A    between atoms: C2_2  and  C25_33
REMARK    3  A    between atoms: C3_3  and  C4_4
REMARK    4  A    between atoms: C4_4  and  C5_5
REMARK    5  A    between atoms: C8_8  and  O5_26
REMARK    6  A    between atoms: C11_12  and  C14_19
REMARK    7  A    between atoms: C12_14  and  O3_18
REMARK    8  A    between atoms: C17_22  and  O4_25
REMARK    9  A    between atoms: C22_29  and  C23_31
REMARK   10  A    between atoms: C22_29  and  C24_32
REMARK                            x       y       z     vdW  Elec       q    Type
REMARK                         _______ _______ _______ _____ _____    ______ ____
ROOT
ATOM      6  C   UNL     1      49.762  16.639  18.399  0.00  0.00    -0.149 A 
ATOM      7  C   UNL     1      49.160  17.535  19.267  0.00  0.00    +0.225 A 
ATOM      8  C   UNL     1      47.802  17.397  19.600  0.00  0.00    -0.202 A 
ATOM      9  C   UNL     1      47.201  18.378  20.528  0.00  0.00    +0.057 C 
ATOM     10  C   UNL     1      47.855  19.518  20.743  0.00  0.00    -0.055 C 
ATOM     11  C   UNL     1      49.161  19.781  20.040  0.00  0.00    +0.149 C 
ATOM     12  C   UNL     1      48.883  20.460  18.697  0.00  0.00    +0.037 C 
ATOM     13  C   UNL     1      50.022  20.705  20.904  0.00  0.00    +0.086 C 
ATOM     14  C   UNL     1      47.051  16.355  19.062  0.00  0.00    +0.246 A 
ATOM     17  C   UNL     1      47.669  15.450  18.186  0.00  0.00    -0.306 A 
ATOM     18  C   UNL     1      46.909  14.335  17.609  0.00  0.00    +0.372 C 
ATOM     19  O   UNL     1      45.812  14.028  18.026  0.00  0.00    -0.418 OA
ATOM     20  C   UNL     1      47.563  13.595  16.453  0.00  0.00    +0.148 C 
ATOM     23  C   UNL     1      49.052  13.450  16.800  0.00  0.00    +0.251 C 
ATOM     32  O   UNL     1      49.624  14.744  16.984  0.00  0.00    -0.282 OA
ATOM     33  O   UNL     1      49.864  18.559  19.812  0.00  0.00    -0.290 OA
ATOM     34  C   UNL     1      49.028  15.602  17.846  0.00  0.00    +0.227 A 
ENDROOT
BRANCH  23  24
ATOM     24  C   UNL     1      49.764  12.741  15.675  0.00  0.00    -0.095 A 
ATOM     25  C   UNL     1      50.329  13.472  14.647  0.00  0.00    +0.056 A 
ATOM     26  C   UNL     1      50.981  12.825  13.616  0.00  0.00    -0.016 A 
ATOM     27  C   UNL     1      51.069  11.441  13.612  0.00  0.00    +0.117 A 
ATOM     30  C   UNL     1      50.502  10.710  14.645  0.00  0.00    -0.012 A 
ATOM     31  C   UNL     1      49.856  11.362  15.678  0.00  0.00    +0.064 A 
BRANCH  27  28
ATOM     28  O   UNL     1      51.710  10.802  12.598  0.00  0.00    -0.500 OA
ATOM     29  H   UNL     1      51.251  10.855  11.748  0.00  0.00    +0.394 HD
ENDBRANCH  27  28
ENDBRANCH  23  24
BRANCH  14  15
ATOM     15  O   UNL     1      45.741  16.218  19.380  0.00  0.00    -0.471 OA
ATOM     16  H   UNL     1      45.252  17.051  19.402  0.00  0.00    +0.400 HD
ENDBRANCH  14  15
BRANCH  20  21
ATOM     21  O   UNL     1      46.969  12.303  16.307  0.00  0.00    -0.532 OA
ATOM     22  H   UNL     1      47.603  11.574  16.340  0.00  0.00    +0.395 HD
ENDBRANCH  20  21
BRANCH   6   5
ATOM      5  C   UNL     1      51.218  16.799  18.047  0.00  0.00    +0.137 C 
BRANCH   5   4
ATOM      1  C   UNL     1      52.627  19.238  18.185  0.00  0.00    +0.074 C 
ATOM      2  C   UNL     1      51.952  18.826  16.902  0.00  0.00    -0.126 C 
ATOM      3  C   UNL     1      51.972  19.748  15.710  0.00  0.00    +0.070 C 
ATOM      4  C   UNL     1      51.348  17.665  16.822  0.00  0.00    -0.051 C 
ENDBRANCH   5   4
ENDBRANCH   6   5
TORSDOF 6
ENDMDL
MODEL 8
REMARK VINA RESULT:      -6.1      3.027      6.230
REMARK  Name = ZINC43079447
REMARK  10 active torsions:
REMARK  status: ('A' for Active; 'I' for Inactive)
REMARK    1  A    between atoms: C1_1  and  C2_2
REMARK    2  A    between atoms: C2_2  and  C25_33
REMARK    3  A    between atoms: C3_3  and  C4_4
REMARK    4  A    between atoms: C4_4  and  C5_5
REMARK    5  A    between atoms: C8_8  and  O5_26
REMARK    6  A    between atoms: C11_12  and  C14_19
REMARK    7  A    between atoms: C12_14  and  O3_18
REMARK    8  A    between atoms: C17_22  and  O4_25
REMARK    9  A    between atoms: C22_29  and  C23_31
REMARK   10  A    between atoms: C22_29  and  C24_32
REMARK                            x       y       z     vdW  Elec       q    Type
REMARK                         _______ _______ _______ _____ _____    ______ ____
ROOT
ATOM      6  C   UNL     1      51.551  17.036  19.038  0.00  0.00    -0.149 A 
ATOM      7  C   UNL     1      52.480  16.013  19.130  0.00  0.00    +0.225 A 
ATOM      8  C   UNL     1      52.060  14.673  19.148  0.00  0.00    -0.202 A 
ATOM      9  C   UNL     1      53.086  13.614  19.251  0.00  0.00    +0.057 C 
ATOM     10  C   UNL     1      54.308  13.964  19.651  0.00  0.00    -0.055 C 
ATOM     11  C   UNL     1      54.605  15.399  19.995  0.00  0.00    +0.149 C 
ATOM     12  C   UNL     1      54.301  15.636  21.475  0.00  0.00    +0.037 C 
ATOM     13  C   UNL     1      56.085  15.684  19.732  0.00  0.00    +0.086 C 
ATOM     14  C   UNL     1      50.705  14.362  19.070  0.00  0.00    +0.246 A 
ATOM     17  C   UNL     1      49.770  15.404  18.974  0.00  0.00    -0.306 A 
ATOM     18  C   UNL     1      48.335  15.111  18.881  0.00  0.00    +0.372 C 
ATOM     19  O   UNL     1      47.926  13.989  18.663  0.00  0.00    -0.418 OA
ATOM     20  C   UNL     1      47.389  16.283  19.083  0.00  0.00    +0.148 C 
ATOM     23  C   UNL     1      48.006  17.487  18.357  0.00  0.00    +0.251 C 
ATOM     32  O   UNL     1      49.298  17.756  18.899  0.00  0.00    -0.282 OA
ATOM     33  O   UNL     1      53.808  16.281  19.203  0.00  0.00    -0.290 OA
ATOM     34  C   UNL     1      50.197  16.747  18.969  0.00  0.00    +0.227 A 
ENDROOT
BRANCH  23  24
ATOM     24  C   UNL     1      47.121  18.694  18.543  0.00  0.00    -0.095 A 
ATOM     25  C   UNL     1      47.636  19.847  19.108  0.00  0.00    +0.056 A 
ATOM     26  C   UNL     1      46.827  20.953  19.279  0.00  0.00    -0.016 A 
ATOM     27  C   UNL     1      45.498  20.908  18.883  0.00  0.00    +0.117 A 
ATOM     30  C   UNL     1      44.985  19.751  18.316  0.00  0.00    -0.012 A 
ATOM     31  C   UNL     1      45.799  18.649  18.142  0.00  0.00    +0.064 A 
BRANCH  27  28
ATOM     28  O   UNL     1      44.700  21.995  19.051  0.00  0.00    -0.500 OA
ATOM     29  H   UNL     1      44.999  22.780  18.571  0.00  0.00    +0.394 HD
ENDBRANCH  27  28
ENDBRANCH  23  24
BRANCH  14  15
ATOM     15  O   UNL     1      50.294  13.070  19.087  0.00  0.00    -0.471 OA
ATOM     16  H   UNL     1      50.146  12.717  19.975  0.00  0.00    +0.400 HD
ENDBRANCH  14  15
BRANCH  20  21
ATOM     21  O   UNL     1      46.111  15.977  18.521  0.00  0.00    -0.532 OA
ATOM     22  H   UNL     1      45.708  16.713  18.040  0.00  0.00    +0.395 HD
ENDBRANCH  20  21
BRANCH   6   5
ATOM      5  C   UNL     1      52.013  18.470  19.022  0.00  0.00    +0.137 C 
BRANCH   5   4
ATOM      1  C   UNL     1      51.042  20.987  18.200  0.00  0.00    +0.074 C 
ATOM      2  C   UNL     1      51.695  20.067  17.202  0.00  0.00    -0.126 C 
ATOM      3  C   UNL     1      51.771  20.461  15.749  0.00  0.00    +0.070 C 
ATOM      4  C   UNL     1      52.198  18.923  17.597  0.00  0.00    -0.051 C 
ENDBRANCH   5   4
ENDBRANCH   6   5
TORSDOF 6
ENDMDL
MODEL 9
REMARK VINA RESULT:      -6.1      3.742      8.739
REMARK  Name = ZINC43079447
REMARK  10 active torsions:
REMARK  status: ('A' for Active; 'I' for Inactive)
REMARK    1  A    between atoms: C1_1  and  C2_2
REMARK    2  A    between atoms: C2_2  and  C25_33
REMARK    3  A    between atoms: C3_3  and  C4_4
REMARK    4  A    between atoms: C4_4  and  C5_5
REMARK    5  A    between atoms: C8_8  and  O5_26
REMARK    6  A    between atoms: C11_12  and  C14_19
REMARK    7  A    between atoms: C12_14  and  O3_18
REMARK    8  A    between atoms: C17_22  and  O4_25
REMARK    9  A    between atoms: C22_29  and  C23_31
REMARK   10  A    between atoms: C22_29  and  C24_32
REMARK                            x       y       z     vdW  Elec       q    Type
REMARK                         _______ _______ _______ _____ _____    ______ ____
ROOT
ATOM      6  C   UNL     1      47.863  17.025  18.147  0.00  0.00    -0.149 A 
ATOM      7  C   UNL     1      47.020  17.612  19.075  0.00  0.00    +0.225 A 
ATOM      8  C   UNL     1      45.983  16.869  19.662  0.00  0.00    -0.202 A 
ATOM      9  C   UNL     1      45.105  17.538  20.645  0.00  0.00    +0.057 C 
ATOM     10  C   UNL     1      45.114  18.870  20.687  0.00  0.00    -0.055 C 
ATOM     11  C   UNL     1      45.992  19.647  19.742  0.00  0.00    +0.149 C 
ATOM     12  C   UNL     1      45.221  19.921  18.449  0.00  0.00    +0.037 C 
ATOM     13  C   UNL     1      46.378  20.977  20.392  0.00  0.00    +0.086 C 
ATOM     14  C   UNL     1      45.796  15.533  19.317  0.00  0.00    +0.246 A 
ATOM     17  C   UNL     1      46.656  14.944  18.377  0.00  0.00    -0.306 A 
ATOM     18  C   UNL     1      46.493  13.536  17.998  0.00  0.00    +0.372 C 
ATOM     19  O   UNL     1      45.774  12.786  18.626  0.00  0.00    -0.418 OA
ATOM     20  C   UNL     1      47.261  13.070  16.772  0.00  0.00    +0.148 C 
ATOM     23  C   UNL     1      48.650  13.723  16.840  0.00  0.00    +0.251 C 
ATOM     32  O   UNL     1      48.506  15.142  16.861  0.00  0.00    -0.282 OA
ATOM     33  O   UNL     1      47.176  18.911  19.437  0.00  0.00    -0.290 OA
ATOM     34  C   UNL     1      47.687  15.699  17.784  0.00  0.00    +0.227 A 
ENDROOT
BRANCH  23  24
ATOM     24  C   UNL     1      49.455  13.317  15.631  0.00  0.00    -0.095 A 
ATOM     25  C   UNL     1      50.835  13.268  15.706  0.00  0.00    +0.056 A 
ATOM     26  C   UNL     1      51.574  12.896  14.600  0.00  0.00    -0.016 A 
ATOM     27  C   UNL     1      50.932  12.571  13.415  0.00  0.00    +0.117 A 
ATOM     30  C   UNL     1      49.548  12.621  13.342  0.00  0.00    -0.012 A 
ATOM     31  C   UNL     1      48.812  12.987  14.452  0.00  0.00    +0.064 A 
BRANCH  27  28
ATOM     28  O   UNL     1      51.658  12.206  12.324  0.00  0.00    -0.500 OA
ATOM     29  H   UNL     1      51.861  11.261  12.286  0.00  0.00    +0.394 HD
ENDBRANCH  27  28
ENDBRANCH  23  24
BRANCH  14  15
ATOM     15  O   UNL     1      44.796  14.811  19.880  0.00  0.00    -0.471 OA
ATOM     16  H   UNL     1      44.540  15.115  20.761  0.00  0.00    +0.400 HD
ENDBRANCH  14  15
BRANCH  20  21
ATOM     21  O   UNL     1      47.390  11.647  16.792  0.00  0.00    -0.532 OA
ATOM     22  H   UNL     1      47.406  11.242  15.915  0.00  0.00    +0.395 HD
ENDBRANCH  20  21
BRANCH   6   5
ATOM      5  C   UNL     1      48.971  17.832  17.522  0.00  0.00    +0.137 C 
BRANCH   5   4
ATOM      1  C   UNL     1      51.484  18.548  16.461  0.00  0.00    +0.074 C 
ATOM      2  C   UNL     1      51.382  18.013  17.866  0.00  0.00    -0.126 C 
ATOM      3  C   UNL     1      52.630  17.796  18.683  0.00  0.00    +0.070 C 
ATOM      4  C   UNL     1      50.207  17.736  18.378  0.00  0.00    -0.051 C 
ENDBRANCH   5   4
ENDBRANCH   6   5
TORSDOF 6
ENDMDL
