MODEL 1
REMARK VINA RESULT:      -5.1      0.000      0.000
REMARK  Name = ZINC95486018
REMARK  16 active torsions:
REMARK  status: ('A' for Active; 'I' for Inactive)
REMARK    1  A    between atoms: C1_1  and  C2_2
REMARK    2  A    between atoms: C4_4  and  O5_35
REMARK    3  A    between atoms: C7_7  and  C8_8
REMARK    4  A    between atoms: C9_9  and  O2_25
REMARK    5  A    between atoms: C11_11  and  O1_23
REMARK    6  A    between atoms: C15_15  and  C20_22
REMARK    7  A    between atoms: N1_17  and  C19_21
REMARK    8  A    between atoms: C16_18  and  C17_19
REMARK    9  A    between atoms: C16_18  and  C18_20
REMARK   10  A    between atoms: O1_23  and  C21_24
REMARK   11  A    between atoms: O2_25  and  C22_26
REMARK   12  A    between atoms: C24_28  and  O4_33
REMARK   13  A    between atoms: C26_30  and  O3_31
REMARK   14  A    between atoms: O3_31  and  C27_32
REMARK   15  A    between atoms: O4_33  and  C28_34
REMARK   16  A    between atoms: O5_35  and  C29_36
REMARK                            x       y       z     vdW  Elec       q    Type
REMARK                         _______ _______ _______ _____ _____    ______ ____
ROOT
ATOM     18  C   UNL     1      48.645  16.284  18.811  0.00  0.00    -0.104 A 
ATOM     19  C   UNL     1      47.886  16.286  19.987  0.00  0.00    +0.182 A 
ATOM     22  C   UNL     1      47.971  17.361  20.853  0.00  0.00    -0.167 A 
ATOM     23  C   UNL     1      48.803  18.427  20.552  0.00  0.00    +0.177 A 
ATOM     26  C   UNL     1      49.561  18.428  19.382  0.00  0.00    -0.133 A 
ATOM     27  C   UNL     1      50.444  19.616  19.103  0.00  0.00    +0.163 C 
ATOM     28  C   UNL     1      51.146  20.037  20.396  0.00  0.00    +0.055 C 
ATOM     29  C   UNL     1      49.585  20.777  18.595  0.00  0.00    +0.007 C 
ATOM     30  N   UNL     1      51.464  19.273  18.103  0.00  0.00    -0.517 NA
ATOM     31  C   UNL     1      52.276  20.447  17.757  0.00  0.00    +0.187 C 
ATOM     32  C   UNL     1      50.822  18.704  16.907  0.00  0.00    +0.123 C 
ATOM     33  C   UNL     1      51.838  18.609  15.768  0.00  0.00    +0.036 C 
ATOM     34  C   UNL     1      50.303  17.308  17.252  0.00  0.00    +0.105 C 
ATOM     35  C   UNL     1      49.490  17.359  18.519  0.00  0.00    +0.024 A 
ENDROOT
BRANCH  18  17
ATOM      1  C   UNL     1      46.589  16.239  16.802  0.00  0.00    +0.094 C 
ATOM      2  C   UNL     1      47.573  15.102  16.907  0.00  0.00    +0.004 A 
ATOM      3  C   UNL     1      47.485  14.034  16.024  0.00  0.00    -0.115 A 
ATOM      4  C   UNL     1      48.369  12.980  16.096  0.00  0.00    +0.181 A 
ATOM      7  C   UNL     1      49.382  12.979  17.077  0.00  0.00    -0.128 A 
ATOM      8  C   UNL     1      49.478  14.065  17.979  0.00  0.00    +0.077 A 
ATOM      9  C   UNL     1      50.485  14.065  18.955  0.00  0.00    -0.063 A 
ATOM     10  C   UNL     1      51.367  13.010  19.024  0.00  0.00    +0.182 A 
ATOM     13  C   UNL     1      51.272  11.941  18.132  0.00  0.00    -0.182 A 
ATOM     14  C   UNL     1      50.300  11.915  17.172  0.00  0.00    +0.208 A 
ATOM     17  C   UNL     1      48.558  15.137  17.879  0.00  0.00    -0.078 A 
BRANCH   4   5
ATOM      5  O   UNL     1      48.267  11.945  15.224  0.00  0.00    -0.292 OA
ATOM      6  C   UNL     1      46.963  11.401  15.013  0.00  0.00    +0.237 C 
ENDBRANCH   4   5
BRANCH  10  11
ATOM     11  O   UNL     1      52.343  13.011  19.970  0.00  0.00    -0.312 OA
ATOM     12  C   UNL     1      53.695  13.016  19.506  0.00  0.00    +0.238 C 
ENDBRANCH  10  11
BRANCH  14  15
ATOM     15  O   UNL     1      50.219  10.867  16.312  0.00  0.00    -0.287 OA
ATOM     16  C   UNL     1      51.450  10.353  15.800  0.00  0.00    +0.238 C 
ENDBRANCH  14  15
ENDBRANCH  18  17
BRANCH  19  20
ATOM     20  O   UNL     1      47.069  15.240  20.274  0.00  0.00    -0.301 OA
ATOM     21  C   UNL     1      45.667  15.507  20.329  0.00  0.00    +0.234 C 
ENDBRANCH  19  20
BRANCH  23  24
ATOM     24  O   UNL     1      48.882  19.481  21.405  0.00  0.00    -0.300 OA
ATOM     25  C   UNL     1      47.651  20.091  21.798  0.00  0.00    +0.228 C 
ENDBRANCH  23  24
TORSDOF 6
ENDMDL
MODEL 2
REMARK VINA RESULT:      -5.0      2.591      7.405
REMARK  Name = ZINC95486018
REMARK  16 active torsions:
REMARK  status: ('A' for Active; 'I' for Inactive)
REMARK    1  A    between atoms: C1_1  and  C2_2
REMARK    2  A    between atoms: C4_4  and  O5_35
REMARK    3  A    between atoms: C7_7  and  C8_8
REMARK    4  A    between atoms: C9_9  and  O2_25
REMARK    5  A    between atoms: C11_11  and  O1_23
REMARK    6  A    between atoms: C15_15  and  C20_22
REMARK    7  A    between atoms: N1_17  and  C19_21
REMARK    8  A    between atoms: C16_18  and  C17_19
REMARK    9  A    between atoms: C16_18  and  C18_20
REMARK   10  A    between atoms: O1_23  and  C21_24
REMARK   11  A    between atoms: O2_25  and  C22_26
REMARK   12  A    between atoms: C24_28  and  O4_33
REMARK   13  A    between atoms: C26_30  and  O3_31
REMARK   14  A    between atoms: O3_31  and  C27_32
REMARK   15  A    between atoms: O4_33  and  C28_34
REMARK   16  A    between atoms: O5_35  and  C29_36
REMARK                            x       y       z     vdW  Elec       q    Type
REMARK                         _______ _______ _______ _____ _____    ______ ____
ROOT
ATOM     18  C   UNL     1      48.911  16.627  18.275  0.00  0.00    -0.104 A 
ATOM     19  C   UNL     1      49.927  16.722  17.317  0.00  0.00    +0.182 A 
ATOM     22  C   UNL     1      50.792  15.659  17.130  0.00  0.00    -0.167 A 
ATOM     23  C   UNL     1      50.647  14.509  17.889  0.00  0.00    +0.177 A 
ATOM     26  C   UNL     1      49.636  14.411  18.843  0.00  0.00    -0.133 A 
ATOM     27  C   UNL     1      49.522  13.134  19.635  0.00  0.00    +0.163 C 
ATOM     28  C   UNL     1      50.921  12.665  20.041  0.00  0.00    +0.055 C 
ATOM     29  C   UNL     1      48.862  12.059  18.767  0.00  0.00    +0.007 C 
ATOM     30  N   UNL     1      48.727  13.354  20.850  0.00  0.00    -0.517 NA
ATOM     31  C   UNL     1      48.534  12.097  21.586  0.00  0.00    +0.187 C 
ATOM     32  C   UNL     1      47.435  13.965  20.501  0.00  0.00    +0.123 C 
ATOM     33  C   UNL     1      46.502  13.936  21.713  0.00  0.00    +0.036 C 
ATOM     34  C   UNL     1      47.681  15.412  20.076  0.00  0.00    +0.105 C 
ATOM     35  C   UNL     1      48.777  15.467  19.043  0.00  0.00    +0.024 A 
ENDROOT
BRANCH  18  17
ATOM      1  C   UNL     1      46.426  16.703  16.833  0.00  0.00    +0.094 C 
ATOM      2  C   UNL     1      46.782  17.811  17.792  0.00  0.00    +0.004 A 
ATOM      3  C   UNL     1      45.899  18.867  17.979  0.00  0.00    -0.115 A 
ATOM      4  C   UNL     1      46.197  19.893  18.848  0.00  0.00    +0.181 A 
ATOM      7  C   UNL     1      47.413  19.878  19.562  0.00  0.00    -0.128 A 
ATOM      8  C   UNL     1      48.316  18.805  19.376  0.00  0.00    +0.077 A 
ATOM      9  C   UNL     1      49.525  18.789  20.085  0.00  0.00    -0.063 A 
ATOM     10  C   UNL     1      49.820  19.817  20.953  0.00  0.00    +0.182 A 
ATOM     13  C   UNL     1      48.926  20.874  21.136  0.00  0.00    -0.182 A 
ATOM     14  C   UNL     1      47.742  20.915  20.457  0.00  0.00    +0.208 A 
ATOM     17  C   UNL     1      47.981  17.761  18.480  0.00  0.00    -0.078 A 
BRANCH   4   5
ATOM      5  O   UNL     1      45.322  20.917  19.018  0.00  0.00    -0.292 OA
ATOM      6  C   UNL     1      43.936  20.579  19.103  0.00  0.00    +0.237 C 
ENDBRANCH   4   5
BRANCH  10  11
ATOM     11  O   UNL     1      50.992  19.801  21.641  0.00  0.00    -0.312 OA
ATOM     12  C   UNL     1      51.952  18.812  21.262  0.00  0.00    +0.238 C 
ENDBRANCH  10  11
BRANCH  14  15
ATOM     15  O   UNL     1      46.884  21.951  20.645  0.00  0.00    -0.287 OA
ATOM     16  C   UNL     1      46.966  22.642  21.893  0.00  0.00    +0.238 C 
ENDBRANCH  14  15
ENDBRANCH  18  17
BRANCH  19  20
ATOM     20  O   UNL     1      50.061  17.852  16.575  0.00  0.00    -0.301 OA
ATOM     21  C   UNL     1      51.352  18.464  16.553  0.00  0.00    +0.234 C 
ENDBRANCH  19  20
BRANCH  23  24
ATOM     24  O   UNL     1      51.498  13.467  17.700  0.00  0.00    -0.300 OA
ATOM     25  C   UNL     1      51.569  12.918  16.383  0.00  0.00    +0.228 C 
ENDBRANCH  23  24
TORSDOF 6
ENDMDL
MODEL 3
REMARK VINA RESULT:      -4.9      1.449      3.403
REMARK  Name = ZINC95486018
REMARK  16 active torsions:
REMARK  status: ('A' for Active; 'I' for Inactive)
REMARK    1  A    between atoms: C1_1  and  C2_2
REMARK    2  A    between atoms: C4_4  and  O5_35
REMARK    3  A    between atoms: C7_7  and  C8_8
REMARK    4  A    between atoms: C9_9  and  O2_25
REMARK    5  A    between atoms: C11_11  and  O1_23
REMARK    6  A    between atoms: C15_15  and  C20_22
REMARK    7  A    between atoms: N1_17  and  C19_21
REMARK    8  A    between atoms: C16_18  and  C17_19
REMARK    9  A    between atoms: C16_18  and  C18_20
REMARK   10  A    between atoms: O1_23  and  C21_24
REMARK   11  A    between atoms: O2_25  and  C22_26
REMARK   12  A    between atoms: C24_28  and  O4_33
REMARK   13  A    between atoms: C26_30  and  O3_31
REMARK   14  A    between atoms: O3_31  and  C27_32
REMARK   15  A    between atoms: O4_33  and  C28_34
REMARK   16  A    between atoms: O5_35  and  C29_36
REMARK                            x       y       z     vdW  Elec       q    Type
REMARK                         _______ _______ _______ _____ _____    ______ ____
ROOT
ATOM     18  C   UNL     1      50.640  16.173  19.352  0.00  0.00    -0.104 A 
ATOM     19  C   UNL     1      50.239  16.084  20.689  0.00  0.00    +0.182 A 
ATOM     22  C   UNL     1      50.134  17.234  21.450  0.00  0.00    -0.167 A 
ATOM     23  C   UNL     1      50.424  18.465  20.884  0.00  0.00    +0.177 A 
ATOM     26  C   UNL     1      50.824  18.558  19.553  0.00  0.00    -0.133 A 
ATOM     27  C   UNL     1      51.121  19.924  18.990  0.00  0.00    +0.163 C 
ATOM     28  C   UNL     1      51.912  20.733  20.019  0.00  0.00    +0.055 C 
ATOM     29  C   UNL     1      49.804  20.642  18.686  0.00  0.00    +0.007 C 
ATOM     30  N   UNL     1      51.923  19.808  17.764  0.00  0.00    -0.517 NA
ATOM     31  C   UNL     1      52.145  21.127  17.156  0.00  0.00    +0.187 C 
ATOM     32  C   UNL     1      51.263  18.895  16.817  0.00  0.00    +0.123 C 
ATOM     33  C   UNL     1      51.939  18.991  15.448  0.00  0.00    +0.036 C 
ATOM     34  C   UNL     1      51.386  17.469  17.353  0.00  0.00    +0.105 C 
ATOM     35  C   UNL     1      50.941  17.418  18.791  0.00  0.00    +0.024 A 
ENDROOT
BRANCH  18  17
ATOM      1  C   UNL     1      53.061  14.625  19.441  0.00  0.00    +0.094 C 
ATOM      2  C   UNL     1      51.913  14.191  18.564  0.00  0.00    +0.004 A 
ATOM      3  C   UNL     1      52.029  13.036  17.802  0.00  0.00    -0.115 A 
ATOM      4  C   UNL     1      50.999  12.615  16.991  0.00  0.00    +0.181 A 
ATOM      7  C   UNL     1      49.805  13.363  16.929  0.00  0.00    -0.128 A 
ATOM      8  C   UNL     1      49.680  14.540  17.702  0.00  0.00    +0.077 A 
ATOM      9  C   UNL     1      48.493  15.285  17.641  0.00  0.00    -0.063 A 
ATOM     10  C   UNL     1      47.465  14.861  16.829  0.00  0.00    +0.182 A 
ATOM     13  C   UNL     1      47.590  13.697  16.067  0.00  0.00    -0.182 A 
ATOM     14  C   UNL     1      48.736  12.955  16.108  0.00  0.00    +0.208 A 
ATOM     17  C   UNL     1      50.754  14.946  18.531  0.00  0.00    -0.078 A 
BRANCH   4   5
ATOM      5  O   UNL     1      51.131  11.483  16.254  0.00  0.00    -0.292 OA
ATOM      6  C   UNL     1      52.368  11.300  15.562  0.00  0.00    +0.237 C 
ENDBRANCH   4   5
BRANCH  10  11
ATOM     11  O   UNL     1      46.314  15.582  16.770  0.00  0.00    -0.312 OA
ATOM     12  C   UNL     1      46.232  16.741  17.603  0.00  0.00    +0.238 C 
ENDBRANCH  10  11
BRANCH  14  15
ATOM     15  O   UNL     1      48.842  11.826  15.360  0.00  0.00    -0.287 OA
ATOM     16  C   UNL     1      47.632  11.125  15.068  0.00  0.00    +0.238 C 
ENDBRANCH  14  15
ENDBRANCH  18  17
BRANCH  19  20
ATOM     20  O   UNL     1      49.953  14.874  21.236  0.00  0.00    -0.301 OA
ATOM     21  C   UNL     1      48.582  14.604  21.533  0.00  0.00    +0.234 C 
ENDBRANCH  19  20
BRANCH  23  24
ATOM     24  O   UNL     1      50.318  19.593  21.636  0.00  0.00    -0.300 OA
ATOM     25  C   UNL     1      49.084  19.798  22.327  0.00  0.00    +0.228 C 
ENDBRANCH  23  24
TORSDOF 6
ENDMDL
MODEL 4
REMARK VINA RESULT:      -4.9      2.673      6.865
REMARK  Name = ZINC95486018
REMARK  16 active torsions:
REMARK  status: ('A' for Active; 'I' for Inactive)
REMARK    1  A    between atoms: C1_1  and  C2_2
REMARK    2  A    between atoms: C4_4  and  O5_35
REMARK    3  A    between atoms: C7_7  and  C8_8
REMARK    4  A    between atoms: C9_9  and  O2_25
REMARK    5  A    between atoms: C11_11  and  O1_23
REMARK    6  A    between atoms: C15_15  and  C20_22
REMARK    7  A    between atoms: N1_17  and  C19_21
REMARK    8  A    between atoms: C16_18  and  C17_19
REMARK    9  A    between atoms: C16_18  and  C18_20
REMARK   10  A    between atoms: O1_23  and  C21_24
REMARK   11  A    between atoms: O2_25  and  C22_26
REMARK   12  A    between atoms: C24_28  and  O4_33
REMARK   13  A    between atoms: C26_30  and  O3_31
REMARK   14  A    between atoms: O3_31  and  C27_32
REMARK   15  A    between atoms: O4_33  and  C28_34
REMARK   16  A    between atoms: O5_35  and  C29_36
REMARK                            x       y       z     vdW  Elec       q    Type
REMARK                         _______ _______ _______ _____ _____    ______ ____
ROOT
ATOM     18  C   UNL     1      49.831  15.054  18.408  0.00  0.00    -0.104 A 
ATOM     19  C   UNL     1      50.876  15.174  19.331  0.00  0.00    +0.182 A 
ATOM     22  C   UNL     1      51.931  14.281  19.289  0.00  0.00    -0.167 A 
ATOM     23  C   UNL     1      51.948  13.276  18.336  0.00  0.00    +0.177 A 
ATOM     26  C   UNL     1      50.909  13.153  17.415  0.00  0.00    -0.133 A 
ATOM     27  C   UNL     1      50.984  12.045  16.397  0.00  0.00    +0.163 C 
ATOM     28  C   UNL     1      51.474  10.766  17.078  0.00  0.00    +0.055 C 
ATOM     29  C   UNL     1      51.969  12.438  15.293  0.00  0.00    +0.007 C 
ATOM     30  N   UNL     1      49.657  11.792  15.817  0.00  0.00    -0.517 NA
ATOM     31  C   UNL     1      49.732  10.775  14.760  0.00  0.00    +0.187 C 
ATOM     32  C   UNL     1      49.088  13.047  15.302  0.00  0.00    +0.123 C 
ATOM     33  C   UNL     1      47.849  12.746  14.457  0.00  0.00    +0.036 C 
ATOM     34  C   UNL     1      48.697  13.926  16.491  0.00  0.00    +0.105 C 
ATOM     35  C   UNL     1      49.851  14.032  17.454  0.00  0.00    +0.024 A 
ENDROOT
BRANCH  18  17
ATOM      1  C   UNL     1      49.956  17.470  16.855  0.00  0.00    +0.094 C 
ATOM      2  C   UNL     1      48.746  17.174  17.704  0.00  0.00    +0.004 A 
ATOM      3  C   UNL     1      47.687  18.074  17.728  0.00  0.00    -0.115 A 
ATOM      4  C   UNL     1      46.569  17.831  18.494  0.00  0.00    +0.181 A 
ATOM      7  C   UNL     1      46.490  16.655  19.268  0.00  0.00    -0.128 A 
ATOM      8  C   UNL     1      47.563  15.734  19.247  0.00  0.00    +0.077 A 
ATOM      9  C   UNL     1      47.485  14.565  20.016  0.00  0.00    -0.063 A 
ATOM     10  C   UNL     1      46.365  14.326  20.781  0.00  0.00    +0.182 A 
ATOM     13  C   UNL     1      45.305  15.235  20.798  0.00  0.00    -0.182 A 
ATOM     14  C   UNL     1      45.357  16.383  20.060  0.00  0.00    +0.208 A 
ATOM     17  C   UNL     1      48.699  16.007  18.446  0.00  0.00    -0.078 A 
BRANCH   4   5
ATOM      5  O   UNL     1      45.545  18.722  18.505  0.00  0.00    -0.292 OA
ATOM      6  C   UNL     1      45.888  20.103  18.635  0.00  0.00    +0.237 C 
ENDBRANCH   4   5
BRANCH  10  11
ATOM     11  O   UNL     1      46.289  13.191  21.525  0.00  0.00    -0.312 OA
ATOM     12  C   UNL     1      45.250  13.127  22.505  0.00  0.00    +0.238 C 
ENDBRANCH  10  11
BRANCH  14  15
ATOM     15  O   UNL     1      44.318  17.258  20.088  0.00  0.00    -0.287 OA
ATOM     16  C   UNL     1      43.848  17.665  21.375  0.00  0.00    +0.238 C 
ENDBRANCH  14  15
ENDBRANCH  18  17
BRANCH  19  20
ATOM     20  O   UNL     1      50.854  16.164  20.261  0.00  0.00    -0.301 OA
ATOM     21  C   UNL     1      51.865  17.168  20.164  0.00  0.00    +0.234 C 
ENDBRANCH  19  20
BRANCH  23  24
ATOM     24  O   UNL     1      52.987  12.402  18.298  0.00  0.00    -0.300 OA
ATOM     25  C   UNL     1      53.979  12.529  19.319  0.00  0.00    +0.228 C 
ENDBRANCH  23  24
TORSDOF 6
ENDMDL
MODEL 5
REMARK VINA RESULT:      -4.9      3.799      7.155
REMARK  Name = ZINC95486018
REMARK  16 active torsions:
REMARK  status: ('A' for Active; 'I' for Inactive)
REMARK    1  A    between atoms: C1_1  and  C2_2
REMARK    2  A    between atoms: C4_4  and  O5_35
REMARK    3  A    between atoms: C7_7  and  C8_8
REMARK    4  A    between atoms: C9_9  and  O2_25
REMARK    5  A    between atoms: C11_11  and  O1_23
REMARK    6  A    between atoms: C15_15  and  C20_22
REMARK    7  A    between atoms: N1_17  and  C19_21
REMARK    8  A    between atoms: C16_18  and  C17_19
REMARK    9  A    between atoms: C16_18  and  C18_20
REMARK   10  A    between atoms: O1_23  and  C21_24
REMARK   11  A    between atoms: O2_25  and  C22_26
REMARK   12  A    between atoms: C24_28  and  O4_33
REMARK   13  A    between atoms: C26_30  and  O3_31
REMARK   14  A    between atoms: O3_31  and  C27_32
REMARK   15  A    between atoms: O4_33  and  C28_34
REMARK   16  A    between atoms: O5_35  and  C29_36
REMARK                            x       y       z     vdW  Elec       q    Type
REMARK                         _______ _______ _______ _____ _____    ______ ____
ROOT
ATOM     18  C   UNL     1      48.740  18.985  20.715  0.00  0.00    -0.104 A 
ATOM     19  C   UNL     1      49.276  20.046  21.453  0.00  0.00    +0.182 A 
ATOM     22  C   UNL     1      50.508  20.567  21.103  0.00  0.00    -0.167 A 
ATOM     23  C   UNL     1      51.202  20.039  20.027  0.00  0.00    +0.177 A 
ATOM     26  C   UNL     1      50.671  18.983  19.289  0.00  0.00    -0.133 A 
ATOM     27  C   UNL     1      51.467  18.453  18.125  0.00  0.00    +0.163 C 
ATOM     28  C   UNL     1      52.942  18.363  18.521  0.00  0.00    +0.055 C 
ATOM     29  C   UNL     1      51.322  19.408  16.937  0.00  0.00    +0.007 C 
ATOM     30  N   UNL     1      50.996  17.113  17.750  0.00  0.00    -0.517 NA
ATOM     31  C   UNL     1      51.704  16.621  16.561  0.00  0.00    +0.187 C 
ATOM     32  C   UNL     1      49.542  17.137  17.526  0.00  0.00    +0.123 C 
ATOM     33  C   UNL     1      49.096  15.828  16.871  0.00  0.00    +0.036 C 
ATOM     34  C   UNL     1      48.845  17.298  18.878  0.00  0.00    +0.105 C 
ATOM     35  C   UNL     1      49.450  18.451  19.635  0.00  0.00    +0.024 A 
ENDROOT
BRANCH  18  17
ATOM      1  C   UNL     1      48.610  16.614  22.335  0.00  0.00    +0.094 C 
ATOM      2  C   UNL     1      47.343  17.281  21.861  0.00  0.00    +0.004 A 
ATOM      3  C   UNL     1      46.111  16.747  22.217  0.00  0.00    -0.115 A 
ATOM      4  C   UNL     1      44.938  17.333  21.799  0.00  0.00    +0.181 A 
ATOM      7  C   UNL     1      44.979  18.493  20.999  0.00  0.00    -0.128 A 
ATOM      8  C   UNL     1      46.230  19.044  20.634  0.00  0.00    +0.077 A 
ATOM      9  C   UNL     1      46.272  20.197  19.839  0.00  0.00    -0.063 A 
ATOM     10  C   UNL     1      45.096  20.781  19.423  0.00  0.00    +0.182 A 
ATOM     13  C   UNL     1      43.862  20.238  19.785  0.00  0.00    -0.182 A 
ATOM     14  C   UNL     1      43.793  19.114  20.558  0.00  0.00    +0.208 A 
ATOM     17  C   UNL     1      47.421  18.422  21.082  0.00  0.00    -0.078 A 
BRANCH   4   5
ATOM      5  O   UNL     1      43.743  16.796  22.156  0.00  0.00    -0.292 OA
ATOM      6  C   UNL     1      43.733  15.410  22.504  0.00  0.00    +0.237 C 
ENDBRANCH   4   5
BRANCH  10  11
ATOM     11  O   UNL     1      45.137  21.900  18.653  0.00  0.00    -0.312 OA
ATOM     12  C   UNL     1      44.539  23.081  19.192  0.00  0.00    +0.238 C 
ENDBRANCH  10  11
BRANCH  14  15
ATOM     15  O   UNL     1      42.585  18.597  20.902  0.00  0.00    -0.287 OA
ATOM     16  C   UNL     1      41.432  19.379  20.587  0.00  0.00    +0.238 C 
ENDBRANCH  14  15
ENDBRANCH  18  17
BRANCH  19  20
ATOM     20  O   UNL     1      48.589  20.561  22.505  0.00  0.00    -0.301 OA
ATOM     21  C   UNL     1      48.221  21.939  22.429  0.00  0.00    +0.234 C 
ENDBRANCH  19  20
BRANCH  23  24
ATOM     24  O   UNL     1      52.412  20.557  19.686  0.00  0.00    -0.300 OA
ATOM     25  C   UNL     1      52.697  21.885  20.130  0.00  0.00    +0.228 C 
ENDBRANCH  23  24
TORSDOF 6
ENDMDL
MODEL 6
REMARK VINA RESULT:      -4.7      2.298      5.191
REMARK  Name = ZINC95486018
REMARK  16 active torsions:
REMARK  status: ('A' for Active; 'I' for Inactive)
REMARK    1  A    between atoms: C1_1  and  C2_2
REMARK    2  A    between atoms: C4_4  and  O5_35
REMARK    3  A    between atoms: C7_7  and  C8_8
REMARK    4  A    between atoms: C9_9  and  O2_25
REMARK    5  A    between atoms: C11_11  and  O1_23
REMARK    6  A    between atoms: C15_15  and  C20_22
REMARK    7  A    between atoms: N1_17  and  C19_21
REMARK    8  A    between atoms: C16_18  and  C17_19
REMARK    9  A    between atoms: C16_18  and  C18_20
REMARK   10  A    between atoms: O1_23  and  C21_24
REMARK   11  A    between atoms: O2_25  and  C22_26
REMARK   12  A    between atoms: C24_28  and  O4_33
REMARK   13  A    between atoms: C26_30  and  O3_31
REMARK   14  A    between atoms: O3_31  and  C27_32
REMARK   15  A    between atoms: O4_33  and  C28_34
REMARK   16  A    between atoms: O5_35  and  C29_36
REMARK                            x       y       z     vdW  Elec       q    Type
REMARK                         _______ _______ _______ _____ _____    ______ ____
ROOT
ATOM     18  C   UNL     1      50.005  15.854  18.458  0.00  0.00    -0.104 A 
ATOM     19  C   UNL     1      50.297  17.043  17.781  0.00  0.00    +0.182 A 
ATOM     22  C   UNL     1      49.388  18.085  17.807  0.00  0.00    -0.167 A 
ATOM     23  C   UNL     1      48.198  17.947  18.501  0.00  0.00    +0.177 A 
ATOM     26  C   UNL     1      47.903  16.765  19.176  0.00  0.00    -0.133 A 
ATOM     27  C   UNL     1      46.596  16.673  19.920  0.00  0.00    +0.163 C 
ATOM     28  C   UNL     1      45.486  17.291  19.068  0.00  0.00    +0.055 C 
ATOM     29  C   UNL     1      46.709  17.444  21.238  0.00  0.00    +0.007 C 
ATOM     30  N   UNL     1      46.257  15.269  20.189  0.00  0.00    -0.517 NA
ATOM     31  C   UNL     1      45.030  15.169  20.991  0.00  0.00    +0.187 C 
ATOM     32  C   UNL     1      47.383  14.602  20.863  0.00  0.00    +0.123 C 
ATOM     33  C   UNL     1      46.936  13.238  21.392  0.00  0.00    +0.036 C 
ATOM     34  C   UNL     1      48.513  14.416  19.850  0.00  0.00    +0.105 C 
ATOM     35  C   UNL     1      48.797  15.719  19.150  0.00  0.00    +0.024 A 
ENDROOT
BRANCH  18  17
ATOM      1  C   UNL     1      51.981  15.647  20.535  0.00  0.00    +0.094 C 
ATOM      2  C   UNL     1      51.931  14.623  19.430  0.00  0.00    +0.004 A 
ATOM      3  C   UNL     1      52.841  13.574  19.422  0.00  0.00    -0.115 A 
ATOM      4  C   UNL     1      52.820  12.624  18.426  0.00  0.00    +0.181 A 
ATOM      7  C   UNL     1      51.862  12.710  17.395  0.00  0.00    -0.128 A 
ATOM      8  C   UNL     1      50.931  13.775  17.396  0.00  0.00    +0.077 A 
ATOM      9  C   UNL     1      49.978  13.861  16.372  0.00  0.00    -0.063 A 
ATOM     10  C   UNL     1      49.960  12.909  15.377  0.00  0.00    +0.182 A 
ATOM     13  C   UNL     1      50.879  11.858  15.378  0.00  0.00    -0.182 A 
ATOM     14  C   UNL     1      51.818  11.752  16.363  0.00  0.00    +0.208 A 
ATOM     17  C   UNL     1      50.973  14.735  18.437  0.00  0.00    -0.078 A 
BRANCH   4   5
ATOM      5  O   UNL     1      53.719  11.607  18.435  0.00  0.00    -0.292 OA
ATOM      6  C   UNL     1      54.800  11.705  19.364  0.00  0.00    +0.237 C 
ENDBRANCH   4   5
BRANCH  10  11
ATOM     11  O   UNL     1      49.035  12.993  14.384  0.00  0.00    -0.312 OA
ATOM     12  C   UNL     1      47.871  12.173  14.511  0.00  0.00    +0.238 C 
ENDBRANCH  10  11
BRANCH  14  15
ATOM     15  O   UNL     1      52.706  10.723  16.350  0.00  0.00    -0.287 OA
ATOM     16  C   UNL     1      53.269  10.369  15.085  0.00  0.00    +0.238 C 
ENDBRANCH  14  15
ENDBRANCH  18  17
BRANCH  19  20
ATOM     20  O   UNL     1      51.468  17.173  17.105  0.00  0.00    -0.301 OA
ATOM     21  C   UNL     1      51.577  18.275  16.203  0.00  0.00    +0.234 C 
ENDBRANCH  19  20
BRANCH  23  24
ATOM     24  O   UNL     1      47.309  18.975  18.524  0.00  0.00    -0.300 OA
ATOM     25  C   UNL     1      47.765  20.215  19.068  0.00  0.00    +0.228 C 
ENDBRANCH  23  24
TORSDOF 6
ENDMDL
MODEL 7
REMARK VINA RESULT:      -4.6      3.049      7.152
REMARK  Name = ZINC95486018
REMARK  16 active torsions:
REMARK  status: ('A' for Active; 'I' for Inactive)
REMARK    1  A    between atoms: C1_1  and  C2_2
REMARK    2  A    between atoms: C4_4  and  O5_35
REMARK    3  A    between atoms: C7_7  and  C8_8
REMARK    4  A    between atoms: C9_9  and  O2_25
REMARK    5  A    between atoms: C11_11  and  O1_23
REMARK    6  A    between atoms: C15_15  and  C20_22
REMARK    7  A    between atoms: N1_17  and  C19_21
REMARK    8  A    between atoms: C16_18  and  C17_19
REMARK    9  A    between atoms: C16_18  and  C18_20
REMARK   10  A    between atoms: O1_23  and  C21_24
REMARK   11  A    between atoms: O2_25  and  C22_26
REMARK   12  A    between atoms: C24_28  and  O4_33
REMARK   13  A    between atoms: C26_30  and  O3_31
REMARK   14  A    between atoms: O3_31  and  C27_32
REMARK   15  A    between atoms: O4_33  and  C28_34
REMARK   16  A    between atoms: O5_35  and  C29_36
REMARK                            x       y       z     vdW  Elec       q    Type
REMARK                         _______ _______ _______ _____ _____    ______ ____
ROOT
ATOM     18  C   UNL     1      50.766  12.888  17.567  0.00  0.00    -0.104 A 
ATOM     19  C   UNL     1      50.943  12.724  16.189  0.00  0.00    +0.182 A 
ATOM     22  C   UNL     1      49.848  12.788  15.347  0.00  0.00    -0.167 A 
ATOM     23  C   UNL     1      48.586  13.016  15.870  0.00  0.00    +0.177 A 
ATOM     26  C   UNL     1      48.406  13.179  17.242  0.00  0.00    -0.133 A 
ATOM     27  C   UNL     1      47.011  13.430  17.755  0.00  0.00    +0.163 C 
ATOM     28  C   UNL     1      46.032  12.512  17.021  0.00  0.00    +0.055 C 
ATOM     29  C   UNL     1      46.630  14.888  17.491  0.00  0.00    +0.007 C 
ATOM     30  N   UNL     1      46.936  13.146  19.195  0.00  0.00    -0.517 NA
ATOM     31  C   UNL     1      45.605  13.470  19.725  0.00  0.00    +0.187 C 
ATOM     32  C   UNL     1      47.985  13.892  19.908  0.00  0.00    +0.123 C 
ATOM     33  C   UNL     1      47.736  13.822  21.416  0.00  0.00    +0.036 C 
ATOM     34  C   UNL     1      49.338  13.261  19.581  0.00  0.00    +0.105 C 
ATOM     35  C   UNL     1      49.488  13.108  18.089  0.00  0.00    +0.024 A 
ENDROOT
BRANCH  18  17
ATOM      1  C   UNL     1      51.630  10.342  18.584  0.00  0.00    +0.094 C 
ATOM      2  C   UNL     1      52.360  11.602  18.973  0.00  0.00    +0.004 A 
ATOM      3  C   UNL     1      53.457  11.527  19.821  0.00  0.00    -0.115 A 
ATOM      4  C   UNL     1      54.144  12.661  20.194  0.00  0.00    +0.181 A 
ATOM      7  C   UNL     1      53.734  13.920  19.711  0.00  0.00    -0.128 A 
ATOM      8  C   UNL     1      52.618  14.004  18.846  0.00  0.00    +0.077 A 
ATOM      9  C   UNL     1      52.209  15.256  18.365  0.00  0.00    -0.063 A 
ATOM     10  C   UNL     1      52.898  16.388  18.739  0.00  0.00    +0.182 A 
ATOM     13  C   UNL     1      54.000  16.303  19.592  0.00  0.00    -0.182 A 
ATOM     14  C   UNL     1      54.418  15.096  20.076  0.00  0.00    +0.208 A 
ATOM     17  C   UNL     1      51.933  12.821  18.475  0.00  0.00    -0.078 A 
BRANCH   4   5
ATOM      5  O   UNL     1      55.214  12.567  21.024  0.00  0.00    -0.292 OA
ATOM      6  C   UNL     1      56.222  11.616  20.678  0.00  0.00    +0.237 C 
ENDBRANCH   4   5
BRANCH  10  11
ATOM     11  O   UNL     1      52.502  17.601  18.272  0.00  0.00    -0.312 OA
ATOM     12  C   UNL     1      51.610  17.606  17.155  0.00  0.00    +0.238 C 
ENDBRANCH  10  11
BRANCH  14  15
ATOM     15  O   UNL     1      55.492  15.030  20.905  0.00  0.00    -0.287 OA
ATOM     16  C   UNL     1      56.595  15.888  20.608  0.00  0.00    +0.238 C 
ENDBRANCH  14  15
ENDBRANCH  18  17
BRANCH  19  20
ATOM     20  O   UNL     1      52.184  12.505  15.682  0.00  0.00    -0.301 OA
ATOM     21  C   UNL     1      52.410  11.248  15.041  0.00  0.00    +0.234 C 
ENDBRANCH  19  20
BRANCH  23  24
ATOM     24  O   UNL     1      47.514  13.080  15.038  0.00  0.00    -0.300 OA
ATOM     25  C   UNL     1      47.753  12.833  13.651  0.00  0.00    +0.228 C 
ENDBRANCH  23  24
TORSDOF 6
ENDMDL
MODEL 8
REMARK VINA RESULT:      -4.5      2.404      3.501
REMARK  Name = ZINC95486018
REMARK  16 active torsions:
REMARK  status: ('A' for Active; 'I' for Inactive)
REMARK    1  A    between atoms: C1_1  and  C2_2
REMARK    2  A    between atoms: C4_4  and  O5_35
REMARK    3  A    between atoms: C7_7  and  C8_8
REMARK    4  A    between atoms: C9_9  and  O2_25
REMARK    5  A    between atoms: C11_11  and  O1_23
REMARK    6  A    between atoms: C15_15  and  C20_22
REMARK    7  A    between atoms: N1_17  and  C19_21
REMARK    8  A    between atoms: C16_18  and  C17_19
REMARK    9  A    between atoms: C16_18  and  C18_20
REMARK   10  A    between atoms: O1_23  and  C21_24
REMARK   11  A    between atoms: O2_25  and  C22_26
REMARK   12  A    between atoms: C24_28  and  O4_33
REMARK   13  A    between atoms: C26_30  and  O3_31
REMARK   14  A    between atoms: O3_31  and  C27_32
REMARK   15  A    between atoms: O4_33  and  C28_34
REMARK   16  A    between atoms: O5_35  and  C29_36
REMARK                            x       y       z     vdW  Elec       q    Type
REMARK                         _______ _______ _______ _____ _____    ______ ____
ROOT
ATOM     18  C   UNL     1      51.296  16.854  20.001  0.00  0.00    -0.104 A 
ATOM     19  C   UNL     1      50.985  17.097  21.343  0.00  0.00    +0.182 A 
ATOM     22  C   UNL     1      50.792  18.397  21.775  0.00  0.00    -0.167 A 
ATOM     23  C   UNL     1      50.905  19.447  20.879  0.00  0.00    +0.177 A 
ATOM     26  C   UNL     1      51.214  19.208  19.541  0.00  0.00    -0.133 A 
ATOM     27  C   UNL     1      51.319  20.388  18.610  0.00  0.00    +0.163 C 
ATOM     28  C   UNL     1      52.069  21.521  19.314  0.00  0.00    +0.055 C 
ATOM     29  C   UNL     1      49.913  20.867  18.241  0.00  0.00    +0.007 C 
ATOM     30  N   UNL     1      52.057  20.018  17.395  0.00  0.00    -0.517 NA
ATOM     31  C   UNL     1      52.089  21.134  16.440  0.00  0.00    +0.187 C 
ATOM     32  C   UNL     1      51.453  18.821  16.787  0.00  0.00    +0.123 C 
ATOM     33  C   UNL     1      52.033  18.601  15.389  0.00  0.00    +0.036 C 
ATOM     34  C   UNL     1      51.771  17.615  17.671  0.00  0.00    +0.105 C 
ATOM     35  C   UNL     1      51.417  17.919  19.104  0.00  0.00    +0.024 A 
ENDROOT
BRANCH  18  17
ATOM      1  C   UNL     1      49.100  15.405  18.842  0.00  0.00    +0.094 C 
ATOM      2  C   UNL     1      50.455  14.755  18.972  0.00  0.00    +0.004 A 
ATOM      3  C   UNL     1      50.638  13.454  18.523  0.00  0.00    -0.115 A 
ATOM      4  C   UNL     1      51.864  12.834  18.629  0.00  0.00    +0.181 A 
ATOM      7  C   UNL     1      52.952  13.525  19.199  0.00  0.00    -0.128 A 
ATOM      8  C   UNL     1      52.773  14.851  19.657  0.00  0.00    +0.077 A 
ATOM      9  C   UNL     1      53.855  15.539  20.224  0.00  0.00    -0.063 A 
ATOM     10  C   UNL     1      55.079  14.916  20.328  0.00  0.00    +0.182 A 
ATOM     13  C   UNL     1      55.255  13.608  19.874  0.00  0.00    -0.182 A 
ATOM     14  C   UNL     1      54.216  12.915  19.319  0.00  0.00    +0.208 A 
ATOM     17  C   UNL     1      51.503  15.465  19.531  0.00  0.00    -0.078 A 
BRANCH   4   5
ATOM      5  O   UNL     1      52.024  11.562  18.185  0.00  0.00    -0.292 OA
ATOM      6  C   UNL     1      50.964  10.642  18.457  0.00  0.00    +0.237 C 
ENDBRANCH   4   5
BRANCH  10  11
ATOM     11  O   UNL     1      56.128  15.584  20.877  0.00  0.00    -0.312 OA
ATOM     12  C   UNL     1      57.394  14.920  20.869  0.00  0.00    +0.238 C 
ENDBRANCH  10  11
BRANCH  14  15
ATOM     15  O   UNL     1      54.403  11.642  18.882  0.00  0.00    -0.287 OA
ATOM     16  C   UNL     1      54.746  10.664  19.865  0.00  0.00    +0.238 C 
ENDBRANCH  14  15
ENDBRANCH  18  17
BRANCH  19  20
ATOM     20  O   UNL     1      50.873  16.063  22.216  0.00  0.00    -0.301 OA
ATOM     21  C   UNL     1      49.553  15.599  22.505  0.00  0.00    +0.234 C 
ENDBRANCH  19  20
BRANCH  23  24
ATOM     24  O   UNL     1      50.713  20.722  21.308  0.00  0.00    -0.300 OA
ATOM     25  C   UNL     1      49.604  20.953  22.178  0.00  0.00    +0.228 C 
ENDBRANCH  23  24
TORSDOF 6
ENDMDL
MODEL 9
REMARK VINA RESULT:      -4.3      2.406      7.022
REMARK  Name = ZINC95486018
REMARK  16 active torsions:
REMARK  status: ('A' for Active; 'I' for Inactive)
REMARK    1  A    between atoms: C1_1  and  C2_2
REMARK    2  A    between atoms: C4_4  and  O5_35
REMARK    3  A    between atoms: C7_7  and  C8_8
REMARK    4  A    between atoms: C9_9  and  O2_25
REMARK    5  A    between atoms: C11_11  and  O1_23
REMARK    6  A    between atoms: C15_15  and  C20_22
REMARK    7  A    between atoms: N1_17  and  C19_21
REMARK    8  A    between atoms: C16_18  and  C17_19
REMARK    9  A    between atoms: C16_18  and  C18_20
REMARK   10  A    between atoms: O1_23  and  C21_24
REMARK   11  A    between atoms: O2_25  and  C22_26
REMARK   12  A    between atoms: C24_28  and  O4_33
REMARK   13  A    between atoms: C26_30  and  O3_31
REMARK   14  A    between atoms: O3_31  and  C27_32
REMARK   15  A    between atoms: O4_33  and  C28_34
REMARK   16  A    between atoms: O5_35  and  C29_36
REMARK                            x       y       z     vdW  Elec       q    Type
REMARK                         _______ _______ _______ _____ _____    ______ ____
ROOT
ATOM     18  C   UNL     1      50.284  14.134  18.891  0.00  0.00    -0.104 A 
ATOM     19  C   UNL     1      51.380  13.993  19.750  0.00  0.00    +0.182 A 
ATOM     22  C   UNL     1      52.395  13.113  19.423  0.00  0.00    -0.167 A 
ATOM     23  C   UNL     1      52.323  12.379  18.251  0.00  0.00    +0.177 A 
ATOM     26  C   UNL     1      51.234  12.517  17.393  0.00  0.00    -0.133 A 
ATOM     27  C   UNL     1      51.212  11.697  16.128  0.00  0.00    +0.163 C 
ATOM     28  C   UNL     1      51.687  10.277  16.439  0.00  0.00    +0.055 C 
ATOM     29  C   UNL     1      52.153  12.330  15.100  0.00  0.00    +0.007 C 
ATOM     30  N   UNL     1      49.848  11.631  15.585  0.00  0.00    -0.517 NA
ATOM     31  C   UNL     1      49.828  10.910  14.305  0.00  0.00    +0.187 C 
ATOM     32  C   UNL     1      49.302  12.989  15.434  0.00  0.00    +0.123 C 
ATOM     33  C   UNL     1      48.010  12.940  14.617  0.00  0.00    +0.036 C 
ATOM     34  C   UNL     1      49.009  13.552  16.825  0.00  0.00    +0.105 C 
ATOM     35  C   UNL     1      50.214  13.383  17.713  0.00  0.00    +0.024 A 
ENDROOT
BRANCH  18  17
ATOM      1  C   UNL     1      47.957  13.168  20.274  0.00  0.00    +0.094 C 
ATOM      2  C   UNL     1      48.067  14.624  19.898  0.00  0.00    +0.004 A 
ATOM      3  C   UNL     1      47.041  15.499  20.229  0.00  0.00    -0.115 A 
ATOM      4  C   UNL     1      47.113  16.834  19.898  0.00  0.00    +0.181 A 
ATOM      7  C   UNL     1      48.243  17.327  19.215  0.00  0.00    -0.128 A 
ATOM      8  C   UNL     1      49.293  16.442  18.876  0.00  0.00    +0.077 A 
ATOM      9  C   UNL     1      50.418  16.932  18.197  0.00  0.00    -0.063 A 
ATOM     10  C   UNL     1      50.487  18.268  17.868  0.00  0.00    +0.182 A 
ATOM     13  C   UNL     1      49.450  19.140  18.205  0.00  0.00    -0.182 A 
ATOM     14  C   UNL     1      48.343  18.688  18.866  0.00  0.00    +0.208 A 
ATOM     17  C   UNL     1      49.194  15.075  19.233  0.00  0.00    -0.078 A 
BRANCH   4   5
ATOM      5  O   UNL     1      46.099  17.673  20.230  0.00  0.00    -0.292 OA
ATOM      6  C   UNL     1      44.772  17.148  20.158  0.00  0.00    +0.237 C 
ENDBRANCH   4   5
BRANCH  10  11
ATOM     11  O   UNL     1      51.577  18.742  17.210  0.00  0.00    -0.312 OA
ATOM     12  C   UNL     1      52.628  19.291  18.009  0.00  0.00    +0.238 C 
ENDBRANCH  10  11
BRANCH  14  15
ATOM     15  O   UNL     1      47.342  19.549  19.186  0.00  0.00    -0.287 OA
ATOM     16  C   UNL     1      47.721  20.791  19.781  0.00  0.00    +0.238 C 
ENDBRANCH  14  15
ENDBRANCH  18  17
BRANCH  19  20
ATOM     20  O   UNL     1      51.445  14.718  20.897  0.00  0.00    -0.301 OA
ATOM     21  C   UNL     1      52.524  15.647  21.016  0.00  0.00    +0.234 C 
ENDBRANCH  19  20
BRANCH  23  24
ATOM     24  O   UNL     1      53.325  11.516  17.934  0.00  0.00    -0.300 OA
ATOM     25  C   UNL     1      54.377  11.365  18.889  0.00  0.00    +0.228 C 
ENDBRANCH  23  24
TORSDOF 6
ENDMDL
